data_mof_unit_46719.cif
_audit_creation_date              2013-03-05T16:01:09-0500
_audit_creation_method            fapswitch 2.2
_symmetry_space_group_name_H-M    P1
_symmetry_Int_Tables_number       1
_space_group_crystal_system       triclinic
_cell_length_a                    7.218962
_cell_length_b                    37.186614
_cell_length_c                    41.079889
_cell_angle_alpha                 90.001999
_cell_angle_beta                  90.384456
_cell_angle_gamma                 89.771106
_cell_volume                      11027.5087321

loop_
_atom_site_label
_atom_site_type_symbol
_atom_site_description
_atom_site_fract_x
_atom_site_fract_y
_atom_site_fract_z
_atom_type_partial_charge
O1    O     O_R   0.564240 0.782760 0.216890 -0.532311
O2    O     O_R   0.435760 0.217240 0.783110 -0.610522
O3    O     O_R   0.435760 0.217240 0.716890 -0.542666
O4    O     O_R   0.564240 0.782760 0.283110 -0.607818
O5    O     O_R   0.064240 0.717240 0.283110 -0.586559
O6    O     O_R   0.935760 0.282760 0.716890 -0.611481
O7    O     O_R   0.935760 0.282760 0.783110 -0.551389
O8    O     O_R   0.064240 0.717240 0.216890 -0.597856
O9    O     O_R   0.234510 0.787070 0.282870 -0.527233
O10   O     O_R   0.765490 0.212930 0.717130 -0.604410
O11   O     O_R   0.765490 0.212930 0.782870 -0.541121
O12   O     O_R   0.234510 0.787070 0.217130 -0.599486
O13   O     O_R   0.734510 0.712930 0.217130 -0.586465
O14   O     O_R   0.265490 0.287070 0.782870 -0.599876
O15   O     O_R   0.265490 0.287070 0.717130 -0.567476
O16   O     O_R   0.734510 0.712930 0.282870 -0.591314
C1    C     C_R   0.403855 0.796583 0.292748 1.092256
C2    C     C_R   0.597342 0.203915 0.706770 1.105714
C3    C     C_R   0.596572 0.203667 0.792969 1.107288
C4    C     C_R   0.402399 0.796268 0.206864 1.090572
C5    C     C_R   0.903116 0.705322 0.205529 1.140554
C6    C     C_R   0.098056 0.296561 0.792855 1.124507
C7    C     C_R   0.095162 0.296180 0.706920 1.136735
C8    C     C_R   0.902621 0.704982 0.294265 1.129984
O17   O     O_3   0.397750 0.727090 0.250000 -0.296764
O18   O     O_3   0.602250 0.272910 0.750000 -0.274696
O19   O     O_3   0.897750 0.772910 0.250000 -0.247186
O20   O     O_3   0.102250 0.227090 0.750000 -0.261243
V1    V     V_3+5 0.122890 0.754250 0.250000 1.315892
V2    V     V_3+5 0.877110 0.245750 0.750000 1.311889
V3    V     V_3+5 0.622890 0.745750 0.250000 1.292347
V4    V     V_3+5 0.377110 0.254250 0.750000 1.299659
C9    C     C_R   0.074497 0.613113 0.427921 0.646205
C10   C     C_R   0.889654 0.402562 0.584786 0.705799
C11   C     C_R   0.190906 0.408599 0.914326 0.643862
C12   C     C_R   0.818382 0.611368 0.069937 0.638703
C13   C     C_R   0.415880 0.890464 0.073103 0.652944
C14   C     C_R   0.491176 0.109869 0.925441 0.631427
C15   C     C_R   0.586945 0.112809 0.570395 0.649942
C16   C     C_R   0.501755 0.892912 0.423506 0.627419
O21   O     O_2   0.223497 0.632392 0.418984 -0.492465
O22   O     O_2   0.754676 0.378375 0.589995 -0.537838
O23   O     O_2   0.341361 0.387517 0.910595 -0.548739
O24   O     O_2   0.657908 0.628656 0.076095 -0.497437
O25   O     O_2   0.351478 0.856866 0.068358 -0.503071
O26   O     O_2   0.430324 0.144010 0.928605 -0.504103
O27   O     O_2   0.657449 0.145940 0.565854 -0.493671
O28   O     O_2   0.558468 0.858550 0.427201 -0.505946
N1    N     N_R   0.917494 0.614463 0.408992 -0.151461
N2    N     N_R   0.040119 0.402750 0.605246 -0.150336
N3    N     N_R   0.049273 0.405989 0.892131 -0.146699
N4    N     N_R   0.962551 0.614646 0.091587 -0.149279
N5    N     N_R   0.446405 0.902260 0.104335 -0.149909
N6    N     N_R   0.542996 0.097755 0.895265 -0.152516
N7    N     N_R   0.552100 0.101328 0.601505 -0.153764
N8    N     N_R   0.454400 0.904992 0.392989 -0.152074
C17   C     C_R   0.768556 0.593202 0.415943 0.630570
C18   C     C_R   0.177526 0.427614 0.601782 0.557007
C19   C     C_R   0.898490 0.428246 0.893788 0.613263
C20   C     C_R   0.122822 0.595456 0.087496 0.618555
C21   C     C_R   0.493726 0.937300 0.110247 0.622626
C22   C     C_R   0.585524 0.062228 0.890446 0.587576
C23   C     C_R   0.499774 0.066552 0.607285 0.595982
C24   C     C_R   0.414420 0.940572 0.387757 0.594462
C25   C     C_R   0.911678 0.621336 0.349064 0.239982
C26   C     C_R   0.990007 0.384840 0.662768 0.241799
C27   C     C_R   0.161843 0.386187 0.837971 0.230875
C28   C     C_R   0.923784 0.621721 0.151037 0.244219
C29   C     C_R   0.302014 0.881005 0.156149 0.188028
C30   C     C_R   0.446076 0.120022 0.840201 0.227359
C31   C     C_R   0.695158 0.120722 0.654277 0.218350
C32   C     C_R   0.556052 0.881159 0.338889 0.213490
C33   C     C_R   0.900781 0.643246 0.320952 0.151833
C34   C     C_R   0.994746 0.358285 0.687581 0.175521
C35   C     C_R   0.178313 0.359217 0.813725 0.189902
C36   C     C_R   0.915499 0.643793 0.179022 0.151516
C37   C     C_R   0.292592 0.855060 0.181462 0.161261
C38   C     C_R   0.460990 0.145843 0.814922 0.172659
C39   C     C_R   0.704225 0.145549 0.680489 0.166707
C40   C     C_R   0.544455 0.854198 0.314527 0.171351
C41   C     C_R   0.899662 0.696718 0.355102 0.367031
C42   C     C_R   0.126368 0.315541 0.649147 0.386921
C43   C     C_R   0.010342 0.317640 0.848353 0.395191
C44   C     C_R   0.940928 0.697062 0.145068 0.375375
C45   C     C_R   0.535565 0.819975 0.155256 0.409803
C46   C     C_R   0.685213 0.179067 0.847446 0.419407
C47   C     C_R   0.475421 0.183326 0.653175 0.417688
C48   C     C_R   0.301679 0.824145 0.345029 0.426620
C49   C     C_R   0.903225 0.674590 0.383346 0.475507
C50   C     C_R   0.118818 0.341726 0.624392 0.445725
C51   C     C_R   0.982880 0.345138 0.871483 0.454546
C52   C     C_R   0.951699 0.674860 0.116955 0.462669
C53   C     C_R   0.555373 0.847193 0.131600 0.474358
C54   C     C_R   0.681148 0.152254 0.871428 0.485671
C55   C     C_R   0.455190 0.157556 0.628504 0.490704
C56   C     C_R   0.309278 0.851369 0.368829 0.465464
C57   C     C_R   0.913408 0.637043 0.380203 -0.133284
C58   C     C_R   0.051935 0.376431 0.631137 -0.150901
C59   C     C_R   0.060107 0.379318 0.866527 -0.142322
C60   C     C_R   0.941987 0.637313 0.120040 -0.129351
C61   C     C_R   0.433710 0.876781 0.130983 -0.153327
C62   C     C_R   0.557443 0.123198 0.868604 -0.188235
C63   C     C_R   0.567832 0.126545 0.628340 -0.184641
C64   C     C_R   0.439938 0.879270 0.366541 -0.169224
C65   C     C_R   0.940257 0.565353 0.460636 -0.051193
C66   C     C_R   0.009502 0.455115 0.556419 -0.051656
C67   C     C_R   0.029936 0.457815 0.941593 -0.044644
C68   C     C_R   0.991258 0.566127 0.039633 -0.042159
C69   C     C_R   0.479939 0.950238 0.052194 -0.075370
C70   C     C_R   0.526816 0.049603 0.947580 -0.075757
C71   C     C_R   0.516688 0.053269 0.549392 -0.075303
C72   C     C_R   0.469145 0.953429 0.445097 -0.077961
C73   C     C_R   0.084156 0.590362 0.455637 -0.249477
C74   C     C_R   0.872555 0.428175 0.559286 -0.260808
C75   C     C_R   0.182065 0.433721 0.940330 -0.251738
C76   C     C_R   0.834138 0.588761 0.042219 -0.259652
C77   C     C_R   0.447509 0.913390 0.046153 -0.260810
C78   C     C_R   0.497431 0.086726 0.952858 -0.268564
C79   C     C_R   0.554180 0.089919 0.543371 -0.267144
C80   C     C_R   0.494724 0.916256 0.450742 -0.265465
C81   C     C_R   0.234131 0.591094 0.477948 0.413177
C82   C     C_R   0.722635 0.428144 0.536926 0.428026
C83   C     C_R   0.320165 0.435824 0.964855 0.415876
C84   C     C_R   0.697043 0.587377 0.017503 0.406809
C85   C     C_R   0.442709 0.901096 0.013519 0.421250
C86   C     C_R   0.470657 0.099119 0.985104 0.412898
C87   C     C_R   0.563083 0.101997 0.510714 0.416576
C88   C     C_R   0.517010 0.903992 0.483185 0.417955
C89   C     C_R   0.779756 0.567432 0.440971 -0.033961
C90   C     C_R   0.165245 0.454062 0.577325 -0.016914
C91   C     C_R   0.885885 0.454408 0.918440 -0.040469
C92   C     C_R   0.137935 0.570176 0.062162 -0.041776
C93   C     C_R   0.499739 0.962293 0.084562 -0.081243
C94   C     C_R   0.567353 0.037284 0.915960 -0.077286
C95   C     C_R   0.492658 0.041485 0.581689 -0.074185
C96   C     C_R   0.432442 0.965651 0.413211 -0.078569
C97   C     C_R   0.906815 0.681152 0.323709 -0.491906
C98   C     C_R   0.078777 0.324358 0.681353 -0.506632
C99   C     C_R   0.093932 0.325144 0.818319 -0.498780
C100  C     C_R   0.914878 0.681609 0.176133 -0.496609
C101  C     C_R   0.410986 0.824507 0.181135 -0.492944
C102  C     C_R   0.584871 0.175146 0.818242 -0.510561
C103  C     C_R   0.589531 0.176601 0.680333 -0.504874
C104  C     C_R   0.414988 0.825821 0.317418 -0.501597
C105  C     C_R   0.134966 0.508942 0.529138 0.083712
C106  C     C_R   0.810782 0.513066 0.489429 0.084308
C107  C     C_R   0.161179 0.516813 0.012668 0.091405
C108  C     C_R   0.863734 0.508443 0.967451 0.090628
C109  C     C_R   0.524922 0.987194 0.967572 0.072876
C110  C     C_R   0.503989 0.012541 0.032470 0.071696
C111  C     C_R   0.475186 0.015957 0.464749 0.071953
C112  C     C_R   0.487325 0.990979 0.529854 0.072498
C113  C     C_R   0.832134 0.484517 0.512376 -0.014163
C114  C     C_R   0.116493 0.536814 0.505321 -0.006323
C115  C     C_R   0.855315 0.535882 0.991798 -0.010321
C116  C     C_R   0.167762 0.488899 0.988812 -0.013465
C117  C     C_R   0.496574 0.037411 0.006111 -0.008191
C118  C     C_R   0.494386 0.962482 0.993465 -0.007656
C119  C     C_R   0.494865 0.965916 0.503688 -0.007668
C120  C     C_R   0.506007 0.040725 0.490667 -0.007709
C121  C     C_R   0.991973 0.482979 0.532590 0.104255
C122  C     C_R   0.956021 0.538332 0.485232 0.108517
C123  C     C_R   0.002505 0.539520 0.014599 0.116198
C124  C     C_R   0.020668 0.485180 0.966010 0.113458
C125  C     C_R   0.515936 0.024696 0.973832 0.098535
C126  C     C_R   0.492736 0.975128 0.025962 0.100738
C127  C     C_R   0.479884 0.978476 0.471255 0.098718
C128  C     C_R   0.503335 0.028287 0.523221 0.100011
C129  C     C_R   0.293798 0.505569 0.549361 -0.199775
C130  C     C_R   0.647236 0.517563 0.470620 -0.199246
C131  C     C_R   0.309471 0.523167 0.034647 -0.182894
C132  C     C_R   0.718520 0.502914 0.944656 -0.179650
C133  C     C_R   0.566799 0.975767 0.935629 -0.184348
C134  C     C_R   0.524963 0.023702 0.065178 -0.182798
C135  C     C_R   0.437261 0.027304 0.432539 -0.183513
C136  C     C_R   0.461740 0.980112 0.562478 -0.186112
C137  C     C_R   0.306859 0.479115 0.573193 -0.033188
C138  C     C_R   0.633094 0.543939 0.446759 -0.019756
C139  C     C_R   0.297113 0.549028 0.058962 -0.004613
C140  C     C_R   0.730902 0.476880 0.920492 -0.019612
C141  C     C_R   0.590808 0.000407 0.910510 -0.037492
C142  C     C_R   0.526296 0.998950 0.090615 -0.028005
C143  C     C_R   0.412906 0.002564 0.407440 -0.035598
C144  C     C_R   0.460976 0.005010 0.587776 -0.027968
O29   O     O_2   0.325146 0.426907 0.622105 -0.498583
O30   O     O_2   0.611337 0.596457 0.398213 -0.479204
O31   O     O_2   0.265994 0.600321 0.108308 -0.483175
O32   O     O_2   0.762609 0.425560 0.871235 -0.488920
O33   O     O_2   0.644318 0.051004 0.861025 -0.477604
O34   O     O_2   0.532959 0.948027 0.140893 -0.471949
O35   O     O_2   0.358933 0.951708 0.357980 -0.476704
O36   O     O_2   0.456389 0.056146 0.637755 -0.472556
C145  C     C_R   0.250022 0.564258 0.501743 -0.307174
C146  C     C_R   0.702355 0.456311 0.514653 -0.287748
C147  C     C_R   0.313473 0.463416 0.987938 -0.291451
C148  C     C_R   0.707308 0.560866 0.993377 -0.296955
C149  C     C_R   0.465520 0.925485 0.987932 -0.279348
C150  C     C_R   0.470351 0.074627 0.010968 -0.276840
C151  C     C_R   0.539427 0.077560 0.485115 -0.276667
C152  C     C_R   0.517061 0.928657 0.508900 -0.279906
H1    H     H_    0.430665 0.478178 0.588239 0.179243
H2    H     H_    0.505699 0.545758 0.432742 0.172469
H3    H     H_    0.414143 0.552377 0.075329 0.181554
H4    H     H_    0.616050 0.474144 0.903559 0.178880
H5    H     H_    0.624568 0.990279 0.886535 0.189785
H6    H     H_    0.544466 0.008850 0.115228 0.189710
H7    H     H_    0.382226 0.012625 0.383241 0.189995
H8    H     H_    0.439332 0.995344 0.612330 0.190259
H9    H     H_    0.412628 0.522788 0.547401 0.140756
H10   H     H_    0.525191 0.501472 0.474051 0.140080
H11   H     H_    0.439628 0.509012 0.033520 0.135350
H12   H     H_    0.590940 0.517960 0.944843 0.135044
H13   H     H_    0.588847 0.947870 0.929558 0.151593
H14   H     H_    0.547648 0.051414 0.071778 0.151899
H15   H     H_    0.418631 0.055237 0.426214 0.152349
H16   H     H_    0.435036 0.952554 0.569076 0.151599
H17   H     H_    0.366054 0.566672 0.518131 0.180292
H18   H     H_    0.587580 0.454073 0.497917 0.179946
H19   H     H_    0.420850 0.462811 0.006224 0.178199
H20   H     H_    0.599803 0.561703 0.975152 0.178284
H21   H     H_    0.457481 0.914649 0.963616 0.174907
H22   H     H_    0.446531 0.085572 0.034896 0.175302
H23   H     H_    0.550570 0.088201 0.460789 0.175245
H24   H     H_    0.537538 0.917807 0.533010 0.175151
O37   O     O_3   0.892829 0.733710 0.358049 -0.610877
C153  C     C_3   0.707030 0.744528 0.361731 -0.128791
H25   H     H_    0.650923 0.735345 0.385438 0.163568
H26   H     H_    0.617684 0.734797 0.341408 0.117444
H27   H     H_    0.701889 0.774350 0.361423 0.159580
O38   O     O_3   0.174617 0.280656 0.641410 -0.602048
C154  C     C_3   0.013102 0.262112 0.631772 -0.074408
H28   H     H_    0.946306 0.274792 0.610112 0.154842
H29   H     H_    0.912552 0.260295 0.652102 0.078084
H30   H     H_    0.051827 0.234268 0.624869 0.184710
O39   O     O_3   0.963156 0.282737 0.855949 -0.604033
C155  C     C_3   0.118926 0.266046 0.870579 -0.091240
H31   H     H_    0.162848 0.280313 0.893162 0.154826
H32   H     H_    0.236556 0.264177 0.853291 0.070609
H33   H     H_    0.081962 0.238226 0.877617 0.201251
O40   O     O_3   0.950919 0.734029 0.142283 -0.610020
C156  C     C_3   0.138183 0.744089 0.140013 -0.129761
H34   H     H_    0.198411 0.735138 0.116544 0.163030
H35   H     H_    0.222576 0.733524 0.160702 0.125265
H36   H     H_    0.145699 0.773859 0.140854 0.137776
O41   O     O_3   0.635399 0.788185 0.153071 -0.590213
C157  C     C_3   0.587459 0.769874 0.124081 -0.042312
H37   H     H_    0.693639 0.775190 0.105424 0.192863
H38   H     H_    0.449480 0.777350 0.113769 0.079013
H39   H     H_    0.584943 0.740603 0.129172 0.131283
O42   O     O_3   0.773530 0.210980 0.854444 -0.591152
C158  C     C_3   0.645849 0.234176 0.870097 -0.020110
H40   H     H_    0.529234 0.220341 0.882654 0.095225
H41   H     H_    0.587924 0.253477 0.852057 0.098325
H42   H     H_    0.720163 0.249482 0.889251 0.198245
O43   O     O_3   0.394952 0.216780 0.649316 -0.590559
C159  C     C_3   0.508312 0.237864 0.628781 0.014083
H43   H     H_    0.435761 0.242154 0.605183 0.195755
H44   H     H_    0.648496 0.226424 0.623679 0.034624
H45   H     H_    0.530463 0.264425 0.640431 0.130421
O44   O     O_3   0.186972 0.794793 0.349067 -0.582561
C160  C     C_3   0.248855 0.774112 0.375914 -0.018051
H46   H     H_    0.154930 0.778881 0.396652 0.187271
H47   H     H_    0.392856 0.779892 0.384267 0.069763
H48   H     H_    0.244598 0.745295 0.369097 0.130083
O45   O     O_3   0.870867 0.688456 0.414096 -0.610631
C161  C     C_3   0.019865 0.710000 0.424596 0.043787
H49   H     H_    0.152699 0.704767 0.411689 0.103580
H50   H     H_    0.045319 0.704555 0.450804 0.195331
H51   H     H_    0.979181 0.738646 0.422461 0.135454
O46   O     O_3   0.160443 0.332357 0.592709 -0.611797
C162  C     C_3   0.353418 0.334921 0.588568 0.085768
H52   H     H_    0.430394 0.316703 0.605383 0.090980
H53   H     H_    0.400744 0.363071 0.591861 0.177979
H54   H     H_    0.387305 0.326698 0.563348 0.200124
O47   O     O_3   0.899238 0.337558 0.900863 -0.601140
C163  C     C_3   0.705903 0.336226 0.895899 0.015155
H55   H     H_    0.665798 0.313775 0.879525 0.091594
H56   H     H_    0.651749 0.361965 0.885884 0.185078
H57   H     H_    0.638325 0.331670 0.919705 0.202352
O48   O     O_3   0.995418 0.688798 0.086720 -0.617515
C164  C     C_3   0.846368 0.709144 0.074038 0.034636
H58   H     H_    0.878165 0.738104 0.076691 0.136284
H59   H     H_    0.709232 0.702878 0.084988 0.107228
H60   H     H_    0.834628 0.703517 0.047592 0.195185
O49   O     O_3   0.687161 0.844035 0.107435 -0.604075
C165  C     C_3   0.862834 0.851328 0.120997 -0.070024
H61   H     H_    0.963123 0.854890 0.100923 0.184046
H62   H     H_    0.912522 0.828527 0.136239 0.161111
H63   H     H_    0.861573 0.876562 0.135533 0.184190
O50   O     O_3   0.783215 0.157054 0.899677 -0.578256
C166  C     C_3   0.954032 0.139108 0.896177 -0.017725
H64   H     H_    0.033566 0.149823 0.875176 0.140781
H65   H     H_    0.933711 0.109599 0.893698 0.141592
H66   H     H_    0.038119 0.143659 0.918478 0.189809
O51   O     O_3   0.335291 0.164454 0.602862 -0.582245
C167  C     C_3   0.160553 0.150313 0.610768 -0.070153
H67   H     H_    0.102955 0.163258 0.632973 0.133420
H68   H     H_    0.168239 0.120657 0.613958 0.167385
H69   H     H_    0.063239 0.155875 0.590356 0.189619
O52   O     O_3   0.199238 0.848715 0.396138 -0.605542
C168  C     C_3   0.034082 0.867922 0.390361 -0.025663
H70   H     H_    0.943385 0.864932 0.411864 0.183072
H71   H     H_    0.957603 0.857117 0.368871 0.157685
H72   H     H_    0.062573 0.897084 0.387322 0.153777
N9    N     N_R   0.362372 0.620602 0.478981 0.271136
O53   O     O_R   0.299486 0.653443 0.479546 -0.330080
O54   O     O_R   0.535167 0.614914 0.486662 -0.384907
N10   N     N_R   0.596194 0.398542 0.534562 0.249431
O55   O     O_R   0.419472 0.404682 0.531305 -0.416284
O56   O     O_R   0.659838 0.366593 0.527949 -0.323560
N11   N     N_R   0.461176 0.408730 0.968550 0.262061
O57   O     O_R   0.631082 0.418100 0.974894 -0.392109
O58   O     O_R   0.413074 0.375447 0.973228 -0.302258
N12   N     N_R   0.555302 0.614507 0.014558 0.267196
O59   O     O_R   0.601570 0.648298 0.014564 -0.324509
O60   O     O_R   0.389933 0.605797 0.004616 -0.385795
N13   N     N_R   0.428049 0.863633 0.005602 0.268640
O61   O     O_R   0.312372 0.853285 0.983089 -0.331935
O62   O     O_R   0.555392 0.841319 0.015679 -0.297447
N14   N     N_R   0.456490 0.136683 0.992679 0.267560
O63   O     O_R   0.326284 0.147998 0.011932 -0.329359
O64   O     O_R   0.594224 0.157922 0.986170 -0.282892
N15   N     N_R   0.582804 0.139341 0.502729 0.268938
O65   O     O_R   0.700505 0.149037 0.480576 -0.327620
O66   O     O_R   0.458190 0.162317 0.512342 -0.285146
N16   N     N_R   0.526750 0.866440 0.491039 0.267591
O67   O     O_R   0.653918 0.854793 0.511051 -0.333843
O68   O     O_R   0.387589 0.845668 0.483916 -0.295177
N17   N     N_R   0.896277 0.364781 0.717435 0.285573
O69   O     O_R   0.956595 0.352133 0.744990 -0.386458
O70   O     O_R   0.735175 0.380613 0.716672 -0.253058
N18   N     N_R   0.871422 0.626875 0.289895 0.277057
O71   O     O_R   0.963944 0.598106 0.281940 -0.201320
O72   O     O_R   0.726361 0.636095 0.272843 -0.315477
N19   N     N_R   0.924808 0.627735 0.210494 0.275165
O73   O     O_R   0.820258 0.600368 0.217368 -0.206236
O74   O     O_R   0.063937 0.635629 0.229428 -0.325674
N20   N     N_R   0.280499 0.366801 0.784643 0.277411
O75   O     O_R   0.241614 0.395475 0.767722 -0.227361
O76   O     O_R   0.436059 0.350118 0.779317 -0.310044
N21   N     N_R   0.340982 0.143475 0.786962 0.285722
O77   O     O_R   0.162430 0.141506 0.790691 -0.298294
O78   O     O_R   0.408879 0.144049 0.757729 -0.312005
N22   N     N_R   0.159592 0.859441 0.207014 0.290322
O79   O     O_R   0.984096 0.862464 0.200080 -0.326555
O80   O     O_R   0.213430 0.860534 0.237280 -0.286045
N23   N     N_R   0.669405 0.855091 0.287477 0.287212
O81   O     O_R   0.605952 0.854975 0.257769 -0.308307
O82   O     O_R   0.847426 0.856329 0.292528 -0.301513
N24   N     N_R   0.837209 0.140078 0.706202 0.288573
O83   O     O_R   0.784710 0.139212 0.736415 -0.285263
O84   O     O_R   0.012088 0.136331 0.699446 -0.315135
N25   N     N_R   0.924966 0.420551 0.669966 0.281438
O85   O     O_R   0.809880 0.436958 0.650444 -0.337958
O86   O     O_R   0.980866 0.436851 0.696264 -0.233199
N26   N     N_R   0.910351 0.582859 0.346216 0.277795
O87   O     O_R   0.770119 0.566750 0.332608 -0.236165
O88   O     O_R   0.039660 0.563714 0.360140 -0.334283
N27   N     N_R   0.925442 0.583255 0.154120 0.277807
O89   O     O_R   0.052308 0.567418 0.171686 -0.234012
O90   O     O_R   0.811508 0.563821 0.136953 -0.343577
N28   N     N_R   0.255250 0.420006 0.834240 0.278343
O91   O     O_R   0.428142 0.420806 0.825533 -0.248927
O92   O     O_R   0.170246 0.450091 0.840565 -0.328334
N29   N     N_R   0.318895 0.090550 0.836786 0.283254
O93   O     O_R   0.215216 0.080845 0.860996 -0.419976
O94   O     O_R   0.311079 0.072385 0.809740 -0.223519
N30   N     N_R   0.182271 0.912089 0.156669 0.272307
O95   O     O_R   0.108532 0.924458 0.129907 -0.424075
O96   O     O_R   0.156154 0.929650 0.183661 -0.223959
N31   N     N_R   0.681710 0.910804 0.334847 0.281584
O97   O     O_R   0.773751 0.923688 0.359503 -0.428344
O98   O     O_R   0.695454 0.926667 0.306735 -0.221384
N32   N     N_R   0.813192 0.089428 0.654325 0.278636
O99   O     O_R   0.893480 0.078809 0.627724 -0.421649
O100  O     O_R   0.833459 0.070300 0.680643 -0.225683

loop_
_geom_bond_atom_site_label_1
_geom_bond_atom_site_label_2
_geom_bond_distance
_ccdc_geom_bond_type
C45   O41   1.385267 S    
C54   O50   1.382386 S    
C166  H64   1.114079 S    
C10   O22   1.346870 S    
C20   C92   1.406889 A    
C21   C93   1.407132 A    
O15   V4    1.984886 S    
C168  H70   1.108909 S    
C164  H60   1.109127 S    
C19   C91   1.407397 A    
C130  C138  1.389656 A    
C135  C143  1.392527 A    
C162  H52   1.112113 S    
C159  H45   1.109236 S    
C136  C144  1.391868 A    
C113  C146  1.412677 A    
C55   C63   1.408420 A    
C27   N28   1.438025 S    
C11   C75   1.420694 A    
N16   O67   1.301115 A    
O41   C157  1.413519 S    
C70   C78   1.412793 A    
C50   O46   1.382030 S    
C82   C146  1.397425 A    
N30   O96   1.301258 A    
N30   O95   1.301458 A    
N25   O86   1.301320 A    
N6    C62   1.451894 S    
C75   C83   1.414981 A    
C69   C93   1.409740 A    
N15   O65   1.301141 A    
C116  C147  1.413603 A    
C53   C61   1.405211 A    
C72   C80   1.412862 A    
N12   O59   1.301507 A    
C6    C99   1.491640 S    
C113  C121  1.418066 A    
O16   V3    1.984883 S    
C133  H13   1.078371 S    
C90   C137  1.397082 A    
C106  C122  1.421993 A    
O10   V2    1.988783 S    
O12   C4    1.331884 A    
C80   C88   1.416565 A    
O13   C5    1.339266 A    
N18   O71   1.301772 A    
C167  H67   1.113625 S    
O6    V2    1.983916 S    
C43   O39   1.379475 S    
C56   C64   1.408559 A    
C11   N3    1.369067 A    
C12   O24   1.348067 S    
C45   C101  1.406780 A    
O52   C168  1.406176 S    
C15   O27   1.348366 S    
C168  H72   1.111754 S    
C66   C90   1.410612 A    
O1    C4    1.332580 A    
C81   N9    1.438924 S    
C165  H63   1.112276 S    
O2    C3    1.324951 A    
C144  H8    1.083358 S    
C29   C61   1.417498 A    
O7    C6    1.339715 A    
C43   C51   1.410181 A    
C89   C138  1.396977 A    
C42   C98   1.407512 A    
N29   O93   1.300638 A    
C165  H62   1.110959 S    
C33   C97   1.414941 A    
O10   C2    1.327876 A    
C111  C127  1.419420 A    
C96   C143  1.399407 A    
C119  C127  1.415178 A    
C154  H30   1.108775 S    
C120  C128  1.415320 A    
N24   O83   1.300580 A    
C37   C101  1.419136 A    
C69   C126  1.424273 A    
N1    C57   1.450503 S    
N19   O73   1.301558 A    
C13   C77   1.417595 A    
C54   C62   1.408814 A    
C49   C57   1.403903 A    
N27   O89   1.301218 A    
C142  H6    1.083349 S    
C9    N1    1.370955 A    
O17   V3    1.769755 S    
C24   C96   1.406848 A    
O18   V4    1.769756 S    
C30   N29   1.438759 S    
O12   V1    1.996169 S    
O19   V1    1.764657 S    
C143  H7    1.083349 S    
C29   C37   1.420675 A    
C71   C95   1.409293 A    
C134  C142  1.392493 A    
C147  H19   1.075946 S    
C145  H17   1.075162 S    
C105  C121  1.424015 A    
C1    C104  1.488354 S    
O8    V1    1.979951 S    
C65   C73   1.413072 A    
C2    C103  1.487917 S    
C166  H65   1.112275 S    
C149  H21   1.078371 S    
C160  H46   1.106227 S    
C33   N18   1.428483 S    
N28   O91   1.301106 A    
C23   O36   1.349372 S    
C26   C34   1.419372 A    
O1    V3    1.977664 S    
N1    C17   1.368786 A    
C155  H31   1.113561 S    
O2    V4    1.977662 S    
C156  H34   1.110747 S    
C66   C121  1.430105 A    
N32   O99   1.301018 A    
C115  C148  1.414913 A    
N4    C20   1.368239 A    
N5    C21   1.369663 A    
C167  H69   1.109212 S    
C39   C103  1.418197 A    
C25   N26   1.435644 S    
N9    O54   1.301126 A    
N7    C23   1.369886 A    
N8    C24   1.369729 A    
C108  C115  1.430176 A    
C87   N15   1.434751 S    
C11   O23   1.346551 S    
C109  C118  1.424580 A    
C12   N4    1.370249 A    
C13   N5    1.372581 A    
C86   C150  1.399474 A    
C40   N23   1.436388 S    
C112  C119  1.423833 A    
C82   N10   1.435692 S    
N17   O70   1.301624 A    
C131  C139  1.389595 A    
O38   C154  1.411378 S    
C72   C96   1.409580 A    
C129  C137  1.390371 A    
N10   O56   1.301398 A    
O8    C5    1.328135 A    
C120  C151  1.410645 A    
N21   O78   1.300309 A    
N2    C58   1.447264 S    
C108  C124  1.424212 A    
C109  C125  1.419372 A    
O48   C164  1.409834 S    
C117  C125  1.415391 A    
C158  H42   1.107977 S    
C115  C123  1.418623 A    
C72   C127  1.423932 A    
N4    C60   1.449146 S    
N15   O66   1.301463 A    
N14   O64   1.301443 A    
C52   O48   1.384762 S    
C28   C60   1.406338 A    
C130  H10   1.077042 S    
C36   N19   1.425215 S    
C84   C148  1.400007 A    
N26   O88   1.301153 A    
C161  H50   1.109499 S    
C105  C114  1.430552 A    
C139  H3    1.083734 S    
N20   O76   1.300595 A    
N11   O58   1.301450 A    
C137  H1    1.083692 S    
C70   C94   1.409517 A    
C27   C35   1.418665 A    
C12   C76   1.420246 A    
C44   C100  1.413575 A    
C31   C63   1.418573 A    
C157  H37   1.105955 S    
C4    C101  1.491717 S    
C114  C122  1.418765 A    
C37   N22   1.436125 S    
C163  H56   1.110438 S    
O44   C160  1.413516 S    
C161  H51   1.107205 S    
C87   C151  1.399871 A    
C160  H48   1.108077 S    
C91   C140  1.396783 A    
C8    C97   1.499518 S    
C164  H59   1.115583 S    
C9    C73   1.419662 A    
C155  H33   1.108302 S    
C156  H36   1.109127 S    
C26   C58   1.411643 A    
C106  C130  1.415994 A    
C32   C40   1.418877 A    
C35   C99   1.421218 A    
C53   O49   1.384236 S    
C15   C79   1.418066 A    
C167  H68   1.111687 S    
O40   C156  1.407786 S    
C49   O45   1.385296 S    
C68   C92   1.410139 A    
C73   C81   1.414176 A    
N22   O79   1.301086 A    
C153  H25   1.111542 S    
C83   N11   1.436694 S    
C44   C52   1.421996 A    
C51   C59   1.405339 A    
C77   C85   1.416652 A    
C157  H39   1.108648 S    
C79   C87   1.416697 A    
C162  H54   1.108838 S    
C48   C56   1.408371 A    
C7    C98   1.487444 S    
O47   C163  1.410212 S    
C43   C99   1.405555 A    
N25   O85   1.300993 A    
C69   C77   1.412733 A    
C158  H40   1.117497 S    
C41   C97   1.414759 A    
C34   C98   1.421661 A    
O11   C3    1.337116 A    
C110  C117  1.424632 A    
C38   C102  1.418405 A    
C70   C125  1.424361 A    
N12   O60   1.301295 A    
N31   O97   1.300153 A    
O50   C166  1.407971 S    
N13   O62   1.301472 A    
C85   N13   1.434706 S    
C31   N32   1.439542 S    
C114  C145  1.414965 A    
C15   N7    1.372610 A    
O11   V2    1.996166 S    
N5    C61   1.451414 S    
C16   N8    1.372338 A    
O39   C155  1.412916 S    
C27   C59   1.412039 A    
C41   C49   1.422464 A    
C132  C140  1.389610 A    
C47   O43   1.379585 S    
C42   O38   1.379514 S    
C133  C141  1.392171 A    
O7    V2    1.979948 S    
C18   O29   1.349502 S    
C83   C147  1.398005 A    
C81   C145  1.400749 A    
C112  C128  1.419200 A    
C22   O33   1.349259 S    
C168  H71   1.113915 S    
C68   C123  1.429529 A    
C105  C129  1.416566 A    
C111  C135  1.413527 A    
N2    C18   1.366867 A    
N8    C64   1.451036 S    
N23   O81   1.300651 A    
C32   C64   1.418150 A    
O42   C158  1.417287 S    
C31   C39   1.419696 A    
C134  H14   1.078455 S    
C135  H15   1.078427 S    
C88   C152  1.398990 A    
O49   C165  1.409054 S    
C34   N17   1.441537 S    
C14   N6    1.372714 A    
C28   N27   1.436021 S    
C154  H29   1.112425 S    
N24   O84   1.301353 A    
C107  C116  1.428398 A    
C17   O30   1.349477 S    
O4    C1    1.327746 A    
C26   N25   1.438139 S    
C16   C80   1.417147 A    
C3    C102  1.487238 S    
C21   O34   1.349193 S    
C88   N16   1.434563 S    
C28   C36   1.413973 A    
O51   C167  1.408551 S    
C24   O35   1.349208 S    
C118  C126  1.415458 A    
N19   O74   1.300672 A    
C76   C84   1.414193 A    
O13   V3    1.992171 S    
O14   V4    1.992168 S    
C140  H4    1.083760 S    
C30   C62   1.417713 A    
N6    C22   1.369799 A    
C42   C50   1.408635 A    
C9    O21   1.348042 S    
C68   C76   1.414294 A    
C51   O47   1.382716 S    
N14   O63   1.301113 A    
C86   N14   1.434518 S    
C20   O31   1.349661 S    
O14   C6    1.325532 A    
C106  C113  1.426976 A    
N28   O92   1.300873 A    
C18   C90   1.408109 A    
C74   C82   1.414823 A    
C155  H32   1.112595 S    
O3    V4    1.981502 S    
N32   O100  1.301287 A    
O4    V3    1.981500 S    
C48   O44   1.383360 S    
C14   C78   1.417865 A    
N9    O53   1.301462 A    
C159  H44   1.117317 S    
O46   C162  1.408169 S    
C107  C123  1.422986 A    
C71   C128  1.423864 A    
C5    C100  1.497939 S    
C55   O51   1.382230 S    
C110  C126  1.419267 A    
C46   O42   1.378777 S    
N11   O57   1.301094 A    
C30   C38   1.419281 A    
N17   O69   1.297643 A    
C146  H18   1.076568 S    
N21   O77   1.301399 A    
C41   O37   1.381636 S    
C66   C74   1.415747 A    
C38   N21   1.436942 S    
C17   C89   1.407207 A    
C150  H22   1.078482 S    
N18   O72   1.300826 A    
C117  C150  1.410429 A    
N29   O94   1.301301 A    
C165  H61   1.109283 S    
C158  H41   1.110264 S    
N7    C63   1.451430 S    
C118  C149  1.410490 A    
C25   C33   1.414936 A    
O3    C2    1.334491 A    
C56   O52   1.382700 S    
C16   O28   1.348486 S    
C46   C54   1.402228 A    
N31   O98   1.301361 A    
C136  H16   1.078492 S    
C35   N20   1.436830 S    
O45   C161  1.409074 S    
O9    V1    1.988780 S    
O15   C7    1.338779 A    
C85   C149  1.399333 A    
O16   C8    1.329963 A    
C44   O40   1.381666 S    
C45   C53   1.411506 A    
C95   C144  1.399227 A    
C148  H20   1.075063 S    
C107  C131  1.416368 A    
C163  H57   1.109152 S    
O5    V1    1.983914 S    
C36   C100  1.411246 A    
N3    C59   1.447957 S    
C157  H38   1.114011 S    
C10   N2    1.369002 A    
C14   O26   1.348326 S    
C152  H24   1.078506 S    
C46   C102  1.405142 A    
C166  H66   1.108959 S    
C67   C91   1.410619 A    
C160  H47   1.114253 S    
C65   C89   1.409894 A    
C40   C104  1.417929 A    
C164  H58   1.107204 S    
C47   C55   1.402106 A    
C156  H35   1.113092 S    
C23   C95   1.405982 A    
C141  H5    1.083356 S    
N23   O82   1.301394 A    
C131  H11   1.076429 S    
C129  H9    1.075947 S    
C159  H43   1.109968 S    
O37   C153  1.407880 S    
C19   O32   1.348753 S    
N27   O90   1.301151 A    
C163  H55   1.110206 S    
C32   N31   1.440745 S    
C67   C75   1.415785 A    
C71   C79   1.412740 A    
O9    C1    1.334583 A    
C110  C134  1.413606 A    
N22   O80   1.300853 A    
C153  H26   1.112900 S    
C138  H2    1.083663 S    
C29   N30   1.440844 S    
N3    C19   1.366842 A    
C94   C141  1.399287 A    
O43   C159  1.417891 S    
N10   O55   1.301135 A    
C52   C60   1.404055 A    
C162  H53   1.110436 S    
C119  C152  1.410314 A    
C132  H12   1.075792 S    
N16   O68   1.301457 A    
C10   C74   1.420248 A    
C153  H27   1.109529 S    
C111  C120  1.424726 A    
C22   C94   1.406790 A    
O20   V2    1.764657 S    
C25   C57   1.406202 A    
O5    C8    1.338085 A    
O6    C7    1.323579 A    
C84   N12   1.438592 S    
N26   O87   1.301299 A    
C108  C132  1.416539 A    
C50   C58   1.404363 A    
C109  C133  1.413527 A    
N13   O61   1.301132 A    
C161  H49   1.115273 S    
C92   C139  1.396767 A    
C112  C136  1.413310 A    
C93   C142  1.399341 A    
C151  H23   1.078412 S    
C67   C124  1.430520 A    
C116  C124  1.418424 A    
C39   N24   1.436521 S    
N20   O75   1.301524 A    
C154  H28   1.113115 S    
C65   C122  1.428690 A    
C78   C86   1.416736 A    
C47   C103  1.404196 A    
C13   O25   1.348536 S    
C48   C104  1.404379 A    
