data_mof_unit_37484.cif
_audit_creation_date              2012-12-11T16:45:42-0500
_audit_creation_method            fapswitch 2.2
_symmetry_space_group_name_H-M    P1
_symmetry_Int_Tables_number       1
_space_group_crystal_system       triclinic
_cell_length_a                    20.12793
_cell_length_b                    17.526863
_cell_length_c                    15.525397
_cell_angle_alpha                 90.052413
_cell_angle_beta                  52.055615
_cell_angle_gamma                 90.047203
_cell_volume                      4319.2364886

loop_
_atom_site_label
_atom_site_type_symbol
_atom_type_description
_atom_site_fract_x
_atom_site_fract_y
_atom_site_fract_z
_atom_type_partial_charge
C1    C     C_R   0.848126 0.679525 0.030662 0.512347
C2    C     C_R   0.146284 0.309153 0.071719 -0.429861
C3    C     C_3   0.645659 0.089476 0.403031 -0.115998
C4    C     C_3   0.636392 0.240965 0.212617 -0.172453
C5    C     C_3   0.344571 0.253202 0.822234 -0.136393
C6    C     C_3   0.136385 0.740981 0.212637 -0.172425
C7    C     C_3   0.844832 0.753325 0.822302 -0.137599
C8    C     C_3   0.782942 0.416025 0.849513 -0.152560
C9    C     C_3   0.222529 0.419236 0.139732 -0.166594
C10   C     C_3   0.282953 0.916018 0.849490 -0.152473
C11   C     C_3   0.722492 0.919200 0.139809 -0.166470
C12   C     C_3   0.941036 0.175903 0.921142 -0.190988
C13   C     C_R   0.353735 0.809541 0.928224 -0.420560
C14   C     C_3   0.033277 0.190354 0.090512 -0.097108
C15   C     C_3   0.440992 0.675882 0.921182 -0.190908
C16   C     C_3   0.533282 0.690352 0.090507 -0.097301
C17   C     C_3   0.781490 0.763187 0.281323 -0.016811
C18   C     C_3   0.219590 0.760549 0.716195 -0.017468
C19   C     C_3   0.281484 0.263183 0.281323 -0.016802
C20   C     C_3   0.719492 0.260723 0.716262 -0.017398
C21   C     C_3   0.500095 0.394713 0.301993 -0.249659
C22   C     C_3   0.498117 0.390542 0.699858 -0.289209
C23   C     C_3   0.000101 0.894714 0.302019 -0.249696
C24   C     C_R   0.646279 0.809155 0.071728 -0.429639
C25   C     C_3   0.998259 0.890710 0.699858 -0.289036
C26   C     C_R   0.902485 0.682331 0.300392 -0.048731
C27   C     C_R   0.096100 0.682093 0.700283 -0.061576
C28   C     C_R   0.402473 0.182330 0.300400 -0.048585
C29   C     C_R   0.596141 0.182077 0.700247 -0.061376
C30   C     C_R   0.828721 0.701632 0.496068 -0.199628
C31   C     C_R   0.172394 0.701032 0.504409 -0.179417
C32   C     C_R   0.328751 0.201640 0.496072 -0.199741
C33   C     C_R   0.142878 0.685086 0.982840 0.546584
C34   C     C_R   0.672425 0.201023 0.504381 -0.179488
C35   C     C_R   0.878888 0.731626 0.391231 -0.059891
C36   C     C_R   0.120890 0.731296 0.609040 -0.064078
C37   C     C_R   0.378889 0.231630 0.391231 -0.059868
C38   C     C_R   0.620906 0.231277 0.609013 -0.064068
C39   C     C_R   0.389093 0.310854 0.380903 0.418643
C40   C     C_R   0.611640 0.310765 0.619195 0.431247
C41   C     C_R   0.889102 0.810850 0.380911 0.418656
C42   C     C_R   0.111677 0.810792 0.619210 0.431175
C43   C     C_R   0.322322 0.357242 0.467411 0.430306
C44   C     C_R   0.348115 0.179516 0.030673 0.512331
C45   C     C_R   0.678893 0.356845 0.532959 0.446121
C46   C     C_R   0.822329 0.857240 0.467414 0.430316
C47   C     C_R   0.178964 0.856839 0.532965 0.446189
C48   C     C_R   0.261296 0.323293 0.571703 -0.053579
C49   C     C_R   0.739466 0.322896 0.428624 -0.099954
C50   C     C_R   0.761285 0.823289 0.571698 -0.053548
C51   C     C_R   0.239494 0.822879 0.428631 -0.099976
C52   C     C_R   0.770624 0.746141 0.584088 -0.172470
C53   C     C_R   0.230624 0.745633 0.416710 -0.230642
C54   C     C_R   0.270662 0.246151 0.584100 -0.172360
C55   C     C_R   0.642891 0.185078 0.982820 0.546570
C56   C     C_R   0.730637 0.245640 0.416693 -0.230571
C57   C     C_3   0.706123 0.683157 0.639531 0.703916
C58   C     C_3   0.295694 0.682928 0.361987 0.746625
C59   C     C_3   0.206176 0.183156 0.639572 0.703960
C60   C     C_3   0.795728 0.182950 0.361965 0.746596
C61   C     C_R   0.846609 0.335994 0.223812 0.486358
C62   C     C_R   0.153964 0.336800 0.776158 0.449478
C63   C     C_R   0.346623 0.835976 0.223816 0.486283
C64   C     C_R   0.653959 0.836792 0.776160 0.449318
C65   C     C_3   0.772618 0.632815 0.544130 0.908791
C66   C     C_R   0.809820 0.362094 0.329320 -0.113735
C67   C     C_3   0.228920 0.632219 0.457147 0.843850
C68   C     C_3   0.272660 0.132816 0.544159 0.908833
C69   C     C_3   0.728966 0.132225 0.457111 0.843850
C70   C     C_2   0.738736 0.220040 0.023505 0.586801
C71   C     C_2   0.247907 0.207145 0.995054 0.605975
C72   C     C_2   0.238722 0.720052 0.023526 0.586745
C73   C     C_2   0.747949 0.707193 0.995014 0.606532
C74   C     C_2   0.302289 0.752047 0.927104 0.332096
C75   C     C_2   0.689463 0.748836 0.084208 0.341943
C76   C     C_2   0.802300 0.252044 0.927090 0.332107
C77   C     C_R   0.190498 0.362546 0.670678 -0.103087
C78   C     C_2   0.189465 0.248840 0.084213 0.342160
C79   C     C_R   0.865254 0.386707 0.899057 0.529679
C80   C     C_R   0.134478 0.386204 0.101122 0.529653
C81   C     C_R   0.365253 0.886707 0.899058 0.529658
C82   C     C_R   0.634473 0.886205 0.101131 0.529676
C83   C     C_R   0.920710 0.607590 0.294318 0.464262
C84   C     C_R   0.078567 0.607263 0.706059 0.476070
C85   C     C_R   0.420709 0.107592 0.294318 0.464019
C86   C     C_R   0.578593 0.107252 0.706036 0.476089
C87   C     C_R   0.887596 0.298504 0.980740 0.749697
C88   C     C_R   0.309850 0.862065 0.329324 -0.113592
C89   C     C_R   0.113437 0.298697 0.018183 0.719052
C90   C     C_R   0.387596 0.798503 0.980743 0.749698
C91   C     C_R   0.613440 0.798697 0.018184 0.719108
C92   C     C_R   0.899360 0.695368 0.214643 0.458482
C93   C     C_R   0.099764 0.695348 0.785380 0.471559
C94   C     C_R   0.399353 0.195367 0.214648 0.458445
C95   C     C_R   0.599786 0.195342 0.785360 0.471537
C96   C     C_R   0.862819 0.418144 0.317960 0.450825
C97   C     C_R   0.137177 0.418188 0.682095 0.466940
C98   C     C_R   0.362838 0.918127 0.317963 0.450832
C99   C     C_R   0.690499 0.862546 0.670679 -0.103163
C100  C     C_R   0.637182 0.918192 0.682096 0.467015
C101  C     C_R   0.838223 0.589771 0.937397 0.417661
C102  C     C_R   0.154034 0.596528 0.075180 0.413012
C103  C     C_R   0.338216 0.089756 0.937410 0.417863
C104  C     C_R   0.654048 0.096519 0.075159 0.413066
C105  C     C_R   0.799967 0.654507 0.001360 -0.241594
C106  C     C_R   0.185858 0.665627 0.021110 -0.260168
C107  C     C_R   0.299949 0.154485 0.001385 -0.241582
C108  C     C_R   0.685877 0.165613 0.021081 -0.260161
C109  C     C_3   0.930330 0.786266 0.978512 -0.112437
C110  C     C_R   0.853736 0.309542 0.928221 -0.420587
C111  C     C_3   0.093643 0.807781 0.028004 -0.236835
C112  C     C_3   0.430308 0.286265 0.978536 -0.112303
C113  C     C_3   0.593645 0.307768 0.027994 -0.236788
C114  C     C_3   0.310757 0.440859 0.363326 -0.159054
C115  C     C_3   0.691320 0.440514 0.636869 -0.159988
C116  C     C_3   0.810788 0.940862 0.363316 -0.159042
C117  C     C_3   0.191488 0.940439 0.636859 -0.159719
C118  C     C_3   0.857772 0.591161 0.595966 -0.076173
C119  C     C_3   0.145599 0.589485 0.403083 -0.115916
C120  C     C_3   0.357868 0.091174 0.595917 -0.076433
H1    H     H_    0.951395 0.777729 0.894477 0.148381
H2    H     H_    0.629864 0.332705 0.053290 0.123719
H3    H     H_    0.239947 0.759754 0.631590 0.072260
H4    H     H_    0.247886 0.711259 0.728325 0.176639
H5    H     H_    0.245523 0.813502 0.723783 0.133377
H6    H     H_    0.261707 0.266696 0.365546 0.105209
H7    H     H_    0.251538 0.212654 0.274268 0.176988
H8    H     H_    0.256867 0.314918 0.268764 0.144530
H9    H     H_    0.739851 0.259934 0.631657 0.072129
H10   H     H_    0.747884 0.211490 0.728335 0.176735
H11   H     H_    0.745324 0.313727 0.723905 0.133249
H12   H     H_    0.827515 0.486328 0.429758 0.396590
H13   H     H_    0.533907 0.282359 0.098237 0.189921
H14   H     H_    0.174399 0.486170 0.569789 0.398089
H15   H     H_    0.327645 0.986355 0.429679 0.396594
H16   H     H_    0.674433 0.986168 0.569771 0.398082
H17   H     H_    0.884082 0.549513 0.797179 0.352339
H18   H     H_    0.112329 0.545703 0.207143 0.355099
H19   H     H_    0.384085 0.049513 0.797182 0.352300
H20   H     H_    0.612350 0.045708 0.207128 0.355095
H21   H     H_    0.471315 0.452055 0.318470 0.200485
H22   H     H_    0.566098 0.399977 0.226822 0.149613
H23   H     H_    0.502365 0.377373 0.369233 0.114452
H24   H     H_    0.577134 0.355317 0.997200 0.183402
H25   H     H_    0.533512 0.443173 0.655571 0.197924
H26   H     H_    0.440779 0.409453 0.780273 0.155804
H27   H     H_    0.478067 0.360824 0.655830 0.119113
H28   H     H_    0.971330 0.952055 0.318467 0.200486
H29   H     H_    0.066111 0.899972 0.226864 0.149609
H30   H     H_    0.002348 0.877387 0.369279 0.114478
H31   H     H_    0.033712 0.943336 0.655635 0.197907
H32   H     H_    0.940918 0.909627 0.780268 0.155771
H33   H     H_    0.978216 0.861087 0.655763 0.119129
H34   H     H_    0.352229 0.403411 0.291833 0.174485
H35   H     H_    0.330840 0.499032 0.329477 0.159945
H36   H     H_    0.245298 0.430406 0.393523 0.203531
H37   H     H_    0.650682 0.402517 0.707820 0.180457
H38   H     H_    0.670875 0.498647 0.671476 0.177482
H39   H     H_    0.757006 0.430725 0.606083 0.200242
H40   H     H_    0.852254 0.903406 0.291829 0.174478
H41   H     H_    0.976313 0.761876 0.987936 0.193203
H42   H     H_    0.830889 0.999032 0.329456 0.159943
H43   H     H_    0.745329 0.930420 0.393505 0.203531
H44   H     H_    0.150901 0.902384 0.707755 0.180388
H45   H     H_    0.171001 0.998548 0.671548 0.177463
H46   H     H_    0.257189 0.930685 0.606031 0.200321
H47   H     H_    0.627138 0.677459 0.798740 0.364166
H48   H     H_    0.355706 0.615831 0.236785 0.305221
H49   H     H_    0.127224 0.177440 0.798785 0.364216
H50   H     H_    0.855747 0.115846 0.236773 0.305188
H51   H     H_    0.600902 0.651461 0.670955 0.289670
H52   H     H_    0.927083 0.848600 0.992994 0.155523
H53   H     H_    0.349345 0.722080 0.425084 0.321324
H54   H     H_    0.100948 0.151427 0.671044 0.289633
H55   H     H_    0.849351 0.222124 0.425089 0.321346
H56   H     H_    0.831093 0.635397 0.660426 0.181757
H57   H     H_    0.919586 0.610530 0.521570 0.157975
H58   H     H_    0.869706 0.539755 0.626180 0.172177
H59   H     H_    0.173093 0.633635 0.338801 0.170765
H60   H     H_    0.083272 0.608660 0.476719 0.172441
H61   H     H_    0.134815 0.537911 0.371754 0.177741
H62   H     H_    0.331190 0.135393 0.660397 0.181635
H63   H     H_    0.129868 0.832712 0.053293 0.123735
H64   H     H_    0.419661 0.110568 0.521509 0.157973
H65   H     H_    0.369842 0.039765 0.626083 0.172238
H66   H     H_    0.673152 0.133623 0.338744 0.170809
H67   H     H_    0.583331 0.108649 0.476665 0.172435
H68   H     H_    0.634878 0.037897 0.371707 0.177723
H69   H     H_    0.700191 0.574080 0.525783 0.334341
H70   H     H_    0.303825 0.577218 0.474203 0.347989
H71   H     H_    0.200221 0.074047 0.525869 0.334348
H72   H     H_    0.803877 0.077233 0.474165 0.347979
H73   H     H_    0.620629 0.186393 0.256720 0.188937
H74   H     H_    0.033902 0.782379 0.098251 0.189943
H75   H     H_    0.592707 0.250695 0.193035 0.130088
H76   H     H_    0.623966 0.286551 0.270248 0.124635
H77   H     H_    0.396175 0.219095 0.810218 0.132381
H78   H     H_    0.343039 0.311523 0.851305 0.100628
H79   H     H_    0.360778 0.257437 0.740185 0.139066
H80   H     H_    0.120623 0.686407 0.256734 0.188951
H81   H     H_    0.092698 0.750716 0.193061 0.130124
H82   H     H_    0.123964 0.786562 0.270270 0.124636
H83   H     H_    0.896367 0.718762 0.809775 0.133233
H84   H     H_    0.843586 0.811368 0.851904 0.100946
H85   H     H_    0.077137 0.855333 0.997207 0.183388
H86   H     H_    0.860893 0.758242 0.740401 0.138908
H87   H     H_    0.372473 0.754564 0.768997 0.348644
H88   H     H_    0.623453 0.767110 0.239773 0.355725
H89   H     H_    0.872482 0.254577 0.768983 0.348657
H90   H     H_    0.123520 0.267191 0.239754 0.355746
H91   H     H_    0.745029 0.298281 0.254105 0.328901
H92   H     H_    0.257106 0.304730 0.745875 0.310729
H93   H     H_    0.245035 0.798280 0.254119 0.328904
H94   H     H_    0.757072 0.804581 0.745853 0.311006
H95   H     H_    0.737072 0.441120 0.932512 0.141893
H96   H     H_    0.451367 0.277750 0.894500 0.148505
H97   H     H_    0.762665 0.358345 0.846745 0.183333
H98   H     H_    0.781481 0.451419 0.791517 0.179760
H99   H     H_    0.263319 0.448212 0.058790 0.143392
H100  H     H_    0.247822 0.362141 0.133823 0.192526
H101  H     H_    0.226068 0.452583 0.197569 0.177357
H102  H     H_    0.237075 0.941108 0.932491 0.141891
H103  H     H_    0.262680 0.858340 0.846708 0.183330
H104  H     H_    0.281499 0.951418 0.791492 0.179777
H105  H     H_    0.763318 0.948157 0.058854 0.143399
H106  H     H_    0.747749 0.862095 0.133946 0.192480
H107  H     H_    0.476293 0.261866 0.987948 0.193208
H108  H     H_    0.726021 0.952550 0.197652 0.177297
H109  H     H_    0.978816 0.527293 0.306326 0.350299
H110  H     H_    0.019179 0.526923 0.695929 0.351113
H111  H     H_    0.478834 0.027304 0.306308 0.350275
H112  H     H_    0.519183 0.026926 0.695924 0.351103
H113  H     H_    0.980085 0.201995 0.838340 0.129217
H114  H     H_    0.889397 0.141172 0.934371 0.156186
H115  H     H_    0.981922 0.136099 0.924973 0.155472
H116  H     H_    0.978815 0.227276 0.150416 0.178370
H117  H     H_    0.061145 0.165343 0.127424 0.125908
H118  H     H_    0.427057 0.348597 0.993043 0.155481
H119  H     H_    0.009138 0.142418 0.070167 0.164493
H120  H     H_    0.480029 0.701950 0.838365 0.129130
H121  H     H_    0.389328 0.641159 0.934466 0.156198
H122  H     H_    0.481880 0.636074 0.925004 0.155469
H123  H     H_    0.478821 0.727276 0.150408 0.178353
H124  H     H_    0.561142 0.665336 0.127426 0.125967
H125  H     H_    0.509142 0.642420 0.070158 0.164546
H126  H     H_    0.761711 0.766677 0.365549 0.105273
H127  H     H_    0.751542 0.712669 0.274246 0.177017
H128  H     H_    0.756876 0.814936 0.268788 0.144412
N1    N     N_R   0.908660 0.628630 0.995840 -0.145150
N2    N     N_R   0.096530 0.421430 0.063580 -0.137416
N3    N     N_R   0.403470 0.921430 0.936420 -0.140045
N4    N     N_R   0.596530 0.921430 0.063580 -0.137408
N5    N     N_R   0.927500 0.575670 0.211370 -0.150089
N6    N     N_R   0.072500 0.575670 0.788630 -0.151774
N7    N     N_R   0.427500 0.075670 0.211370 -0.150096
N8    N     N_R   0.572500 0.075670 0.788630 -0.151799
N9    N     N_R   0.908660 0.365680 0.995820 -0.133819
N10   N     N_R   0.091340 0.365680 0.004180 -0.130264
N11   N     N_R   0.408660 0.865680 0.995820 -0.133815
N12   N     N_R   0.091340 0.628630 0.004160 -0.135194
N13   N     N_R   0.591340 0.865680 0.004180 -0.130263
N14   N     N_R   0.922310 0.631420 0.151980 -0.129963
N15   N     N_R   0.077690 0.631420 0.848020 -0.127659
N16   N     N_R   0.422310 0.131420 0.151980 -0.129962
N17   N     N_R   0.577690 0.131420 0.848020 -0.127640
N18   N     N_R   0.927500 0.426330 0.211360 -0.135380
N19   N     N_R   0.072500 0.426330 0.788640 -0.133483
N20   N     N_R   0.427500 0.926330 0.211360 -0.135422
N21   N     N_R   0.572500 0.926330 0.788640 -0.133471
N22   N     N_R   0.903470 0.570760 0.936440 -0.147316
N23   N     N_R   0.408660 0.128630 0.995840 -0.145160
N24   N     N_R   0.096530 0.570760 0.063560 -0.141351
N25   N     N_R   0.403470 0.070760 0.936440 -0.147345
N26   N     N_R   0.596530 0.070760 0.063560 -0.141336
N27   N     N_R   0.591340 0.128630 0.004160 -0.135184
N28   N     N_R   0.922310 0.368460 0.151950 -0.125345
N29   N     N_R   0.077690 0.368460 0.848050 -0.112274
N30   N     N_R   0.422310 0.868460 0.151950 -0.125360
N31   N     N_R   0.577690 0.868460 0.848050 -0.112252
N32   N     N_R   0.903470 0.421430 0.936420 -0.140036
Ni1   Ni    Ni4+2 0.000000 0.630300 0.000000 0.199772
Ni2   Ni    Ni4+2 0.500000 0.130300 0.000000 0.199795
Ni3   Ni    Ni4+2 0.000000 0.369700 0.000000 0.264487
Ni4   Ni    Ni4+2 0.500000 0.869700 0.000000 0.264504
Ni5   Ni    Ni4+2 0.988090 0.497570 0.863760 0.200398
Ni6   Ni    Ni4+2 0.011910 0.497570 0.136240 0.196122
Ni7   Ni    Ni4+2 0.488090 0.997570 0.863760 0.200413
Ni8   Ni    Ni4+2 0.511910 0.997570 0.136240 0.196114
O1    O     O_3   0.849868 0.754826 0.055543 -0.623964
O2    O     O_3   0.317631 0.660293 0.260862 -0.685534
O3    O     O_3   0.185113 0.159441 0.740226 -0.733014
O4    O     O_3   0.817682 0.160315 0.260832 -0.685536
O5    O     O_3   0.635714 0.698483 0.643195 -0.781405
O6    O     O_3   0.367510 0.697647 0.355935 -0.807393
O7    O     O_3   0.135740 0.198461 0.643288 -0.781452
O8    O     O_3   0.867532 0.197691 0.355932 -0.807387
O9    O     O_3   0.802148 0.570831 0.572451 -0.646917
O10   O     O_3   0.200147 0.569833 0.428359 -0.644559
O11   O     O_3   0.302216 0.070837 0.572452 -0.646884
O12   O     O_3   0.143434 0.755221 0.942721 -0.589607
O13   O     O_3   0.700208 0.069834 0.428309 -0.644579
O14   O     O_3   0.748758 0.608858 0.480234 -0.804141
O15   O     O_3   0.252232 0.608449 0.521634 -0.822047
O16   O     O_3   0.248766 0.108847 0.480305 -0.804110
O17   O     O_3   0.752278 0.108458 0.521600 -0.821990
O18   O     O_3   0.722770 0.243239 0.120851 -0.595890
O19   O     O_3   0.264770 0.218395 0.894654 -0.548242
O20   O     O_3   0.222761 0.743256 0.120867 -0.595900
O21   O     O_3   0.764950 0.718620 0.894556 -0.548582
O22   O     O_3   0.321428 0.727046 0.829523 -0.779983
O23   O     O_3   0.349847 0.254819 0.055556 -0.623909
O24   O     O_3   0.670952 0.733819 0.184367 -0.773294
O25   O     O_3   0.821442 0.227051 0.829504 -0.779955
O26   O     O_3   0.171009 0.233889 0.184356 -0.773240
O27   O     O_3   0.806251 0.293390 0.195100 -0.647846
O28   O     O_3   0.196236 0.297415 0.804757 -0.685694
O29   O     O_3   0.306255 0.793382 0.195110 -0.647831
O30   O     O_3   0.696197 0.797352 0.804764 -0.685495
O31   O     O_3   0.865949 0.415566 0.815942 -0.614529
O32   O     O_3   0.137535 0.415639 0.180855 -0.617238
O33   O     O_3   0.365957 0.915561 0.815934 -0.614541
O34   O     O_3   0.643450 0.255214 0.942706 -0.589673
O35   O     O_3   0.637507 0.915636 0.180885 -0.617241
O36   O     O_3   0.954844 0.577477 0.340767 -0.763105
O37   O     O_3   0.043973 0.576690 0.660315 -0.754341
O38   O     O_3   0.454864 0.077489 0.340746 -0.763175
O39   O     O_3   0.543998 0.076683 0.660291 -0.754302
O40   O     O_3   0.908561 0.230473 0.005018 -0.542395
O41   O     O_3   0.094031 0.230146 0.993612 -0.561310
O42   O     O_3   0.408563 0.730474 0.005022 -0.542430
O43   O     O_3   0.594045 0.730141 0.993608 -0.561334
O44   O     O_3   0.870160 0.761634 0.201325 -0.614872
O45   O     O_3   0.316678 0.433332 0.449592 -0.640652
O46   O     O_3   0.130817 0.761477 0.795933 -0.595816
O47   O     O_3   0.370152 0.261631 0.201328 -0.614882
O48   O     O_3   0.630719 0.261516 0.796010 -0.595863
O49   O     O_3   0.865154 0.441803 0.399378 -0.718012
O50   O     O_3   0.135328 0.442680 0.600664 -0.707587
O51   O     O_3   0.365196 0.941768 0.399368 -0.717997
O52   O     O_3   0.635340 0.942693 0.600662 -0.707576
O53   O     O_3   0.828799 0.568222 0.860731 -0.709493
O54   O     O_3   0.165358 0.570512 0.148200 -0.742871
O55   O     O_3   0.328795 0.068203 0.860744 -0.709371
O56   O     O_3   0.685126 0.432886 0.550801 -0.646595
O57   O     O_3   0.665386 0.070497 0.148163 -0.742857
O58   O     O_3   0.458093 0.340881 0.282877 -0.635574
O59   O     O_3   0.544280 0.341579 0.717654 -0.623863
O60   O     O_3   0.958112 0.840875 0.282892 -0.635599
O61   O     O_3   0.044345 0.841640 0.717668 -0.623892
O62   O     O_3   0.816698 0.933332 0.449591 -0.640651
O63   O     O_3   0.185276 0.932862 0.550801 -0.646582
O64   O     O_3   0.685018 0.659429 0.740201 -0.733139

loop_
_geom_bond_atom_site_label_1
_geom_bond_atom_site_label_2
_ccdc_geom_bond_type
C94   N16   A    
C34   C56   A    
C26   C83   A    
H20   O57   S    
C62   C77   A    
C36   C42   A    
C46   O62   S    
C87   O40   S    
H48   O2    S    
C25   H32   S    
C18   H5    S    
C14   H119  S    
C58   O6    S    
C104  O57   S    
C59   O3    S    
C64   N31   A    
C26   C92   A    
C28   C94   A    
N26   N27   A    
N27   Ni2   S    
N32   Ni5   S    
C70   O18   S    
C7    H83   S    
H69   O14   S    
C65   O9    S    
C11   H108  S    
C50   C52   A    
N10   Ni3   S    
C113  O34   S    
C109  H52   S    
C10   H104  S    
C23   H29   S    
C15   H122  S    
C113  H13   S    
N20   Ni8   S    
H72   O17   S    
C73   C75   D    
C119  H59   S    
C81   N3    A    
C7    H86   S    
N4    Ni8   S    
C114  H36   S    
C100  N21   A    
C40   O59   S    
C96   N18   A    
C85   N7    A    
H54   O7    S    
C23   O60   S    
N23   Ni2   S    
C115  H38   S    
C17   H128  S    
N7    Ni8   S    
N8    Ni7   S    
C67   O15   S    
C19   O47   S    
C2    C78   S    
N13   Ni4   S    
C92   O44   S    
C117  H46   S    
N2    Ni6   S    
C1    O1    S    
C34   C69   S    
N1    Ni1   S    
C9    H100  S    
C72   C106  S    
C115  O56   S    
C112  H118  S    
C67   O10   S    
N25   Ni7   S    
C27   C93   A    
N26   Ni8   S    
C119  O10   S    
C104  N26   A    
C4    H76   S    
N1    N22   A    
C91   O43   S    
C33   C106  A    
C22   H27   S    
C57   O64   S    
C3    H67   S    
C14   H117  S    
C53   C58   S    
C113  H24   S    
C63   N30   A    
C23   H28   S    
H87   O22   S    
C12   O40   S    
C109  H1    S    
C11   H106  S    
H70   O15   S    
C11   O35   S    
H47   O64   S    
C10   H102  S    
C111  H74   S    
C26   C35   S    
C111  O12   S    
C28   C85   A    
C31   C36   A    
H18   O54   S    
C103  C107  A    
C120  H62   S    
C114  H34   S    
C4    O18   S    
H111  O38   S    
C81   O33   S    
C38   C40   A    
C78   O26   S    
C13   C81   A    
C114  O45   S    
C87   N9    A    
C87   C110  A    
C69   O13   S    
C82   N4    A    
C27   C84   A    
C21   H22   S    
C1    N1    A    
N14   Ni1   S    
C86   N8    A    
C9    O32   S    
C55   O34   S    
C10   O33   S    
C8    H97   S    
C97   N19   A    
C64   C99   A    
C22   H26   S    
C98   N20   A    
C79   N32   A    
C29   C38   S    
H15   O51   S    
C77   C97   A    
C43   O45   S    
C91   N13   A    
C118  H56   S    
C80   N2    A    
H55   O8    S    
C54   C59   S    
C12   H113  S    
C49   C66   S    
C113  H2    S    
C8    O31   S    
C15   O42   S    
C6    H81   S    
C117  H45   S    
C95   O48   S    
C20   O48   S    
N5    Ni6   S    
C5    H77   S    
H17   O53   S    
H12   O49   S    
C51   C53   A    
C48   C77   S    
C64   O30   S    
C25   O61   S    
C16   O43   S    
C58   C67   S    
C73   C105  S    
C111  H63   S    
C32   C37   A    
N7    N16   A    
C120  H64   S    
H90   O26   S    
C16   H124  S    
C112  O23   S    
C75   O24   S    
C118  H58   S    
C85   O38   S    
C83   O36   S    
C44   C107  A    
C30   C52   A    
C100  O52   S    
C89   N10   A    
C51   C88   S    
C17   O44   S    
C39   O58   S    
C55   C108  A    
C25   H31   S    
C70   C108  S    
C70   C76   D    
C60   C69   S    
C61   N28   A    
H88   O24   S    
C35   C41   A    
C117  O63   S    
C30   C65   S    
C14   O41   S    
N19   Ni5   S    
C1    C105  A    
N9    Ni3   S    
C88   C98   A    
C12   H115  S    
N8    N17   A    
C15   H121  S    
C71   C107  S    
C13   C90   A    
N16   Ni2   S    
C116  H43   S    
C20   H9    S    
C18   O46   S    
C120  H65   S    
N12   Ni1   S    
H71   O16   S    
C5    H79   S    
C109  O1    S    
C16   H125  S    
C102  N24   A    
N11   Ni4   S    
C116  H40   S    
H49   O3    S    
H50   O4    S    
C95   N17   A    
C17   H127  S    
N20   N30   A    
C19   H8    S    
N21   N31   A    
C119  H61   S    
N3    N11   A    
N18   N28   A    
C89   O41   S    
C62   N29   A    
C73   O21   S    
C111  H85   S    
H109  O36   S    
C18   H3    S    
C9    H99   S    
C68   O16   S    
C112  H107  S    
C44   O23   S    
C82   O35   S    
C40   C45   A    
C90   N11   A    
C32   C54   A    
N17   Ni2   S    
C117  H44   S    
C4    H73   S    
C25   H33   S    
C41   O60   S    
C103  N25   A    
C72   C74   D    
C71   O19   S    
C47   O63   S    
C47   C51   A    
C15   H120  S    
C56   C60   S    
C115  H39   S    
N12   N24   A    
C2    C89   A    
C48   C54   A    
C120  O11   S    
C7    H84   S    
C42   O61   S    
C98   O51   S    
N18   Ni6   S    
C45   C49   A    
C11   H105  S    
N31   Ni4   S    
C10   H103  S    
C44   N23   A    
C60   O4    S    
C23   H30   S    
C115  H37   S    
C97   O50   S    
N22   Ni5   S    
H93   O29   S    
C63   C88   A    
C114  H35   S    
C104  C108  A    
C66   C96   A    
C101  N22   A    
N6    Ni5   S    
C79   C110  A    
C63   O29   S    
C57   C65   S    
C90   O42   S    
C22   O59   S    
N3    Ni7   S    
C24   C75   S    
C27   C36   S    
C19   H6    S    
C55   N27   A    
C21   H21   S    
C37   C39   A    
C6    H80   S    
H91   O27   S    
C21   O58   S    
C8    H98   S    
C52   C57   S    
C31   C67   S    
C58   O2    S    
C9    H101  S    
C61   O27   S    
C59   O7    S    
C13   C74   S    
C76   C110  S    
H19   O55   S    
C96   O49   S    
C69   O17   S    
H16   O52   S    
C102  O54   S    
N5    N14   A    
C4    H75   S    
C84   O37   S    
C86   O39   S    
C8    H95   S    
C3    H68   S    
C14   H116  S    
C12   H114  S    
C50   C99   S    
C30   C35   A    
C83   N5    A    
C28   C37   S    
C116  H42   S    
C6    H82   S    
C7    O21   S    
N24   Ni6   S    
C24   C82   A    
C33   O12   S    
C61   C66   A    
C41   C46   A    
H14   O50   S    
C43   C48   A    
C32   C68   S    
C112  H96   S    
N29   Ni3   S    
N30   Ni4   S    
H89   O25   S    
H51   O5    S    
C101  C105  A    
C68   O11   S    
C103  O55   S    
C2    C80   A    
C21   H23   S    
C29   C95   A    
C5    O19   S    
C39   C43   A    
C6    O20   S    
N19   N29   A    
C94   O47   S    
C16   H123  S    
C74   O22   S    
C59   C68   S    
C72   O20   S    
C99   C100  A    
C22   H25   S    
C76   O25   S    
C79   O31   S    
C31   C53   A    
C80   O32   S    
C29   C86   A    
N4    N13   A    
C93   O46   S    
N6    N15   A    
C84   N6    A    
H112  O39   S    
H92   O28   S    
C24   C91   A    
C101  O53   S    
N23   N25   A    
C118  O9    S    
C34   C38   A    
N21   Ni7   S    
C20   H10   S    
C5    H78   S    
N28   Ni3   S    
C65   O14   S    
C49   C56   A    
H53   O6    S    
C46   C50   A    
C3    H66   S    
N15   Ni1   S    
C109  H41   S    
C60   O8    S    
C17   H126  S    
C33   N12   A    
C19   H7    S    
N2    N10   A    
C102  C106  A    
C42   C47   A    
H94   O30   S    
C57   O5    S    
C116  O62   S    
C118  H57   S    
C45   O56   S    
N9    N32   A    
C62   O28   S    
C119  H60   S    
H110  O37   S    
C20   H11   S    
C3    O13   S    
C71   C78   D    
C92   N14   A    
C18   H4    S    
C93   N15   A    
