data_mof_unit_9670.cif
_audit_creation_date              2012-12-11T14:33:13-0500
_audit_creation_method            fapswitch 2.2
_symmetry_space_group_name_H-M    P1
_symmetry_Int_Tables_number       1
_space_group_crystal_system       triclinic
_cell_length_a                    6.959223
_cell_length_b                    13.791733
_cell_length_c                    17.839052
_cell_angle_alpha                 111.947174
_cell_angle_beta                  95.935558
_cell_angle_gamma                 89.979141
_cell_volume                      1578.22858954

loop_
_atom_site_label
_atom_site_type_symbol
_atom_type_description
_atom_site_fract_x
_atom_site_fract_y
_atom_site_fract_z
_atom_type_partial_charge
O1    O     O_R   0.484560 0.544530 0.414330 -0.536182
O2    O     O_R   0.197040 0.638810 0.585080 -0.538896
O3    O     O_R   0.026800 0.455470 0.585670 -0.539591
C1    C     C_R   0.373645 0.680192 0.608324 0.675971
O4    O     O_R   0.155000 0.556150 0.414940 -0.543660
O5    O     O_R   0.984450 0.372220 0.414320 -0.535878
C2    C     C_R   0.317198 0.565412 0.386639 0.757941
O6    O     O_R   0.526900 0.627780 0.585680 -0.542433
O7    O     O_3   0.339170 0.439750 0.499990 -0.374274
V1    V     V_3+5 0.064350 0.511180 0.500000 1.359006
O8    O     O_R   0.654880 0.361190 0.414920 -0.542438
C3    C     C_R   0.817094 0.324572 0.386519 0.758317
O9    O     O_R   0.696930 0.443850 0.585060 -0.537871
C4    C     C_R   0.873678 0.425066 0.608142 0.694820
V2    V     V_3+5 0.564340 0.488820 0.500000 1.362379
O10   O     O_3   0.839390 0.560250 0.500010 -0.381776
C5    C     C_R   0.036607 0.841644 0.812586 -0.055516
C6    C     C_R   0.907429 0.377234 0.671143 -0.069087
C7    C     C_R   0.911179 0.793108 0.670861 -0.125166
C8    C     C_R   0.965322 0.765407 0.737720 -0.144758
C9    C     C_R   0.042647 0.945656 0.820752 -0.189004
C10   C     C_R   0.973476 0.976133 0.755367 0.077927
C11   C     C_R   0.918182 0.898494 0.677749 0.044730
C12   C     C_R   0.957116 0.082398 0.766625 0.065572
C13   C     C_R   0.920951 0.114252 0.699063 0.024554
C14   C     C_R   0.879904 0.035232 0.621282 -0.178286
C15   C     C_R   0.870054 0.927856 0.609738 0.093769
C16   C     C_R   0.959973 0.157143 0.845256 -0.171435
C17   C     C_R   0.955131 0.260702 0.858529 -0.216362
C18   C     C_R   0.964737 0.295896 0.795054 0.135114
C19   C     C_R   0.926327 0.224482 0.713304 0.080155
C20   C     C_R   0.005269 0.402226 0.813115 0.093693
C21   C     C_R   0.974522 0.441978 0.750899 -0.175639
C22   C     C_R   0.891742 0.267616 0.651582 -0.221935
H1    H     H_    0.852250 0.218512 0.588638 0.096729
H2    H     H_    0.996667 0.524998 0.765133 0.083688
H3    H     H_    0.943818 0.312946 0.920291 0.137670
H4    H     H_    0.861572 0.731128 0.614243 0.155364
H5    H     H_    0.952410 0.684179 0.730760 0.090723
H6    H     H_    0.103434 0.001496 0.879122 0.098687
H7    H     H_    0.850760 0.057073 0.569575 0.139415
H8    H     H_    0.953019 0.137380 0.898046 0.123012
H9    H     H_    0.113944 0.223352 0.308781 0.155425
H10   H     H_    0.834695 0.034701 0.194098 0.155609
C23   C     C_2   0.135230 0.037142 0.184010 -0.354681
C24   C     C_2   0.972808 0.077696 0.217265 -0.129087
H11   H     H_    0.675423 0.178019 0.294980 0.126207
C25   C     C_2   0.813288 0.221115 0.318648 -0.351687
C26   C     C_2   0.975796 0.180410 0.285556 -0.129674
H12   H     H_    0.273058 0.080292 0.207626 0.125996
C27   C     C_R   0.407820 0.787331 0.674237 -0.056875
C28   C     C_R   0.538303 0.473891 0.823051 -0.047755
C29   C     C_R   0.517752 0.890122 0.815635 -0.132638
C30   C     C_R   0.475458 0.793650 0.752441 -0.129760
C31   C     C_R   0.392680 0.882138 0.659568 -0.217789
C32   C     C_R   0.438640 0.983041 0.723935 0.096280
C33   C     C_R   0.495854 0.984018 0.802818 0.116581
C34   C     C_R   0.431279 0.082827 0.714005 0.062483
C35   C     C_R   0.478553 0.179771 0.782960 0.068635
C36   C     C_R   0.517409 0.174252 0.860137 -0.180524
C37   C     C_R   0.528981 0.078660 0.869449 -0.217529
C38   C     C_R   0.379596 0.089322 0.637718 -0.183329
C39   C     C_R   0.372824 0.185464 0.628722 -0.211072
C40   C     C_R   0.423619 0.279476 0.694552 0.119792
C41   C     C_R   0.483494 0.279072 0.772596 0.094918
C42   C     C_R   0.415073 0.374179 0.682213 -0.122981
C43   C     C_R   0.468177 0.469697 0.745581 -0.142545
C44   C     C_R   0.547941 0.378057 0.835943 -0.215939
H13   H     H_    0.566416 0.078897 0.930038 0.117181
H14   H     H_    0.603526 0.383095 0.896023 0.085421
H15   H     H_    0.454049 0.540955 0.733800 0.092756
H16   H     H_    0.328616 0.186130 0.568847 0.117154
H17   H     H_    0.567194 0.891380 0.875584 0.143735
H18   H     H_    0.494824 0.723193 0.765058 0.091797
H19   H     H_    0.346442 0.874876 0.598065 0.096771
H20   H     H_    0.544207 0.243327 0.914810 0.116811
H21   H     H_    0.341393 0.020792 0.583583 0.126180
H22   H     H_    0.364687 0.374344 0.622854 0.147570
H23   H     H_    0.335081 0.667707 0.193793 0.158510
H24   H     H_    0.614443 0.591922 0.309614 0.156664
C45   C     C_2   0.313401 0.603051 0.318763 -0.345222
C46   C     C_2   0.476185 0.611816 0.285961 -0.136157
H25   H     H_    0.773907 0.636374 0.208361 0.126256
C47   C     C_2   0.635958 0.656126 0.184360 -0.354551
C48   C     C_2   0.473327 0.647731 0.217389 -0.130605
H26   H     H_    0.175490 0.622862 0.294774 0.126062
O11   O     O_R   0.421600 0.630430 0.917010 -0.542916
O12   O     O_R   0.793840 0.702190 0.087630 -0.540999
O13   O     O_R   0.964010 0.886170 0.088190 -0.533384
C49   C     C_R   0.631825 0.693180 0.116154 0.760582
O14   O     O_R   0.751460 0.619510 0.917500 -0.553126
O15   O     O_R   0.921330 0.802900 0.916840 -0.539249
C50   C     C_R   0.574426 0.579823 0.891043 0.661510
O16   O     O_R   0.464290 0.713700 0.088350 -0.534876
O17   O     O_3   0.609200 0.818520 0.002630 -0.369724
V3    V     V_3+5 0.884140 0.747190 0.002530 1.352456
O18   O     O_R   0.251150 0.814630 0.917340 -0.542653
C51   C     C_R   0.073696 0.815010 0.885239 0.688459
O19   O     O_R   0.293530 0.897310 0.087470 -0.540328
C52   C     C_R   0.131369 0.933809 0.115994 0.771507
V4    V     V_3+5 0.384070 0.769710 0.002370 1.361513
O20   O     O_3   0.109180 0.698190 0.002460 -0.381452
C53   C     C_3   0.812194 0.843343 0.525725 -0.338457
C54   C     C_3   0.761758 0.880953 0.455821 -0.787573
H27   H     H_    0.637341 0.933027 0.467965 0.225259
H28   H     H_    0.888855 0.922146 0.446517 0.223119
H29   H     H_    0.720005 0.812364 0.398816 0.228979
H30   H     H_    0.932838 0.789120 0.509388 0.178219
H31   H     H_    0.683304 0.798107 0.528992 0.176355
C55   C     C_3   0.062092 0.477267 0.899679 -0.271540
C56   C     C_3   0.223114 0.445778 0.951452 -0.759109
H32   H     H_    0.275757 0.367265 0.918990 0.227697
H33   H     H_    0.346570 0.503083 0.973249 0.225927
H34   H     H_    0.167554 0.444518 0.007306 0.193588
H35   H     H_    0.106025 0.550595 0.895042 0.225811
H36   H     H_    0.932863 0.487950 0.932645 0.170958

loop_
_geom_bond_atom_site_label_1
_geom_bond_atom_site_label_2
_ccdc_geom_bond_type
C34   C38   A    
C31   C32   A    
O12   V3    S    
C13   C19   A    
V4    O20   S    
V3    O20   S    
C4    C6    S    
C38   H21   S    
O2    C1    A    
O17   V3    S    
C3    C25   S    
C21   H2    S    
C54   H28   S    
O18   C51   A    
O15   C51   A    
C23   C24   D    
C24   C26   S    
C14   C15   A    
C38   C39   A    
C20   C55   S    
H25   C47   S    
C16   C17   A    
O5    C3    A    
C18   C19   A    
V2    O10   S    
O15   V3    S    
C5    C8    A    
C32   C33   A    
C22   H1    S    
C16   H8    S    
C55   C56   S    
O14   V3    S    
C30   H18   S    
O8    V2    S    
H11   C25   S    
O16   V4    S    
C53   H30   S    
O1    V2    S    
C11   C15   A    
O7    V1    S    
C27   C31   A    
C45   H26   S    
C28   C44   A    
C1    O6    A    
C31   H19   S    
C42   C43   A    
C35   C36   A    
O11   V4    S    
O9    C4    A    
C47   C49   S    
C54   H27   S    
H10   C24   S    
C49   O16   A    
C42   H22   S    
C1    C27   S    
C12   C13   A    
H24   C46   S    
O4    C2    A    
C8    H5    S    
C29   C33   A    
H9    C26   S    
O13   C52   A    
C13   C14   A    
C29   C30   A    
C36   H20   S    
C45   C46   D    
C36   C37   A    
C40   C42   A    
C7    C11   A    
C17   C18   A    
C7    H4    S    
O14   C50   A    
O19   C52   A    
C41   C44   A    
C19   C22   A    
C28   C50   S    
C56   H33   S    
C47   C48   D    
C6    C22   A    
O3    C4    A    
C25   C26   D    
O19   V4    S    
O12   C49   A    
O6    V2    S    
O9    V2    S    
C10   C12   A    
O2    V1    S    
C55   H36   S    
H23   C48   S    
C5    C51   S    
C37   H13   S    
C56   H32   S    
C2    C45   S    
O1    C2    A    
C29   H17   S    
C12   C16   A    
C28   C43   A    
C23   C52   S    
O5    V1    S    
O8    C3    A    
C33   C37   A    
C46   C48   S    
C53   H31   S    
C27   C30   A    
C20   C21   A    
C7    C8    A    
C34   C35   A    
O4    V1    S    
O3    V1    S    
V1    O10   S    
C35   C41   A    
C18   C20   A    
C9    H6    S    
C23   H12   S    
O13   V3    S    
O11   C50   A    
C40   C41   A    
C15   C53   S    
C32   C34   A    
C56   H34   S    
C43   H15   S    
O7    V2    S    
C6    C21   A    
C5    C9    A    
C39   C40   A    
C39   H16   S    
C44   H14   S    
C17   H3    S    
C53   C54   S    
C10   C11   A    
C9    C10   A    
C55   H35   S    
C54   H29   S    
O18   V4    S    
O17   V4    S    
C14   H7    S    
