data_mof_unit_61192.cif
_audit_creation_date              2013-03-05T15:59:07-0500
_audit_creation_method            fapswitch 2.2
_symmetry_space_group_name_H-M    P1
_symmetry_Int_Tables_number       1
_space_group_crystal_system       triclinic
_cell_length_a                    21.640215
_cell_length_b                    21.639983
_cell_length_c                    47.128151
_cell_angle_alpha                 90.000015
_cell_angle_beta                  90.000015
_cell_angle_gamma                 89.920859
_cell_volume                      22069.8038577

loop_
_atom_site_label
_atom_site_type_symbol
_atom_site_description
_atom_site_fract_x
_atom_site_fract_y
_atom_site_fract_z
_atom_type_partial_charge
O1    O     O_R   0.999960 0.091640 0.023680 -0.615456
O2    O     O_R   0.908360 0.999960 0.023680 -0.615665
O3    O     O_R   0.000040 0.908360 0.023680 -0.615456
O4    O     O_R   0.091640 0.000040 0.023680 -0.615665
O5    O     O_R   0.999960 0.908360 0.976320 -0.615665
O6    O     O_R   0.908360 0.000040 0.976320 -0.615770
O7    O     O_R   0.000040 0.091640 0.976320 -0.615665
O8    O     O_R   0.091640 0.999960 0.976320 -0.615770
O9    O     O_R   0.499960 0.591640 0.523680 -0.615756
O10   O     O_R   0.408360 0.499960 0.523680 -0.615653
O11   O     O_R   0.500040 0.408360 0.523680 -0.615756
O12   O     O_R   0.591640 0.500040 0.523680 -0.615653
O13   O     O_R   0.499960 0.408360 0.476320 -0.615722
O14   O     O_R   0.408360 0.500040 0.476320 -0.615546
O15   O     O_R   0.500040 0.591640 0.476320 -0.615722
O16   O     O_R   0.591640 0.499960 0.476320 -0.615546
C1    C     C_R   0.000008 0.120326 1.000000 0.911809
C2    C     C_R   0.879671 0.999995 0.999997 0.912175
C3    C     C_R   0.999992 0.879674 1.000000 0.911809
C4    C     C_R   0.120329 0.000005 0.999997 0.912175
C5    C     C_R   0.500005 0.620329 0.500003 0.912228
C6    C     C_R   0.379673 0.499990 0.500000 0.911845
C7    C     C_R   0.499995 0.379671 0.500003 0.912228
C8    C     C_R   0.620327 0.500009 0.500000 0.911845
Zn1   Zn    Zn3+2 0.000000 0.000000 0.031620 1.054398
Zn2   Zn    Zn3+2 0.000000 0.000000 0.968380 1.053906
Zn3   Zn    Zn3+2 0.500000 0.500000 0.531620 1.053889
Zn4   Zn    Zn3+2 0.500000 0.500000 0.468380 1.053959
C9    C     C_R   0.217989 0.027556 0.977500 -0.201622
C10   C     C_R   0.972145 0.218080 0.977624 -0.201827
C11   C     C_R   0.782011 0.972444 0.977500 -0.201622
C12   C     C_R   0.027854 0.781920 0.977624 -0.201827
C13   C     C_R   0.218109 0.972576 0.022464 -0.201493
C14   C     C_R   0.971988 0.782007 0.022355 -0.201808
C15   C     C_R   0.781891 0.027424 0.022464 -0.201492
C16   C     C_R   0.028012 0.217993 0.022355 -0.201808
C17   C     C_R   0.717997 0.527969 0.477633 -0.201852
C18   C     C_R   0.472577 0.718109 0.477536 -0.201593
C19   C     C_R   0.282003 0.472031 0.477633 -0.201853
C20   C     C_R   0.527423 0.281891 0.477536 -0.201593
C21   C     C_R   0.718082 0.472188 0.522386 -0.201808
C22   C     C_R   0.472444 0.282011 0.522500 -0.201624
C23   C     C_R   0.281918 0.527812 0.522386 -0.201808
C24   C     C_R   0.527556 0.717989 0.522500 -0.201625
H1    H     H_    0.192699 0.048484 0.960117 0.205844
H2    H     H_    0.950862 0.192862 0.960327 0.205470
H3    H     H_    0.807301 0.951516 0.960117 0.205844
H4    H     H_    0.049138 0.807138 0.960327 0.205470
H5    H     H_    0.192936 0.951661 0.039869 0.206109
H6    H     H_    0.950726 0.807293 0.039654 0.205313
H7    H     H_    0.807064 0.048339 0.039869 0.206109
H8    H     H_    0.049274 0.192707 0.039654 0.205313
H9    H     H_    0.692713 0.549198 0.460324 0.205306
H10   H     H_    0.451662 0.692936 0.460131 0.206036
H11   H     H_    0.307287 0.450802 0.460324 0.205307
H12   H     H_    0.548337 0.307064 0.460131 0.206037
H13   H     H_    0.692866 0.450938 0.539692 0.205488
H14   H     H_    0.451517 0.307302 0.539883 0.205840
H15   H     H_    0.307134 0.549062 0.539692 0.205488
H16   H     H_    0.548483 0.692698 0.539883 0.205840
C25   C     C_R   0.281977 0.027564 0.977091 0.279477
C26   C     C_R   0.972195 0.282062 0.977217 0.280585
C27   C     C_R   0.718023 0.972436 0.977091 0.279477
C28   C     C_R   0.027805 0.717937 0.977217 0.280585
C29   C     C_R   0.282079 0.972690 0.022857 0.285975
C30   C     C_R   0.971969 0.718021 0.022749 0.280932
C31   C     C_R   0.717921 0.027310 0.022857 0.285974
C32   C     C_R   0.028031 0.281979 0.022749 0.280932
C33   C     C_R   0.781983 0.527984 0.477238 0.280841
C34   C     C_R   0.472691 0.782079 0.477143 0.286026
C35   C     C_R   0.218017 0.472016 0.477238 0.280842
C36   C     C_R   0.527309 0.217921 0.477143 0.286026
C37   C     C_R   0.782064 0.472237 0.522793 0.280543
C38   C     C_R   0.472437 0.218023 0.522909 0.279472
C39   C     C_R   0.217936 0.527763 0.522793 0.280543
C40   C     C_R   0.527563 0.781977 0.522909 0.279473
C41   C     C_R   0.313885 0.000119 0.999971 -0.265003
C42   C     C_R   0.000114 0.313884 0.999984 -0.265473
C43   C     C_R   0.686115 0.999881 0.999971 -0.265003
C44   C     C_R   0.999886 0.686116 0.999984 -0.265473
C45   C     C_R   0.813886 0.500113 0.500015 -0.265496
C46   C     C_R   0.500119 0.813886 0.500029 -0.264993
C47   C     C_R   0.186114 0.499887 0.500015 -0.265496
C48   C     C_R   0.499881 0.186114 0.500029 -0.264993
C49   C     C_R   0.186520 0.000035 0.999985 -0.149624
C50   C     C_R   0.000049 0.186514 0.999995 -0.148220
C51   C     C_R   0.813479 0.999965 0.999985 -0.149624
C52   C     C_R   0.999951 0.813486 0.999995 -0.148220
C53   C     C_R   0.686516 0.500051 0.500004 -0.148259
C54   C     C_R   0.500035 0.686520 0.500015 -0.149605
C55   C     C_R   0.313483 0.499949 0.500004 -0.148259
C56   C     C_R   0.499965 0.313479 0.500015 -0.149605
O17   O     O_R   0.499950 0.051720 0.041990 -0.611625
O18   O     O_R   0.948280 0.499950 0.041990 -0.609164
O19   O     O_R   0.500050 0.948280 0.041990 -0.611625
O20   O     O_R   0.051720 0.500050 0.041990 -0.609164
O21   O     O_R   0.499950 0.948280 0.958010 -0.609846
O22   O     O_R   0.948280 0.500050 0.958010 -0.609564
O23   O     O_R   0.500050 0.051720 0.958010 -0.609847
O24   O     O_R   0.051720 0.499950 0.958010 -0.609564
O25   O     O_R   0.999950 0.551720 0.541990 -0.609586
O26   O     O_R   0.448280 0.999950 0.541990 -0.609871
O27   O     O_R   0.000050 0.448280 0.541990 -0.609586
O28   O     O_R   0.551720 0.000050 0.541990 -0.609872
O29   O     O_R   0.999950 0.448280 0.458010 -0.610105
O30   O     O_R   0.448280 0.000050 0.458010 -0.611608
O31   O     O_R   0.000050 0.551720 0.458010 -0.610105
O32   O     O_R   0.551720 0.999950 0.458010 -0.611609
C57   C     C_R   0.500000 0.000000 0.055475 1.021912
C58   C     C_R   0.000000 0.500000 0.055462 1.015216
C59   C     C_R   0.500000 0.000000 0.944530 1.016530
C60   C     C_R   0.000000 0.500000 0.944530 1.015669
C61   C     C_R   0.000000 0.500000 0.555470 1.015794
C62   C     C_R   0.500000 0.000000 0.555470 1.016543
C63   C     C_R   1.000000 0.500000 0.444522 1.016294
C64   C     C_R   0.500000 1.000000 0.444525 1.021908
O33   O     O_R   0.408360 0.051710 0.000060 -0.596721
O34   O     O_R   0.948290 0.408360 0.000060 -0.599908
O35   O     O_R   0.591640 0.948290 0.000060 -0.596721
O36   O     O_R   0.051710 0.591640 0.000060 -0.599908
O37   O     O_R   0.408360 0.948290 0.999940 -0.603662
O38   O     O_R   0.948290 0.591640 0.999940 -0.600118
O39   O     O_R   0.591640 0.051710 0.999940 -0.603662
O40   O     O_R   0.051710 0.408360 0.999940 -0.600118
O41   O     O_R   0.908360 0.551710 0.500060 -0.600197
O42   O     O_R   0.448290 0.908360 0.500060 -0.603661
O43   O     O_R   0.091640 0.448290 0.500060 -0.600197
O44   O     O_R   0.551710 0.091640 0.500060 -0.603662
O45   O     O_R   0.908360 0.448290 0.499940 -0.599722
O46   O     O_R   0.448290 0.091640 0.499940 -0.596706
O47   O     O_R   0.091640 0.551710 0.499940 -0.599722
O48   O     O_R   0.551710 0.908360 0.499940 -0.596706
C65   C     C_R   0.379936 0.000040 0.999975 0.997210
C66   C     C_R   0.000038 0.379935 0.999999 0.994496
C67   C     C_R   0.620064 0.999960 0.999975 0.997210
C68   C     C_R   0.999962 0.620065 0.999999 0.994495
C69   C     C_R   0.879935 0.500038 0.500002 0.994829
C70   C     C_R   0.500040 0.879936 0.500025 0.997199
C71   C     C_R   0.120065 0.499962 0.500002 0.994828
C72   C     C_R   0.499960 0.120064 0.500025 0.997199
Zn5   Zn    Zn3+2 0.500000 0.069070 0.000000 1.119637
Zn6   Zn    Zn3+2 0.930930 0.500000 0.000000 1.121207
Zn7   Zn    Zn3+2 0.500000 0.930930 0.000000 1.119637
Zn8   Zn    Zn3+2 0.069070 0.500000 0.000000 1.121207
Zn9   Zn    Zn3+2 0.000000 0.569070 0.500000 1.121005
Zn10  Zn    Zn3+2 0.430930 0.000000 0.500000 1.119686
Zn11  Zn    Zn3+2 0.000000 0.430930 0.500000 1.121006
Zn12  Zn    Zn3+2 0.569070 0.000000 0.500000 1.119686
C73   C     C_R   0.961772 0.460127 0.809547 0.636672
C74   C     C_R   0.539909 0.961699 0.809547 0.636691
C75   C     C_R   0.038228 0.539873 0.809547 0.636672
C76   C     C_R   0.460091 0.038301 0.809547 0.636691
C77   C     C_R   0.039715 0.461498 0.190424 0.636336
C78   C     C_R   0.540087 0.961883 0.190463 0.636242
C79   C     C_R   0.960285 0.538502 0.190424 0.636337
C80   C     C_R   0.459913 0.038116 0.190463 0.636242
C81   C     C_R   0.538115 0.959912 0.309537 0.636241
C82   C     C_R   0.041349 0.463259 0.309518 0.636395
C83   C     C_R   0.461885 0.040088 0.309537 0.636241
C84   C     C_R   0.958651 0.536741 0.309518 0.636395
C85   C     C_R   0.538211 0.960005 0.690454 0.636692
C86   C     C_R   0.960072 0.461830 0.690454 0.636674
C87   C     C_R   0.461789 0.039995 0.690454 0.636692
C88   C     C_R   0.039928 0.538170 0.690454 0.636675
N1    N     N_R   1.000000 0.500000 0.823684 -0.328066
N2    N     N_R   0.500000 1.000000 0.823684 -0.328067
N3    N     N_R   0.000000 0.500000 0.176287 -0.328033
N4    N     N_R   0.500000 0.000000 0.176327 -0.326866
N5    N     N_R   0.500000 0.000000 0.323673 -0.326861
N6    N     N_R   1.000000 0.500000 0.323652 -0.328113
N7    N     N_R   0.500000 1.000000 0.676318 -0.328069
N8    N     N_R   1.000000 0.500000 0.676318 -0.328067
C89   C     C_R   0.039524 0.540224 0.779851 -0.032450
C90   C     C_R   0.459738 0.039597 0.779851 -0.032463
C91   C     C_R   0.960476 0.459776 0.779851 -0.032450
C92   C     C_R   0.540262 0.960403 0.779851 -0.032463
C93   C     C_R   0.958967 0.538797 0.220121 -0.030607
C94   C     C_R   0.459630 0.039487 0.220155 -0.029823
C95   C     C_R   0.041033 0.461203 0.220121 -0.030607
C96   C     C_R   0.540370 0.960513 0.220155 -0.029823
C97   C     C_R   0.460514 0.040372 0.279845 -0.029834
C98   C     C_R   0.958239 0.538013 0.279821 -0.030590
C99   C     C_R   0.539485 0.959628 0.279845 -0.029834
C100  C     C_R   0.041761 0.461987 0.279821 -0.030590
C101  C     C_R   0.460494 0.040351 0.720151 -0.032463
C102  C     C_R   0.040281 0.539466 0.720151 -0.032450
C103  C     C_R   0.539506 0.959648 0.720151 -0.032463
C104  C     C_R   0.959719 0.460534 0.720151 -0.032450
C105  C     C_R   1.000000 0.500000 0.764945 -0.000928
C106  C     C_R   0.500000 1.000000 0.764945 -0.000920
C107  C     C_R   0.000000 0.500000 0.235027 -0.000711
C108  C     C_R   0.500000 0.000000 0.235058 -0.001322
C109  C     C_R   0.500000 0.000000 0.264942 -0.001321
C110  C     C_R   0.000000 0.500000 0.264916 -0.000588
C111  C     C_R   0.500000 1.000000 0.735056 -0.000916
C112  C     C_R   1.000000 0.500000 0.735056 -0.000926
C113  C     C_R   0.079202 0.579670 0.764787 -0.100525
C114  C     C_R   0.420254 0.079346 0.764787 -0.100502
C115  C     C_R   0.920798 0.420330 0.764787 -0.100525
C116  C     C_R   0.579746 0.920654 0.764787 -0.100502
C117  C     C_R   0.917798 0.576802 0.235185 -0.101863
C118  C     C_R   0.420115 0.079209 0.235215 -0.102240
C119  C     C_R   0.082202 0.423198 0.235185 -0.101864
C120  C     C_R   0.579885 0.920791 0.235215 -0.102240
C121  C     C_R   0.420794 0.079889 0.264785 -0.102235
C122  C     C_R   0.917238 0.576198 0.264757 -0.101989
C123  C     C_R   0.579206 0.920111 0.264785 -0.102235
C124  C     C_R   0.082762 0.423801 0.264757 -0.101989
C125  C     C_R   0.420836 0.079926 0.735214 -0.100506
C126  C     C_R   0.079785 0.579087 0.735214 -0.100527
C127  C     C_R   0.579164 0.920074 0.735214 -0.100506
C128  C     C_R   0.920215 0.420913 0.735214 -0.100527
O49   O     O_2   0.925295 0.421015 0.824250 -0.494899
O50   O     O_2   0.579054 0.925149 0.824250 -0.494850
O51   O     O_2   0.074705 0.578985 0.824250 -0.494899
O52   O     O_2   0.420946 0.074850 0.824250 -0.494850
O53   O     O_2   0.077648 0.423688 0.175724 -0.497076
O54   O     O_2   0.579458 0.925569 0.175765 -0.502781
O55   O     O_2   0.922352 0.576312 0.175724 -0.497077
O56   O     O_2   0.420542 0.074431 0.175765 -0.502781
O57   O     O_2   0.574427 0.920539 0.324235 -0.502754
O58   O     O_2   0.081862 0.428234 0.324221 -0.496829
O59   O     O_2   0.425572 0.079461 0.324235 -0.502754
O60   O     O_2   0.918138 0.571766 0.324221 -0.496829
O61   O     O_2   0.574673 0.920778 0.675752 -0.494842
O62   O     O_2   0.920908 0.425408 0.675751 -0.494894
O63   O     O_2   0.425327 0.079222 0.675752 -0.494842
O64   O     O_2   0.079091 0.574592 0.675751 -0.494893
H17   H     H_    0.110071 0.610915 0.775781 0.209649
H18   H     H_    0.388979 0.110271 0.775781 0.209658
H19   H     H_    0.889929 0.389085 0.775781 0.209649
H20   H     H_    0.611020 0.889729 0.775781 0.209658
H21   H     H_    0.885747 0.606924 0.224191 0.207349
H22   H     H_    0.388771 0.110064 0.224221 0.206958
H23   H     H_    0.114253 0.393076 0.224191 0.207349
H24   H     H_    0.611229 0.889936 0.224221 0.206958
H25   H     H_    0.389941 0.111234 0.275779 0.206974
H26   H     H_    0.884782 0.605884 0.275751 0.207308
H27   H     H_    0.610059 0.888766 0.275779 0.206974
H28   H     H_    0.115218 0.394115 0.275751 0.207308
H29   H     H_    0.389982 0.111271 0.724220 0.209656
H30   H     H_    0.111075 0.609910 0.724220 0.209647
H31   H     H_    0.610018 0.888729 0.724220 0.209656
H32   H     H_    0.888925 0.390090 0.724220 0.209647
C129  C     C_R   0.524248 0.051286 0.130995 0.316039
C130  C     C_R   0.050014 0.526782 0.130948 0.321713
C131  C     C_R   0.475752 0.948714 0.130995 0.316039
C132  C     C_R   0.949986 0.473218 0.130948 0.321713
C133  C     C_R   0.474846 0.949149 0.869019 0.322371
C134  C     C_R   0.949101 0.525195 0.869019 0.322438
C135  C     C_R   0.525153 0.050851 0.869019 0.322371
C136  C     C_R   0.050899 0.474805 0.869019 0.322437
C137  C     C_R   0.025128 0.449068 0.630982 0.322419
C138  C     C_R   0.550901 0.025051 0.630983 0.322352
C139  C     C_R   0.974871 0.550932 0.630982 0.322419
C140  C     C_R   0.449099 0.974949 0.630983 0.322352
C141  C     C_R   0.976619 0.448311 0.368984 0.321233
C142  C     C_R   0.448714 0.975753 0.369005 0.316020
C143  C     C_R   0.023381 0.551689 0.368984 0.321234
C144  C     C_R   0.551286 0.024247 0.369005 0.316020
C145  C     C_R   0.522473 0.051207 0.101358 -0.185855
C146  C     C_R   0.049965 0.525104 0.101304 -0.196748
C147  C     C_R   0.477527 0.948793 0.101358 -0.185855
C148  C     C_R   0.950035 0.474896 0.101304 -0.196748
C149  C     C_R   0.476468 0.949275 0.898663 -0.196572
C150  C     C_R   0.949229 0.523573 0.898664 -0.196977
C151  C     C_R   0.523532 0.050725 0.898663 -0.196573
C152  C     C_R   0.050771 0.476427 0.898664 -0.196978
C153  C     C_R   0.023509 0.449199 0.601337 -0.196945
C154  C     C_R   0.550770 0.023433 0.601338 -0.196592
C155  C     C_R   0.976491 0.550801 0.601337 -0.196945
C156  C     C_R   0.449229 0.976567 0.601338 -0.196592
C157  C     C_R   0.978177 0.448514 0.398629 -0.197434
C158  C     C_R   0.448793 0.977528 0.398642 -0.185858
C159  C     C_R   0.021823 0.551485 0.398629 -0.197435
C160  C     C_R   0.551207 0.022472 0.398642 -0.185858
H33   H     H_    0.540791 0.090365 0.089782 0.228976
H34   H     H_    0.088064 0.545458 0.089699 0.210953
H35   H     H_    0.459209 0.909635 0.089782 0.228976
H36   H     H_    0.911936 0.454542 0.089699 0.210953
H37   H     H_    0.457324 0.910535 0.910253 0.211109
H38   H     H_    0.910452 0.542749 0.910254 0.210973
H39   H     H_    0.542676 0.089465 0.910253 0.211108
H40   H     H_    0.089547 0.457251 0.910254 0.210973
H41   H     H_    0.042635 0.410397 0.589748 0.210998
H42   H     H_    0.589549 0.042502 0.589750 0.211123
H43   H     H_    0.957365 0.589603 0.589748 0.210998
H44   H     H_    0.410451 0.957498 0.589750 0.211123
H45   H     H_    0.960353 0.409128 0.410204 0.211448
H46   H     H_    0.409635 0.959211 0.410218 0.228974
H47   H     H_    0.039646 0.590872 0.410204 0.211448
H48   H     H_    0.590365 0.040789 0.410218 0.228974
C161  C     C_R   0.500000 0.000000 0.086523 -0.132958
C162  C     C_R   0.000000 0.500000 0.086487 -0.102613
C163  C     C_R   0.500000 1.000000 0.913490 -0.102023
C164  C     C_R   1.000000 0.500000 0.913491 -0.102224
C165  C     C_R   1.000000 0.500000 0.586510 -0.102216
C166  C     C_R   0.500000 0.000000 0.586511 -0.102002
C167  C     C_R   0.000000 0.500000 0.413468 -0.102274
C168  C     C_R   0.500000 0.000000 0.413477 -0.132937
C169  C     C_R   0.500000 0.000000 0.145932 0.058903
C170  C     C_R   0.000000 0.500000 0.145888 0.062997
C171  C     C_R   0.500000 1.000000 0.854080 0.063074
C172  C     C_R   1.000000 0.500000 0.854081 0.063112
C173  C     C_R   1.000000 0.500000 0.645921 0.063122
C174  C     C_R   0.500000 1.000000 0.645922 0.063099
C175  C     C_R   0.000000 0.500000 0.354048 0.063815
C176  C     C_R   0.500000 0.000000 0.354067 0.058907
N9    N     N_R   0.313568 0.053906 0.953113 0.225400
O65   O     O_R   0.290357 0.101681 0.940138 -0.320123
O66   O     O_R   0.359909 0.025006 0.941568 -0.405868
N10   N     N_R   0.945445 0.313743 0.953339 0.225647
O67   O     O_R   0.897360 0.290749 0.940575 -0.320197
O68   O     O_R   0.974233 0.359903 0.941648 -0.404987
N11   N     N_R   0.686431 0.946094 0.953113 0.225400
O69   O     O_R   0.709643 0.898318 0.940138 -0.320123
O70   O     O_R   0.640091 0.974993 0.941568 -0.405869
N12   N     N_R   0.054554 0.686257 0.953339 0.225647
O71   O     O_R   0.102640 0.709251 0.940575 -0.320197
O72   O     O_R   0.025767 0.640097 0.941648 -0.404987
N13   N     N_R   0.313807 0.946732 0.046890 0.221390
O73   O     O_R   0.291175 0.898706 0.059836 -0.322589
O74   O     O_R   0.359388 0.976412 0.058578 -0.414231
N14   N     N_R   0.945177 0.686424 0.046621 0.225657
O75   O     O_R   0.897097 0.709583 0.059377 -0.322269
O76   O     O_R   0.973919 0.640160 0.058315 -0.405387
N15   N     N_R   0.686193 0.053268 0.046890 0.221390
O77   O     O_R   0.708825 0.101294 0.059836 -0.322588
O78   O     O_R   0.640612 0.023589 0.058578 -0.414232
N16   N     N_R   0.054823 0.313576 0.046621 0.225658
O79   O     O_R   0.102903 0.290417 0.059377 -0.322269
O80   O     O_R   0.026081 0.359840 0.058315 -0.405387
N17   N     N_R   0.813584 0.554724 0.453355 0.225482
O81   O     O_R   0.790427 0.602778 0.440576 -0.322192
O82   O     O_R   0.859850 0.525958 0.441675 -0.404382
N18   N     N_R   0.446734 0.813808 0.453110 0.221376
O83   O     O_R   0.398708 0.791176 0.440163 -0.322869
O84   O     O_R   0.476415 0.859388 0.441422 -0.414252
N19   N     N_R   0.186416 0.445275 0.453355 0.225482
O85   O     O_R   0.209573 0.397222 0.440577 -0.322193
O86   O     O_R   0.140150 0.474042 0.441675 -0.404382
N20   N     N_R   0.553266 0.186192 0.453110 0.221375
O87   O     O_R   0.601291 0.208823 0.440163 -0.322868
O88   O     O_R   0.523585 0.140612 0.441422 -0.414252
N21   N     N_R   0.813744 0.445531 0.546682 0.225605
O89   O     O_R   0.790748 0.397469 0.559465 -0.320209
O90   O     O_R   0.859905 0.474338 0.558361 -0.405045
N22   N     N_R   0.446096 0.186430 0.546887 0.225397
O91   O     O_R   0.398321 0.209641 0.559863 -0.320107
O92   O     O_R   0.474997 0.140090 0.558433 -0.405842
N23   N     N_R   0.186256 0.554469 0.546682 0.225604
O93   O     O_R   0.209252 0.602531 0.559465 -0.320209
O94   O     O_R   0.140095 0.525662 0.558361 -0.405045
N24   N     N_R   0.553904 0.813569 0.546887 0.225397
O95   O     O_R   0.601679 0.790359 0.559863 -0.320107
O96   O     O_R   0.525003 0.859910 0.558433 -0.405842
N25   N     N_R   0.551276 0.103178 0.145563 0.244008
O97   O     O_R   0.580733 0.095570 0.169381 -0.338810
O98   O     O_R   0.552054 0.157414 0.133632 -0.297023
N26   N     N_R   0.100564 0.556248 0.145515 0.240140
O99   O     O_R   0.091642 0.585066 0.169402 -0.341933
O100  O     O_R   0.154641 0.559786 0.133541 -0.302450
N27   N     N_R   0.448724 0.896822 0.145563 0.244008
O101  O     O_R   0.419268 0.904430 0.169381 -0.338810
O102  O     O_R   0.447946 0.842586 0.133632 -0.297024
N28   N     N_R   0.899436 0.443751 0.145515 0.240139
O103  O     O_R   0.908358 0.414934 0.169401 -0.341933
O104  O     O_R   0.845358 0.440214 0.133541 -0.302450
N29   N     N_R   0.447101 0.897639 0.854448 0.239727
O105  O     O_R   0.418063 0.905576 0.830546 -0.344570
O106  O     O_R   0.445371 0.843471 0.866422 -0.303938
N30   N     N_R   0.897537 0.552984 0.854449 0.239684
O107  O     O_R   0.905419 0.582018 0.830547 -0.344647
O108  O     O_R   0.843366 0.554756 0.866422 -0.303922
N31   N     N_R   0.552899 0.102361 0.854448 0.239728
O109  O     O_R   0.581937 0.094423 0.830545 -0.344571
O110  O     O_R   0.554629 0.156528 0.866422 -0.303938
N32   N     N_R   0.102463 0.447016 0.854449 0.239683
O111  O     O_R   0.094581 0.417982 0.830547 -0.344647
O112  O     O_R   0.156634 0.445244 0.866422 -0.303922
N33   N     N_R   0.052847 0.397466 0.645553 0.239684
O113  O     O_R   0.081889 0.405308 0.669455 -0.344644
O114  O     O_R   0.054546 0.343292 0.633579 -0.303891
N34   N     N_R   0.602469 0.052689 0.645554 0.239718
O115  O     O_R   0.594592 0.081740 0.669457 -0.344577
O116  O     O_R   0.656639 0.054304 0.633580 -0.303907
N35   N     N_R   0.947153 0.602534 0.645553 0.239684
O117  O     O_R   0.918111 0.594692 0.669455 -0.344644
O118  O     O_R   0.945454 0.656708 0.633579 -0.303892
N36   N     N_R   0.397531 0.947311 0.645554 0.239717
O119  O     O_R   0.405408 0.918259 0.669457 -0.344577
O120  O     O_R   0.343361 0.945696 0.633580 -0.303906
N37   N     N_R   0.950751 0.395832 0.354411 0.239784
O121  O     O_R   0.921497 0.402706 0.330495 -0.342093
O122  O     O_R   0.950976 0.341632 0.366384 -0.302212
N38   N     N_R   0.396821 0.948726 0.354437 0.244006
O123  O     O_R   0.404429 0.919269 0.330620 -0.338920
O124  O     O_R   0.342586 0.947951 0.366368 -0.296924
N39   N     N_R   0.049249 0.604168 0.354411 0.239784
O125  O     O_R   0.078503 0.597294 0.330495 -0.342093
O126  O     O_R   0.049024 0.658368 0.366384 -0.302212
N40   N     N_R   0.603179 0.051273 0.354437 0.244006
O127  O     O_R   0.595571 0.080731 0.330620 -0.338920
O128  O     O_R   0.657414 0.052049 0.366368 -0.296924

loop_
_geom_bond_atom_site_label_1
_geom_bond_atom_site_label_2
_geom_bond_distance
_ccdc_geom_bond_type
O1    Zn1   2.018080 S    
N25   O97   1.301184 A    
C93   C107  1.408813 A    
C17   C33   1.384798 A    
O46   Zn10  2.018868 S    
O8    Zn2   2.018101 S    
O36   Zn8   2.017848 S    
O46   C72   1.276916 A    
C22   H14   1.084006 S    
C18   C34   1.384439 A    
C149  H37   1.083389 S    
N17   O81   1.301422 A    
C41   C65   1.429348 S    
C144  C176  1.415713 A    
C132  C170  1.415911 A    
N38   O124  1.301527 A    
C29   N13   1.438313 S    
O25   C61   1.286957 A    
N30   O107  1.301169 A    
C63   C167  1.463527 S    
C114  C125  1.393811 A    
C115  H19   1.083108 S    
C81   N5    1.369209 A    
C80   C94   1.399638 A    
C130  N26   1.441006 S    
N14   O75   1.301420 A    
C95   C107  1.408815 A    
C117  C122  1.393802 A    
O3    C3    1.277051 A    
C98   C110  1.408830 A    
N40   O128  1.301529 A    
C154  C166  1.397893 A    
O33   C65   1.276912 A    
C75   O51   1.349596 S    
C157  H45   1.083368 S    
C101  C111  1.408816 A    
C87   O63   1.349598 S    
C37   C45   1.411228 A    
C159  C167  1.398146 A    
C31   N15   1.438314 S    
C5    C54   1.432391 S    
C23   C39   1.384712 A    
C29   C41   1.410870 A    
N16   O79   1.301421 A    
O12   Zn3   2.018103 S    
C59   C163  1.462830 S    
C126  H30   1.083108 S    
O24   Zn8   2.014219 S    
C143  C175  1.415702 A    
N20   O87   1.301400 A    
N36   O120  1.301527 A    
C16   C50   1.393465 A    
C9    H1    1.084005 S    
C73   C91   1.399852 A    
O26   C62   1.286977 A    
C118  H22   1.083109 S    
O11   Zn3   2.018082 S    
C144  N40   1.440935 S    
C4    C49   1.432404 S    
O39   Zn5   2.017868 S    
C122  H26   1.083148 S    
C83   C97   1.399638 A    
C137  N33   1.440988 S    
C42   C66   1.429337 S    
O38   C68   1.276969 A    
C36   C48   1.410863 A    
C84   O60   1.349609 S    
C103  C127  1.404253 A    
C15   H7    1.084025 S    
N33   O113  1.301167 A    
C101  C125  1.404253 A    
C125  H29   1.083103 S    
N35   O117  1.301172 A    
C135  C151  1.397539 A    
C79   N3    1.369214 A    
N39   O126  1.301562 A    
C136  N32   1.440988 S    
C22   C56   1.393725 A    
O23   Zn5   2.014217 S    
N18   O83   1.301399 A    
N34   O116  1.301528 A    
N31   O109  1.301170 A    
C16   C32   1.384781 A    
C27   C43   1.411046 A    
N37   O121  1.301179 A    
C18   C54   1.393417 A    
C88   C102  1.399857 A    
C107  C110  1.408618 A    
C46   C70   1.429330 S    
C104  C128  1.404257 A    
C105  C112  1.408618 A    
O9    C5    1.276947 A    
C133  C171  1.415806 A    
C57   C161  1.463254 S    
C134  C172  1.415811 A    
O11   C7    1.276947 A    
N22   O91   1.301423 A    
C27   N11   1.438884 S    
C34   C46   1.410867 A    
C73   O49   1.349598 S    
O45   Zn11  2.017870 S    
O4    C4    1.277169 A    
O45   C69   1.276896 A    
C120  H24   1.083107 S    
N13   O73   1.301398 A    
C19   C35   1.384799 A    
C151  C163  1.397879 A    
C116  H20   1.083107 S    
N32   O111  1.301173 A    
C13   H5    1.084023 S    
C131  C147  1.397262 A    
C132  C148  1.397562 A    
O10   Zn3   2.018105 S    
C21   C53   1.393450 A    
C145  C161  1.398108 A    
C142  C158  1.397257 A    
C99   C123  1.404223 A    
C30   N14   1.438900 S    
N23   O93   1.301421 A    
C129  C145  1.397262 A    
C14   C30   1.384781 A    
O4    Zn1   2.018103 S    
N2    C171  1.432540 S    
O27   Zn11  2.014213 S    
C133  N29   1.440985 S    
C76   O52   1.349595 S    
O25   Zn9   2.014213 S    
O7    Zn2   2.018082 S    
C102  C112  1.408814 A    
C80   N4    1.369209 A    
C26   N10   1.438901 S    
N39   O125  1.301175 A    
C74   N2    1.369188 A    
N10   O67   1.301422 A    
O13   C7    1.277164 A    
C133  C149  1.397534 A    
C24   C40   1.384840 A    
C13   C49   1.393418 A    
N12   O72   1.300456 A    
C15   C51   1.393416 A    
C25   C41   1.411045 A    
O7    C1    1.277012 A    
C135  C171  1.415805 A    
C136  C172  1.415811 A    
C77   O53   1.349612 S    
O34   C66   1.276912 A    
C23   H15   1.084027 S    
C17   H9    1.084024 S    
C150  H38   1.083393 S    
C37   N21   1.438901 S    
C131  C169  1.415714 A    
C81   O57   1.349611 S    
N26   O99   1.301180 A    
C86   O62   1.349596 S    
C35   C47   1.411234 A    
N9    O66   1.300425 A    
C9    C25   1.384844 A    
C116  C127  1.393811 A    
O22   C60   1.286960 A    
C89   C113  1.404259 A    
O18   Zn6   2.014213 S    
C11   C27   1.384844 A    
C73   N1    1.369190 A    
C12   C28   1.384715 A    
C40   C46   1.411039 A    
N15   O78   1.300239 A    
C82   N6    1.369154 A    
C75   N1    1.369191 A    
O39   C67   1.276933 A    
C98   C122  1.404289 A    
C139  C173  1.415806 A    
C152  C164  1.397878 A    
C28   N12   1.438901 S    
C94   C108  1.408768 A    
C15   C31   1.384445 A    
C6    C55   1.432354 S    
O23   C59   1.286955 A    
C39   N23   1.438899 S    
C79   O55   1.349610 S    
C158  H46   1.083398 S    
C91   C115  1.404261 A    
C106  C111  1.408613 A    
C95   C119  1.404307 A    
C93   C117  1.404307 A    
C88   N8    1.369188 A    
C40   N24   1.438884 S    
C156  C166  1.397896 A    
C97   C109  1.408768 A    
C62   C166  1.462872 S    
N40   O127  1.301184 A    
C129  C169  1.415712 A    
C61   C165  1.462839 S    
C20   C36   1.384439 A    
O29   C63   1.287146 A    
C38   C48   1.411042 A    
N35   O118  1.301529 A    
C14   H6    1.084025 S    
C76   N2    1.369188 A    
C113  H17   1.083108 S    
C30   C44   1.411242 A    
C119  C124  1.393802 A    
O12   C8    1.277032 A    
O1    C1    1.277051 A    
C10   H2    1.084027 S    
C142  N38   1.440935 S    
O14   C6    1.277054 A    
O44   C72   1.276937 A    
O41   Zn9   2.018890 S    
O6    Zn2   2.018103 S    
C100  C110  1.408830 A    
N30   O108  1.301530 A    
O47   Zn9   2.017868 S    
O47   C71   1.276896 A    
C21   C37   1.384712 A    
C144  C160  1.397257 A    
C145  H33   1.083400 S    
N14   O76   1.300452 A    
N24   O95   1.301424 A    
C131  N27   1.440934 S    
C7    C56   1.432391 S    
C138  N34   1.440986 S    
O32   Zn12  2.014219 S    
O17   C57   1.287067 A    
N29   O106  1.301528 A    
N11   O70   1.300423 A    
C77   C95   1.399841 A    
N7    C174  1.432540 S    
O19   Zn7   2.014213 S    
C78   C96   1.399638 A    
C12   H4    1.084027 S    
O28   Zn12  2.014214 S    
C47   C71   1.429322 S    
C141  N37   1.441014 S    
O10   C6    1.277032 A    
C45   C69   1.429322 S    
C58   C162  1.462151 S    
N16   O80   1.300449 A    
C154  H42   1.083388 S    
O21   C59   1.286957 A    
N20   O88   1.300240 A    
C140  C174  1.415796 A    
O48   C70   1.276916 A    
C149  C163  1.397882 A    
C150  C164  1.397877 A    
C115  C128  1.393811 A    
C19   C55   1.393490 A    
N28   O103  1.301179 A    
C104  C112  1.408813 A    
C113  C126  1.393816 A    
C136  C152  1.397543 A    
C19   H11   1.084024 S    
C137  C153  1.397547 A    
C20   H12   1.084023 S    
C118  C121  1.393711 A    
N8    C173  1.432554 S    
N27   O101  1.301183 A    
C146  C162  1.397651 A    
O13   Zn4   2.018084 S    
C143  C159  1.397542 A    
N21   O90   1.300453 A    
C87   N7    1.369187 A    
C130  C146  1.397562 A    
C123  H27   1.083107 S    
N11   O69   1.301422 A    
N25   O98   1.301528 A    
C11   H3    1.084005 S    
C77   N3    1.369215 A    
C28   C44   1.411235 A    
C78   N4    1.369209 A    
C148  C162  1.397654 A    
C92   C116  1.404255 A    
N26   O100  1.301557 A    
C160  C168  1.398111 A    
C26   C42   1.411234 A    
N17   O82   1.300463 A    
C32   C42   1.411242 A    
O35   Zn7   2.018888 S    
C22   C38   1.384840 A    
C1    C50   1.432309 S    
C60   C164  1.462811 S    
C127  H31   1.083103 S    
O3    Zn1   2.018082 S    
C143  N39   1.441015 S    
N38   O123  1.301186 A    
C134  C150  1.397544 A    
N18   O84   1.300241 A    
C3    C52   1.432309 S    
O44   Zn12  2.017848 S    
C134  N30   1.440988 S    
O41   C69   1.276960 A    
O20   C58   1.286780 A    
O18   C58   1.286781 A    
O35   C67   1.276912 A    
O30   C64   1.287077 A    
O36   C68   1.276912 A    
O33   Zn5   2.018890 S    
C157  C167  1.398147 A    
C119  H23   1.083148 S    
C158  C168  1.398109 A    
N37   O122  1.301562 A    
C117  H21   1.083148 S    
N19   O85   1.301420 A    
C18   H10   1.084024 S    
C120  C123  1.393711 A    
C151  H39   1.083391 S    
N22   O92   1.300425 A    
C147  C161  1.398111 A    
C31   C43   1.410867 A    
C14   C52   1.393465 A    
C121  H25   1.083107 S    
C141  C175  1.415702 A    
C142  C176  1.415716 A    
C90   C106  1.408816 A    
O24   C60   1.286958 A    
C10   C26   1.384715 A    
O19   C57   1.287068 A    
N4    C169  1.432455 S    
C139  N35   1.440988 S    
N32   O112  1.301530 A    
O17   Zn5   2.014213 S    
O9    Zn3   2.018080 S    
C38   N22   1.438884 S    
C83   N5    1.369209 A    
C96   C120  1.404223 A    
N23   O94   1.300453 A    
C155  H43   1.083391 S    
N36   O119  1.301170 A    
O5    C3    1.277013 A    
O40   C66   1.276969 A    
C43   C67   1.429348 S    
C44   C68   1.429337 S    
C17   C53   1.393491 A    
O32   C64   1.287075 A    
C21   H13   1.084025 S    
N15   O77   1.301402 A    
C85   C103  1.399852 A    
C159  H47   1.083368 S    
N1    C172  1.432554 S    
C86   C104  1.399857 A    
C39   C47   1.411227 A    
O15   Zn4   2.018082 S    
C24   H16   1.084006 S    
C147  H35   1.083398 S    
C129  N25   1.440934 S    
C99   C109  1.408768 A    
N10   O68   1.300456 A    
O31   C63   1.287144 A    
O2    Zn1   2.018105 S    
C33   C45   1.411230 A    
O5    Zn2   2.018084 S    
C130  C170  1.415912 A    
C132  N28   1.441003 S    
N33   O114  1.301529 A    
C81   C99   1.399638 A    
C82   C100  1.399845 A    
C79   C93   1.399841 A    
C12   C52   1.393441 A    
O16   Zn4   2.018101 S    
C74   C92   1.399852 A    
C75   C89   1.399852 A    
O2    C2    1.277168 A    
O37   Zn7   2.017870 S    
C8    C53   1.432354 S    
C124  H28   1.083148 S    
C153  C165  1.397886 A    
O42   Zn10  2.017850 S    
C13   C29   1.384445 A    
C139  C155  1.397542 A    
N9    O65   1.301422 A    
C140  C156  1.397537 A    
O8    C4    1.276951 A    
C152  H40   1.083393 S    
C153  H41   1.083390 S    
O27   C61   1.286959 A    
O31   Zn9   2.014217 S    
O20   Zn8   2.014214 S    
C146  H34   1.083449 S    
O21   Zn7   2.014217 S    
C92   C106  1.408815 A    
C36   N20   1.438316 S    
N13   O74   1.300240 A    
N34   O115  1.301169 A    
C138  C174  1.415797 A    
C140  N36   1.440984 S    
C10   C50   1.393442 A    
C76   C90   1.399852 A    
O16   C8    1.277054 A    
C135  N31   1.440988 S    
N27   O102  1.301528 A    
O43   C71   1.276960 A    
C84   C98   1.399845 A    
C85   O61   1.349596 S    
N31   O110  1.301528 A    
O6    C2    1.276952 A    
C90   C114  1.404255 A    
O48   Zn12  2.018870 S    
C155  C165  1.397885 A    
C80   O56   1.349611 S    
C96   C108  1.408768 A    
C138  C154  1.397537 A    
C23   C55   1.393450 A    
C85   N7    1.369186 A    
C97   C121  1.404222 A    
N12   O71   1.301423 A    
N5    C176  1.432455 S    
C25   N9    1.438884 S    
N6    C175  1.432479 S    
C86   N8    1.369188 A    
C88   O64   1.349597 S    
C33   N17   1.438919 S    
C20   C56   1.393416 A    
C64   C168  1.463258 S    
O28   C62   1.286975 A    
N19   O86   1.300463 A    
N24   O96   1.300426 A    
C94   C118  1.404222 A    
C11   C51   1.393725 A    
C78   O54   1.349611 S    
O38   Zn6   2.018868 S    
C24   C54   1.393724 A    
N29   O105  1.301168 A    
O42   C70   1.276937 A    
C103  C111  1.408816 A    
C9    C49   1.393724 A    
O34   Zn6   2.017850 S    
C16   H8    1.084026 S    
C91   C105  1.408815 A    
C114  H18   1.083106 S    
C156  H44   1.083387 S    
C141  C157  1.397542 A    
C2    C51   1.432404 S    
O30   Zn10  2.014219 S    
C87   C101  1.399852 A    
O37   C65   1.276933 A    
C108  C109  1.408392 A    
C102  C126  1.404256 A    
C128  H32   1.083110 S    
O26   Zn10  2.014213 S    
C137  C173  1.415804 A    
O29   Zn11  2.014217 S    
N3    C170  1.432649 S    
C83   O59   1.349611 S    
C89   C105  1.408814 A    
C148  H36   1.083447 S    
C35   N19   1.438916 S    
C74   O50   1.349595 S    
N28   O104  1.301557 A    
C34   N18   1.438316 S    
C160  H48   1.083398 S    
O15   C5    1.277164 A    
C48   C72   1.429330 S    
C82   O58   1.349609 S    
C84   N6    1.369155 A    
C100  C124  1.404289 A    
O40   Zn8   2.018870 S    
O14   Zn4   2.018103 S    
N21   O89   1.301419 A    
C32   N16   1.438901 S    
O22   Zn6   2.014219 S    
O43   Zn11  2.018888 S    
