data_mof_unit_5855.cif
_audit_creation_date              2012-12-11T16:48:34-0500
_audit_creation_method            fapswitch 2.2
_symmetry_space_group_name_H-M    P1
_symmetry_Int_Tables_number       1
_space_group_crystal_system       triclinic
_cell_length_a                    17.406292
_cell_length_b                    24.544356
_cell_length_c                    14.90829
_cell_angle_alpha                 89.641147
_cell_angle_beta                  125.352923
_cell_angle_gamma                 90.622413
_cell_volume                      5194.44540427

loop_
_atom_site_label
_atom_site_type_symbol
_atom_type_description
_atom_site_fract_x
_atom_site_fract_y
_atom_site_fract_z
_atom_type_partial_charge
C1    C     C_R   0.356611 0.347847 0.907702 -0.182809
C2    C     C_R   0.437387 0.499236 0.633567 0.067164
C3    C     C_R   0.055248 0.848630 0.907473 0.053872
C4    C     C_R   0.387075 0.314655 0.996380 0.058469
C5    C     C_R   0.678693 0.352483 0.001173 0.048894
C6    C     C_R   0.880591 0.815968 0.997759 0.042105
C7    C     C_R   0.122228 0.819465 0.997537 0.056939
C8    C     C_1   0.403203 0.348550 0.344276 0.098591
C9    C     C_1   0.562224 0.410714 0.613409 0.119891
C10   C     C_1   0.015142 0.875728 0.448919 0.111717
C11   C     C_1   0.219590 0.879421 0.739220 0.103298
C12   C     C_1   0.516349 0.326349 0.199117 -0.010345
C13   C     C_R   0.058533 0.000951 0.363966 0.061207
C14   C     C_1   0.542009 0.338911 0.804415 -0.001019
C15   C     C_1   0.009195 0.827428 0.200605 -0.011060
C16   C     C_1   0.983133 0.825959 0.801626 -0.015105
C17   C     C_R   0.048200 0.000686 0.722405 0.064454
C18   C     C_R   0.200246 0.498845 0.634877 0.134688
C19   C     C_R   0.820761 0.498776 0.333429 0.132691
C20   C     C_R   0.701601 0.998612 0.633548 0.129714
C21   C     C_R   0.324813 0.998650 0.308946 0.136223
C22   C     C_2   0.968965 0.458633 0.395052 -0.102451
C23   C     C_2   0.070538 0.454743 0.472362 -0.118588
C24   C     C_2   0.476196 0.958290 0.378738 -0.111363
C25   C     C_R   0.683839 0.370569 0.091603 -0.163220
C26   C     C_2   0.576738 0.954430 0.465466 -0.112829
C27   C     C_2   0.921714 0.497499 0.407017 -0.178279
C28   C     C_2   0.121372 0.499827 0.520438 -0.191245
C29   C     C_2   0.426082 0.998989 0.380141 -0.170569
C30   C     C_2   0.626892 0.999425 0.516952 -0.190356
C31   C     C_R   0.317290 0.725525 0.098023 0.080366
C32   C     C_R   0.719585 0.697633 0.889467 0.076191
C33   C     C_R   0.867580 0.251682 0.106392 0.074262
C34   C     C_R   0.215204 0.203990 0.890489 0.074420
C35   C     C_R   0.318564 0.720269 0.005567 -0.062314
C36   C     C_R   0.851805 0.848644 0.908192 -0.174957
C37   C     C_R   0.751902 0.669378 0.986909 -0.053823
C38   C     C_R   0.855318 0.235919 0.008965 -0.054899
C39   C     C_R   0.243783 0.179492 0.990013 -0.053396
C40   C     C_R   0.260824 0.752828 0.912520 0.514144
C41   C     C_R   0.846784 0.676468 0.076826 0.515727
C42   C     C_R   0.810003 0.271929 0.918338 0.512714
C43   C     C_R   0.340018 0.182436 0.078721 0.521493
C44   C     C_R   0.757530 0.315033 0.919029 -0.369205
C45   C     C_R   0.396814 0.222435 0.075046 -0.382507
C46   C     C_R   0.192879 0.784103 0.908463 -0.367992
C47   C     C_R   0.150283 0.849506 0.089746 -0.168465
C48   C     C_R   0.897481 0.721613 0.076040 -0.389247
C49   C     C_R   0.751919 0.320938 0.008692 0.017038
C50   C     C_R   0.356087 0.258323 0.985092 0.012049
C51   C     C_R   0.182815 0.781979 0.995541 0.018848
C52   C     C_R   0.852155 0.758771 0.987715 0.018824
C53   C     C_R   0.435636 0.647590 0.091291 -0.180333
C54   C     C_R   0.596614 0.623413 0.906454 -0.157206
C55   C     C_R   0.941611 0.149476 0.091924 -0.164151
C56   C     C_R   0.087356 0.135228 0.908196 -0.150986
C57   C     C_R   0.816639 0.293680 0.106292 0.149057
C58   C     C_R   0.364262 0.674276 0.000167 0.133306
C59   C     C_R   0.270583 0.243004 0.887854 0.160485
C60   C     C_R   0.250169 0.756228 0.092767 0.142183
C61   C     C_R   0.768961 0.741681 0.889995 0.161116
C62   C     C_3   0.803386 0.265479 0.185897 -0.492257
C63   C     C_3   0.186404 0.276071 0.804158 -0.490709
C64   C     C_3   0.236625 0.717387 0.159849 -0.473715
C65   C     C_3   0.681045 0.772428 0.809087 -0.487919
C66   C     C_3   0.311129 0.682828 0.166294 -0.488909
C67   C     C_3   0.626628 0.724101 0.808443 -0.480102
C68   C     C_3   0.859461 0.219078 0.186032 -0.469899
C69   C     C_R   0.683771 0.639659 0.995863 0.120466
C70   C     C_3   0.125966 0.232843 0.806701 -0.482572
C71   C     C_R   0.403444 0.447901 0.471616 0.055637
C72   C     C_R   0.398527 0.446566 0.375947 0.082603
C73   C     C_R   0.124900 0.957490 0.640857 0.099758
C74   C     C_R   0.116733 0.956494 0.544035 0.069644
C75   C     C_R   0.403381 0.497217 0.518213 0.052720
C76   C     C_R   0.401464 0.495593 0.329000 0.043675
C77   C     C_R   0.097044 0.003527 0.669204 0.040367
C78   C     C_R   0.094112 0.003078 0.479428 0.043008
C79   C     C_R   0.380415 0.544775 0.454551 -0.184273
C80   C     C_R   0.878376 0.180384 0.001578 0.114560
C81   C     C_R   0.379487 0.543968 0.359867 -0.183467
C82   C     C_R   0.099616 0.053304 0.623058 -0.184274
C83   C     C_R   0.097574 0.053047 0.528018 -0.187900
C84   C     C_3   0.457893 0.396065 0.412458 -0.239005
C85   C     C_3   0.464973 0.398538 0.518525 -0.232945
C86   C     C_3   0.110411 0.895667 0.536187 -0.241692
C87   C     C_3   0.124901 0.896729 0.647915 -0.258872
C88   C     C_R   0.474415 0.453444 0.240957 -0.145536
C89   C     C_R   0.449344 0.454368 0.696040 -0.115260
C90   C     C_R   0.048116 0.955114 0.304001 -0.118494
C91   C     C_R   0.173748 0.152023 0.997875 0.109807
C92   C     C_R   0.023000 0.954708 0.754789 -0.124516
C93   C     C_R   0.246158 0.544524 0.697110 -0.156822
C94   C     C_R   0.766287 0.544708 0.287106 -0.112679
C95   C     C_R   0.746847 0.044370 0.696304 -0.150772
C96   C     C_R   0.269127 0.044495 0.274817 -0.115345
C97   C     C_R   0.479674 0.544339 0.248844 -0.119004
C98   C     C_R   0.453165 0.544710 0.696696 -0.137220
C99   C     C_R   0.042085 0.045792 0.299048 -0.123099
C100  C     C_R   0.010875 0.045047 0.740946 -0.111945
C101  C     C_R   0.246588 0.453496 0.698381 -0.111774
C102  C     C_R   0.446748 0.498071 0.271470 0.057754
C103  C     C_R   0.763853 0.453622 0.286436 -0.133696
C104  C     C_R   0.747323 0.953398 0.697797 -0.106561
C105  C     C_R   0.267281 0.953063 0.266973 -0.129047
C106  C     C_R   0.338867 0.645667 0.907146 -0.087822
C107  C     C_R   0.687719 0.627542 0.089959 -0.076426
C108  C     C_R   0.848246 0.149886 0.908547 -0.088960
C109  C     C_R   0.181533 0.134242 0.091251 -0.064122
C110  C     C_R   0.447065 0.346032 0.089781 0.065253
C111  C     C_R   0.590942 0.366819 0.908222 0.078307
C112  C     C_R   0.942921 0.847230 0.090714 0.092500
H1    H     H_    0.322230 0.335309 0.823190 0.115986
H2    H     H_    0.468368 0.228140 0.145769 0.157267
H3    H     H_    0.148489 0.809630 0.837308 0.142653
H4    H     H_    0.968078 0.729161 0.147215 0.157243
H5    H     H_    0.840597 0.286797 0.266468 0.183581
H6    H     H_    0.181568 0.315770 0.836094 0.206247
H7    H     H_    0.259701 0.735058 0.240382 0.185024
H8    H     H_    0.672350 0.809612 0.844569 0.204464
H9    H     H_    0.728630 0.254371 0.149300 0.202606
H10   H     H_    0.177180 0.278176 0.723921 0.183283
H11   H     H_    0.165446 0.698075 0.112281 0.199787
H12   H     H_    0.740374 0.364207 0.176113 0.111759
H13   H     H_    0.671316 0.778490 0.729140 0.185394
H14   H     H_    0.377100 0.680363 0.250801 0.181349
H15   H     H_    0.586662 0.733594 0.843514 0.206191
H16   H     H_    0.928598 0.213845 0.266604 0.183789
H17   H     H_    0.087208 0.247732 0.840289 0.208576
H18   H     H_    0.283413 0.643068 0.123110 0.201825
H19   H     H_    0.585587 0.702577 0.727986 0.187761
H20   H     H_    0.817071 0.181064 0.149626 0.203217
H21   H     H_    0.082660 0.209989 0.727916 0.184952
H22   H     H_    0.373681 0.583529 0.483403 0.121607
H23   H     H_    0.815301 0.835641 0.823647 0.121123
H24   H     H_    0.373437 0.582287 0.320168 0.124988
H25   H     H_    0.091662 0.092087 0.650549 0.121024
H26   H     H_    0.088200 0.091669 0.487944 0.120247
H27   H     H_    0.526526 0.401298 0.423627 0.147798
H28   H     H_    0.431057 0.363865 0.531791 0.144545
H29   H     H_    0.167770 0.876804 0.535265 0.143265
H30   H     H_    0.066791 0.877155 0.646910 0.134228
H31   H     H_    0.478079 0.661834 0.175473 0.109141
H32   H     H_    0.570121 0.625669 0.820976 0.116571
H33   H     H_    0.988795 0.163144 0.176118 0.106725
H34   H     H_    0.197800 0.837286 0.174777 0.107303
H35   H     H_    0.053566 0.147105 0.824455 0.106078
H36   H     H_    0.454213 0.411835 0.238523 0.120828
H37   H     H_    0.423253 0.413912 0.664913 0.102722
H38   H     H_    0.073583 0.915118 0.336582 0.116182
H39   H     H_    0.041849 0.913472 0.754921 0.102593
H40   H     H_    0.235069 0.586068 0.667646 0.098068
H41   H     H_    0.787906 0.586220 0.314314 0.096202
H42   H     H_    0.736646 0.085827 0.666547 0.100850
H43   H     H_    0.292926 0.085657 0.302478 0.103415
H44   H     H_    0.470782 0.586170 0.262425 0.091521
H45   H     H_    0.956929 0.529636 0.468040 0.134201
H46   H     H_    0.435431 0.586229 0.667685 0.086795
H47   H     H_    0.057243 0.088003 0.323835 0.085099
H48   H     H_    0.005350 0.085697 0.711493 0.083443
H49   H     H_    0.236827 0.411723 0.670973 0.081688
H50   H     H_    0.782197 0.412210 0.315527 0.092157
H51   H     H_    0.738628 0.911704 0.670287 0.087771
H52   H     H_    0.287848 0.910837 0.283270 0.093307
H53   H     H_    0.288616 0.655699 0.821461 0.149397
H54   H     H_    0.743911 0.637683 0.173411 0.138762
H55   H     H_    0.806038 0.163019 0.823787 0.154351
H56   H     H_    0.093386 0.539571 0.483840 0.141364
H57   H     H_    0.235308 0.145390 0.174983 0.136875
H58   H     H_    0.932174 0.426263 0.334772 0.123961
H59   H     H_    0.098713 0.414443 0.503479 0.118280
H60   H     H_    0.441533 0.923868 0.323457 0.125178
H61   H     H_    0.603047 0.914183 0.499214 0.119473
H62   H     H_    0.211509 0.767851 0.759964 0.314729
H63   H     H_    0.952027 0.653339 0.221943 0.314747
H64   H     H_    0.776125 0.291383 0.773114 0.319496
H65   H     H_    0.443284 0.157190 0.223295 0.315913
H66   H     H_    0.458919 0.032919 0.437045 0.133257
H67   H     H_    0.602160 0.039196 0.478742 0.138678
H68   H     H_    0.715687 0.340446 0.847018 0.158970
N1    N     N_R   0.395410 0.396350 0.944340 -0.049616
N2    N     N_R   0.474920 0.471030 0.794350 -0.043943
N3    N     N_R   0.025080 0.971030 0.205650 -0.045498
N4    N     N_R   0.974920 0.971030 0.794350 -0.042971
N5    N     N_R   0.320260 0.527820 0.794570 -0.042363
N6    N     N_R   0.679740 0.527820 0.205430 -0.046025
N7    N     N_R   0.820260 0.027820 0.794570 -0.044407
N8    N     N_R   0.179740 0.027820 0.205430 -0.047876
N9    N     N_R   0.524590 0.527840 0.205200 -0.041962
N10   N     N_R   0.475410 0.527840 0.794800 -0.038195
N11   N     N_R   0.024590 0.027840 0.205200 -0.042167
N12   N     N_R   0.604590 0.396350 0.055660 -0.049235
N13   N     N_R   0.975410 0.027840 0.794800 -0.041905
N14   N     N_R   0.320750 0.471000 0.795020 -0.043815
N15   N     N_R   0.679250 0.471000 0.204980 -0.040463
N16   N     N_R   0.820750 0.971000 0.795020 -0.044860
N17   N     N_R   0.179250 0.971000 0.204980 -0.044081
N18   N     N_R   0.393620 0.602490 0.942710 -0.054273
N19   N     N_R   0.606380 0.602490 0.057290 -0.054758
N20   N     N_R   0.893620 0.102490 0.942710 -0.053799
N21   N     N_R   0.106380 0.102490 0.057290 -0.055078
N22   N     N_R   0.451720 0.396350 0.057510 -0.063060
N23   N     N_R   0.895410 0.896350 0.944340 -0.050824
N24   N     N_R   0.548280 0.396350 0.942490 -0.063732
N25   N     N_R   0.951720 0.896350 0.057510 -0.063039
N26   N     N_R   0.048280 0.896350 0.942490 -0.059885
N27   N     N_1   0.360336 0.311231 0.290593 -0.084489
N28   N     N_1   0.638453 0.420465 0.687570 -0.095682
N29   N     N_1   0.940337 0.860104 0.380567 -0.081447
N30   N     N_1   0.294854 0.867024 0.811299 -0.052280
N31   N     N_1   0.572336 0.310911 0.287245 -0.095008
N32   N     N_1   0.503072 0.315307 0.722133 -0.103651
N33   N     N_1   0.062909 0.811205 0.288777 -0.107569
N34   N     N_R   0.104590 0.896350 0.055660 -0.047945
N35   N     N_1   0.925208 0.807810 0.716664 -0.095123
N36   N     N_R   0.449930 0.602500 0.055880 -0.043029
N37   N     N_R   0.550070 0.602500 0.944120 -0.042357
N38   N     N_R   0.949930 0.102500 0.055880 -0.043076
N39   N     N_R   0.050070 0.102500 0.944120 -0.041076
N40   N     N_R   0.525080 0.471030 0.205650 -0.041534
Ni1   Ni    Ni4+2 0.435420 0.434270 0.870230 0.208562
Ni2   Ni    Ni4+2 0.564580 0.434270 0.129770 0.223514
Ni3   Ni    Ni4+2 0.935420 0.934270 0.870230 0.218843
Ni4   Ni    Ni4+2 0.064580 0.934270 0.129770 0.216854
Ni5   Ni    Ni4+2 0.563430 0.564580 0.128740 0.213746
Ni6   Ni    Ni4+2 0.436570 0.564580 0.871260 0.215887
Ni7   Ni    Ni4+2 0.063430 0.064580 0.128740 0.207973
Ni8   Ni    Ni4+2 0.936570 0.064580 0.871260 0.219084
O1    O     O_3   0.268479 0.751389 0.825414 -0.778932
O2    O     O_3   0.885782 0.642049 0.166358 -0.773054
O3    O     O_3   0.812198 0.262501 0.828694 -0.782020
O4    O     O_3   0.375231 0.149164 0.169326 -0.778097

loop_
_geom_bond_atom_site_label_1
_geom_bond_atom_site_label_2
_ccdc_geom_bond_type
C44   C49   A    
C31   C66   S    
C54   H32   S    
N6    Ni5   S    
C13   C99   A    
C34   C70   S    
N7    Ni8   S    
C99   H47   S    
N7    N16   A    
N4    Ni3   S    
N20   N38   A    
C73   C74   A    
C96   N8    A    
N1    N22   A    
N19   N37   A    
N5    N14   A    
C15   N33   T    
N17   Ni4   S    
N18   N36   A    
C44   H68   S    
H65   O4    S    
N40   Ni2   S    
C69   C107  A    
C95   N7    A    
C57   C62   S    
C20   C30   S    
C100  N13   A    
C40   C46   A    
N23   N25   A    
C33   C68   S    
C64   H7    S    
C1    H1    S    
C46   H3    S    
C81   H24   S    
C35   C58   S    
C50   C59   A    
C77   C82   A    
C24   C26   S    
C32   C61   A    
C38   C42   A    
C82   H25   S    
C3    C7    A    
C52   C61   A    
C11   N30   T    
C13   C90   A    
C55   H33   S    
C96   H43   S    
N13   Ni8   S    
N5    Ni6   S    
N4    N13   A    
C47   N34   A    
C49   C57   A    
N20   Ni8   S    
C97   H44   S    
C68   H20   S    
N22   Ni2   S    
C24   C29   D    
C73   C87   S    
C62   H5    S    
C9    C85   S    
C71   C85   S    
C19   C103  A    
C78   C83   A    
C65   H8    S    
C56   C91   A    
C98   H46   S    
C84   H27   S    
C11   C87   S    
N3    Ni4   S    
C65   C67   S    
C110  N22   A    
C70   H21   S    
N11   Ni7   S    
C30   H67   S    
C36   N23   A    
N39   Ni8   S    
C19   C27   S    
C68   H16   S    
C97   C102  A    
N9    N40   A    
C90   H38   S    
N37   Ni6   S    
C106  N18   A    
C42   O3    S    
N8    Ni7   S    
C105  N17   A    
C47   H34   S    
C101  H49   S    
H63   O2    S    
C8    C84   S    
C53   H31   S    
C5    C49   S    
N26   N34   A    
C17   C92   A    
C42   C44   A    
C104  H51   S    
C45   H2    S    
C39   C91   S    
H62   O1    S    
C109  H57   S    
C93   H40   S    
C55   N38   A    
C76   C102  S    
C14   C111  S    
C67   H19   S    
C89   H37   S    
C71   C75   A    
C107  N19   A    
N1    Ni1   S    
C34   C39   A    
C106  H53   S    
N6    N15   A    
C18   C28   S    
C84   C85   S    
N21   N39   A    
C92   N4    A    
C103  N15   A    
C63   H6    S    
C1    N1    A    
C43   O4    S    
C83   H26   S    
C39   C43   A    
C5    C111  A    
C26   H61   S    
C23   C28   D    
H64   O3    S    
C21   C29   S    
C46   C51   A    
C25   N12   A    
C70   H17   S    
C66   H14   S    
C4    C50   S    
C58   C106  A    
C18   C101  A    
C65   H13   S    
C31   C60   A    
C108  N20   A    
C16   N35   T    
C3    C16   S    
C67   H15   S    
C76   C81   A    
C43   C45   A    
C37   C69   S    
C100  H48   S    
C10   N29   T    
C61   C65   S    
C63   C70   S    
C48   C52   A    
N26   Ni3   S    
C8    N27   T    
C92   H39   S    
C17   C77   S    
C104  N16   A    
C105  H52   S    
N23   Ni3   S    
C72   C76   A    
C22   H58   S    
C32   C37   A    
C74   C86   S    
N19   Ni5   S    
C85   H28   S    
C25   H12   S    
C72   C84   S    
C19   C94   A    
N34   Ni4   S    
C98   N10   A    
C32   C67   S    
C5    C25   A    
C20   C95   A    
C26   C30   D    
C53   N36   A    
C29   H66   S    
N14   Ni1   S    
C22   C27   D    
C31   C35   A    
C51   C60   A    
C36   H23   S    
N38   Ni7   S    
C63   H10   S    
C101  N14   A    
C86   C87   S    
C54   N37   A    
C79   C81   A    
N21   Ni7   S    
C79   H22   S    
C4    C110  A    
C13   C78   S    
C10   C86   S    
C103  H50   S    
C33   C57   A    
N12   N24   A    
N10   Ni6   S    
C3    N26   A    
C6    C112  A    
C15   C112  S    
C108  H55   S    
N9    Ni5   S    
C94   N6    A    
C12   N31   T    
N2    Ni1   S    
C9    N28   T    
N3    N11   A    
C111  N24   A    
C112  N25   A    
N15   Ni2   S    
C88   C102  A    
C53   C58   A    
C90   N3    A    
C20   C104  A    
C21   C96   A    
C62   C68   S    
C27   H45   S    
C64   H11   S    
C7    C47   A    
C80   C108  A    
N25   Ni4   S    
C59   C63   S    
N36   Ni5   S    
C48   H4    S    
C60   C64   S    
C1    C4    A    
C89   N2    A    
C95   H42   S    
C56   H35   S    
C109  N21   A    
C35   C40   A    
C7    C51   S    
C14   N32   T    
C99   N11   A    
C55   C80   A    
C88   H36   S    
C91   C109  A    
C34   C59   A    
C54   C69   A    
C38   C80   S    
N8    N17   A    
C94   H41   S    
C12   C110  S    
C97   N9    A    
C41   C48   A    
C6    C36   A    
C56   N39   A    
C87   H30   S    
C37   C41   A    
C24   H60   S    
C17   C100  A    
C107  H54   S    
N16   Ni3   S    
C28   H56   S    
N12   Ni2   S    
C2    C89   A    
C88   N40   A    
C71   C72   A    
C23   H59   S    
C41   O2    S    
C2    C98   A    
C82   C83   A    
C74   C78   A    
C18   C93   A    
C73   C77   A    
C22   C23   S    
C33   C38   A    
C45   C50   A    
N2    N10   A    
C6    C52   S    
C40   O1    S    
C75   C79   A    
C62   H9    S    
C21   C105  A    
C2    C75   S    
N18   Ni6   S    
C86   H29   S    
C64   C66   S    
C66   H18   S    
N24   Ni1   S    
C93   N5    A    
