data_mof_unit_46132.cif
_audit_creation_date              2012-12-10T17:36:50-0500
_audit_creation_method            fapswitch 2.2
_symmetry_space_group_name_H-M    P1
_symmetry_Int_Tables_number       1
_space_group_crystal_system       triclinic
_cell_length_a                    10.611712
_cell_length_b                    12.333509
_cell_length_c                    13.208618
_cell_angle_alpha                 116.740867
_cell_angle_beta                  77.451517
_cell_angle_gamma                 101.421889
_cell_volume                      1496.97012767

loop_
_atom_site_label
_atom_site_type_symbol
_atom_type_description
_atom_site_fract_x
_atom_site_fract_y
_atom_site_fract_z
_atom_type_partial_charge
C1    C     C_R   0.511459 0.854844 0.286643 0.790643
C2    C     C_3   0.013074 0.908689 0.525006 -0.209113
C3    C     C_3   0.954673 0.891327 0.420235 -0.242353
C4    C     C_3   0.877412 0.999685 0.499221 -0.054707
C5    C     C_R   0.323493 0.276054 0.020509 -0.184276
C6    C     C_R   0.453181 0.228052 0.834380 -0.050177
C7    C     C_R   0.598070 0.815194 0.085646 -0.171692
C8    C     C_R   0.623890 0.736305 0.970758 -0.141761
C9    C     C_R   0.577277 0.613070 0.932829 -0.181717
C10   C     C_R   0.498795 0.566597 0.009370 0.077263
C11   C     C_R   0.459960 0.650281 0.123684 0.082952
C12   C     C_R   0.740439 0.999601 0.499513 0.806288
C13   C     C_R   0.456396 0.440049 0.975939 0.074104
C14   C     C_R   0.366212 0.400720 0.052722 0.161510
C15   C     C_R   0.317310 0.486338 0.159693 -0.242730
C16   C     C_R   0.361978 0.609376 0.194154 -0.181052
C17   C     C_R   0.501912 0.350974 0.868611 -0.253096
C18   C     C_R   0.366088 0.190020 0.911360 -0.192653
C19   C     C_R   0.519191 0.773028 0.163677 -0.086011
C20   C     C_R   0.707446 0.346984 0.328870 -0.298068
C21   C     C_R   0.324058 0.759345 0.645223 0.074391
C22   C     C_R   0.285945 0.662869 0.676897 -0.250103
C23   C     C_R   0.480707 0.145122 0.713346 0.789057
C24   C     C_R   0.352143 0.559596 0.622247 -0.189480
C25   C     C_R   0.458090 0.551507 0.534636 -0.006401
C26   C     C_R   0.493819 0.653066 0.505284 0.288378
C27   C     C_R   0.529924 0.447139 0.475307 -0.037535
C28   C     C_R   0.635338 0.446980 0.388428 0.175956
C29   C     C_R   0.668629 0.546628 0.361406 -0.281600
C30   C     C_R   0.599748 0.647208 0.418543 -0.178479
C31   C     C_R   0.502448 0.342086 0.497890 0.032557
C32   C     C_R   0.675487 0.246978 0.355244 0.075128
C33   C     C_R   0.259584 0.000151 0.500180 0.826490
C34   C     C_3   0.986580 0.090943 0.474568 -0.197588
C35   C     C_3   0.065171 0.982780 0.397486 0.656921
C36   C     C_3   0.122535 0.999772 0.500479 -0.072844
C37   C     C_3   0.044835 0.107775 0.579219 -0.252565
C38   C     C_3   0.933317 0.016872 0.603883 -0.129992
Cu1   Cu    Cu3+1 0.529830 0.098270 0.475420 0.952959
Cu2   Cu    Cu3+1 0.470170 0.901730 0.524580 0.922682
H1    H     H_    0.574715 0.374575 0.808751 0.147930
H2    H     H_    0.642668 0.909021 0.113870 0.152058
H3    H     H_    0.602012 0.557468 0.842566 0.129519
H4    H     H_    0.683903 0.770142 0.911136 0.141414
H5    H     H_    0.315765 0.671848 0.275629 0.179870
H6    H     H_    0.730767 0.169509 0.309567 0.122484
H7    H     H_    0.749373 0.547139 0.295184 0.150882
H8    H     H_    0.788151 0.346254 0.262328 0.136899
H9    H     H_    0.424112 0.334268 0.562339 0.120691
H10   H     H_    0.272126 0.839109 0.688188 0.124058
H11   H     H_    0.973893 0.164808 0.452753 0.152117
H12   H     H_    0.318459 0.487763 0.650281 0.135221
H13   H     H_    0.204772 0.668162 0.744094 0.148833
H14   H     H_    0.633625 0.718611 0.391606 0.204396
H15   H     H_    0.084655 0.195886 0.644212 0.148977
H16   H     H_    0.875636 0.030809 0.688816 0.139262
H17   H     H_    0.026306 0.834399 0.546009 0.158603
H18   H     H_    0.915314 0.803346 0.354751 0.138097
H19   H     H_    0.327005 0.094917 0.885701 0.152533
H20   H     H_    0.244187 0.458117 0.217215 0.147077
H21   H     H_    0.254358 0.245567 0.078630 0.144721
N1    N     N_R   0.575030 0.246270 0.438190 -0.180175
N2    N     N_R   0.425760 0.754330 0.561190 -0.207657
O1    O     O_R   0.537510 0.972500 0.318130 -0.569634
O2    O     O_R   0.487140 0.806530 0.359650 -0.612237
O3    O     O_R   0.708330 0.082950 0.479220 -0.588458
O4    O     O_R   0.657960 0.916980 0.520740 -0.596756
O5    O     O_R   0.512860 0.193470 0.640350 -0.591704
O6    O     O_R   0.462490 0.027500 0.681870 -0.587518
O7    O     O_R   0.342040 0.083020 0.479260 -0.562457
O8    O     O_R   0.291670 0.917050 0.520780 -0.604339
F1    F     F_    0.136574 0.965282 0.291524 -0.675993

loop_
_geom_bond_atom_site_label_1
_geom_bond_atom_site_label_2
_ccdc_geom_bond_type
C24   H12   S    
Cu2   O8    S    
C34   C37   S    
Cu1   O5    S    
C23   O6    A    
C35   C36   S    
C2    H17   S    
C7    C8    A    
Cu1   O1    S    
C30   H14   S    
C11   C19   A    
C34   H11   S    
C29   C30   A    
Cu2   N2    S    
C29   H7    S    
C36   C37   S    
C15   C16   A    
C33   C36   S    
C34   C35   S    
C15   H20   S    
C7    H2    S    
C6    C17   A    
C8    C9    A    
Cu2   O4    S    
C1    O2    A    
C4    C12   S    
C9    C10   A    
C21   C22   A    
C31   N1    A    
C31   H9    S    
C21   H10   S    
C22   H13   S    
C6    C18   A    
C12   O4    A    
C4    C34   S    
C9    H3    S    
C1    C19   S    
Cu2   O6    S    
C27   C31   A    
C24   C25   A    
Cu1   Cu2   S    
C5    C18   A    
C20   C28   A    
C25   C26   A    
C12   O3    A    
C23   O5    A    
C26   N2    A    
C37   C38   S    
C11   C16   A    
C2    C38   S    
C3    C35   S    
C5    H21   S    
C5    C14   A    
C20   H8    S    
C33   O7    A    
C4    C38   S    
C35   F1    S    
C26   C30   A    
C7    C19   A    
Cu2   O2    S    
Cu1   O3    S    
C22   C24   A    
C3    C4    S    
C1    O1    A    
C20   C32   A    
C2    C36   S    
Cu1   N1    S    
C28   C29   A    
C32   H6    S    
C8    H4    S    
C10   C13   A    
C16   H5    S    
C25   C27   A    
C13   C17   A    
C2    C3    S    
C32   N1    A    
C6    C23   S    
Cu1   O7    S    
C17   H1    S    
C21   N2    A    
C10   C11   A    
C33   O8    A    
C37   H15   S    
C3    H18   S    
C18   H19   S    
C38   H16   S    
C27   C28   A    
C14   C15   A    
C13   C14   A    
