data_mof_unit_28974.cif
_audit_creation_date              2013-03-05T16:35:50-0500
_audit_creation_method            fapswitch 2.2
_symmetry_space_group_name_H-M    P1
_symmetry_Int_Tables_number       1
_space_group_crystal_system       triclinic
_cell_length_a                    23.641038
_cell_length_b                    9.097733
_cell_length_c                    7.77521
_cell_angle_alpha                 89.992511
_cell_angle_beta                  90.001701
_cell_angle_gamma                 90.018592
_cell_volume                      1672.29090964

loop_
_atom_site_label
_atom_site_type_symbol
_atom_site_description
_atom_site_fract_x
_atom_site_fract_y
_atom_site_fract_z
_atom_type_partial_charge
O1    O     O_R   0.500000 0.288390 0.642760 -0.584555
O2    O     O_R   0.500000 0.711610 0.357240 -0.565352
O3    O     O_R   0.500000 0.711610 0.642760 -0.584555
O4    O     O_R   0.500000 0.288390 0.357240 -0.565294
H1    H     H_    0.948315 0.129387 0.517007 0.180976
H2    H     H_    0.051682 0.870758 0.514405 0.180931
H3    H     H_    0.948865 0.871146 0.490940 0.180524
H4    H     H_    0.051133 0.128938 0.493571 0.180476
C1    C     C_R   0.500025 0.219974 0.500011 0.896324
C2    C     C_R   0.499974 0.780026 0.499997 0.896264
O5    O     O_R   0.417880 0.500000 0.642820 -0.581029
O6    O     O_R   0.582120 0.500000 0.357180 -0.567573
O7    O     O_R   0.582120 0.500000 0.642820 -0.580993
O8    O     O_R   0.417880 0.500000 0.357180 -0.567612
C3    C     C_R   0.208373 0.499354 0.502091 0.190198
C4    C     C_R   0.791621 0.500747 0.502082 0.190176
C5    C     C_R   0.390647 0.499868 0.500007 0.855905
C6    C     C_R   0.609353 0.500133 0.500013 0.856040
Cu1   Cu    Cu3+1 0.500000 0.500000 0.669080 1.052424
Cu2   Cu    Cu3+1 0.500000 0.500000 0.330920 1.086053
C7    C     C_R   0.297561 0.578072 0.372042 -0.110157
C8    C     C_R   0.702439 0.421869 0.372152 -0.110112
C9    C     C_R   0.297992 0.420320 0.629004 -0.115161
C10   C     C_R   0.702005 0.579786 0.628938 -0.115088
C11   C     C_R   0.327825 0.499378 0.500240 -0.188111
C12   C     C_R   0.672173 0.500636 0.500259 -0.188117
C13   C     C_R   0.881411 0.630885 0.484508 0.602650
C14   C     C_R   0.118570 0.369164 0.485212 0.602556
C15   C     C_R   0.881200 0.370159 0.522416 0.600907
C16   C     C_R   0.118784 0.630016 0.521753 0.600946
N1    N     N_R   0.852742 0.500617 0.503141 -0.449344
N2    N     N_R   0.147247 0.499493 0.503163 -0.449176
C17   C     C_R   0.940385 0.366618 0.512934 -0.004435
C18   C     C_R   0.059599 0.633526 0.512120 -0.004365
C19   C     C_R   0.940585 0.633975 0.494891 -0.005449
C20   C     C_R   0.059398 0.366110 0.495737 -0.005425
C21   C     C_R   0.970189 0.500179 0.504027 -0.006324
C22   C     C_R   0.029793 0.499937 0.504036 -0.006313
C23   C     C_R   0.970359 0.233421 0.511582 -0.146480
C24   C     C_R   0.029630 0.766717 0.509791 -0.146440
C25   C     C_R   0.970751 0.766934 0.496469 -0.146809
C26   C     C_R   0.029237 0.233158 0.498276 -0.146779
C27   C     C_1   0.500009 0.065354 0.500035 -0.110432
C28   C     C_1   0.499990 0.934646 0.500016 -0.110426
C29   C     C_R   0.237876 0.572677 0.368962 -0.046635
C30   C     C_R   0.762123 0.427248 0.369116 -0.046378
C31   C     C_R   0.238306 0.425716 0.634008 -0.049364
C32   C     C_R   0.761694 0.574513 0.633870 -0.049222
N3    N     N_1   0.500000 0.500000 0.076820 -0.030595
N4    N     N_1   0.500000 0.500000 0.923180 -0.037248
O9    O     O_2   0.852687 0.756900 0.457066 -0.497236
O10   O     O_2   0.147282 0.243054 0.458304 -0.497284
O11   O     O_2   0.852248 0.244360 0.549303 -0.499778
O12   O     O_2   0.147726 0.755907 0.548091 -0.499916
C33   C     C_2   0.205574 0.646502 0.228834 0.943491
O13   O     O_2   0.166541 0.582191 0.158304 -0.541588
O14   O     O_R   0.218819 0.790589 0.180679 -0.703025
H5    H     H_    0.193624 0.828483 0.084926 0.357682
C34   C     C_2   0.794432 0.353155 0.229248 0.943240
O15   O     O_2   0.833385 0.417451 0.158263 -0.541446
O16   O     O_R   0.781275 0.208842 0.181846 -0.702930
H6    H     H_    0.806479 0.170728 0.086252 0.357597
C35   C     C_2   0.206446 0.351540 0.774770 0.940705
O17   O     O_2   0.168072 0.416290 0.847956 -0.542183
O18   O     O_R   0.219286 0.206619 0.820351 -0.699777
H7    H     H_    0.194383 0.168458 0.916678 0.358421
C36   C     C_2   0.793559 0.648952 0.774418 0.940632
O19   O     O_2   0.831958 0.584378 0.847721 -0.542061
O20   O     O_R   0.780675 0.793904 0.819704 -0.699877
H8    H     H_    0.805578 0.832255 0.915920 0.358378
C37   C     C_2   0.328116 0.667625 0.241654 0.952258
O21   O     O_2   0.360527 0.764673 0.287993 -0.578981
O22   O     O_R   0.319438 0.641457 0.066455 -0.710213
H9    H     H_    0.342637 0.709159 0.990586 0.343664
C38   C     C_2   0.671897 0.332242 0.241819 0.951994
O23   O     O_2   0.639420 0.235354 0.288214 -0.579022
O24   O     O_R   0.680675 0.358133 0.066599 -0.710276
H10   H     H_    0.657491 0.290377 0.990772 0.343712
C39   C     C_2   0.329219 0.328846 0.756062 0.953153
O25   O     O_2   0.322552 0.348815 0.910255 -0.536878
O26   O     O_R   0.366323 0.219890 0.698198 -0.745617
H11   H     H_    0.385350 0.165401 0.796131 0.340347
C40   C     C_2   0.670776 0.671186 0.756025 0.953026
O27   O     O_2   0.677474 0.651192 0.910210 -0.536966
O28   O     O_R   0.633640 0.780102 0.698207 -0.745589
H12   H     H_    0.614617 0.834540 0.796165 0.340340

loop_
_geom_bond_atom_site_label_1
_geom_bond_atom_site_label_2
_geom_bond_distance
_ccdc_geom_bond_type
C33   O13   1.222409 D    
C35   O18   1.398638 S    
C30   C34   1.490317 S    
O22   H9    1.013821 S    
C20   C26   1.404013 A    
Cu1   Cu2   2.629266 S    
C6    C12   1.485139 S    
C3    C31   1.414814 A    
C27   C28   1.189138 T    
C4    C32   1.414730 A    
O26   H11   1.013856 S    
C3    N2    1.445110 S    
O24   H10   1.013829 S    
C4    N1    1.444990 S    
C16   O12   1.349604 S    
O5    Cu1   1.952105 S    
C17   C23   1.404020 A    
O7    C6    1.283524 A    
C7    C37   1.487543 S    
C18   C24   1.403983 A    
C19   C21   1.406082 A    
C21   C22   1.409108 A    
H4    C26   1.081038 S    
C31   C35   1.489988 S    
C15   C17   1.401523 A    
C34   O16   1.398651 S    
O2    Cu2   1.936044 S    
O3    Cu1   1.935991 S    
C9    C11   1.420070 A    
C34   O15   1.222461 D    
O8    C5    1.283658 A    
O16   H6    1.013869 S    
C8    C38   1.487600 S    
C13   O9    1.349602 S    
C23   C26   1.395782 A    
C7    C29   1.412062 A    
C1    C27   1.406699 S    
C9    C31   1.412460 A    
C16   C18   1.401563 A    
C13   N1    1.372716 A    
C36   O19   1.222417 D    
C10   C32   1.412451 A    
O8    Cu2   1.952118 S    
C14   N2    1.372770 A    
O1    C1    1.272589 A    
C4    C30   1.414958 A    
C37   O22   1.398006 S    
O7    Cu1   1.952115 S    
C13   C19   1.401540 A    
O28   H12   1.013856 S    
O1    Cu1   1.936045 S    
C2    C28   1.406699 S    
C17   C21   1.406110 A    
C35   O17   1.222418 D    
C36   O20   1.398642 S    
C38   O23   1.223136 D    
Cu2   N3    1.975680 S    
C40   O27   1.222821 D    
O6    Cu2   1.952103 S    
C38   O24   1.398039 S    
C14   C20   1.401555 A    
C24   C25   1.395794 A    
C8    C30   1.412013 A    
N3    N4    1.194584 T    
C33   O14   1.398652 S    
H2    C24   1.081066 S    
C3    C29   1.415091 A    
O2    C2    1.272644 A    
C39   O26   1.398264 S    
H1    C23   1.081134 S    
C7    C11   1.420604 A    
O5    C5    1.283529 A    
C40   O28   1.398264 S    
C18   C22   1.406061 A    
C10   C40   1.487810 S    
C10   C12   1.420117 A    
C5    C11   1.485172 S    
C20   C22   1.406030 A    
C37   O21   1.223147 D    
C15   N1    1.372659 A    
O3    C2    1.272540 A    
C16   N2    1.372704 A    
C14   O10   1.349597 S    
Cu1   N4    1.975680 S    
O14   H5    1.013882 S    
C15   O11   1.349615 S    
H3    C25   1.081101 S    
C32   C36   1.490013 S    
O20   H8    1.013865 S    
C19   C25   1.404055 A    
C39   O25   1.222806 D    
O4    Cu2   1.935992 S    
C29   C33   1.490447 S    
O18   H7    1.013857 S    
C8    C12   1.420627 A    
O6    C6    1.283661 A    
C9    C39   1.487836 S    
O4    C1    1.272595 A    
