data_mof_unit_27535.cif
_audit_creation_date              2012-12-11T19:16:02-0500
_audit_creation_method            fapswitch 2.2
_symmetry_space_group_name_H-M    P1
_symmetry_Int_Tables_number       1
_space_group_crystal_system       triclinic
_cell_length_a                    8.463831
_cell_length_b                    15.513345
_cell_length_c                    18.584904
_cell_angle_alpha                 101.321177
_cell_angle_beta                  90.80454
_cell_angle_gamma                 100.375776
_cell_volume                      2350.54351075

loop_
_atom_site_label
_atom_site_type_symbol
_atom_type_description
_atom_site_fract_x
_atom_site_fract_y
_atom_site_fract_z
_atom_type_partial_charge
Ba1   Ba    Ba6+2 0.853510 0.540900 0.466480 1.777841
Ba2   Ba    Ba6+2 0.336320 0.459170 0.533530 1.784869
C1    C     C_3   0.681581 0.792441 0.179868 -0.262404
C2    C     C_3   0.634557 0.744643 0.243389 0.297373
C3    C     C_3   0.434305 0.303506 0.310921 0.234501
C4    C     C_3   0.387239 0.267444 0.229410 -0.233191
C5    C     C_3   0.990719 0.192749 0.731190 0.485036
C6    C     C_3   0.075082 0.178756 0.805141 -0.439607
C7    C     C_3   0.465067 0.238917 0.671159 0.327891
C8    C     C_3   0.431102 0.142964 0.680154 -0.229106
C9    C     C_R   0.986807 0.471059 0.051763 0.023713
C10   C     C_R   0.897137 0.417527 0.095786 -0.041351
C11   C     C_R   0.757015 0.457941 0.964500 -0.029902
C12   C     C_3   0.183383 0.752463 0.273405 0.305373
C13   C     C_R   0.922398 0.482008 0.983764 0.018443
C14   C     C_R   0.694265 0.466642 0.896854 -0.019400
C15   C     C_R   0.798654 0.488913 0.841723 -0.001269
C16   C     C_R   0.962993 0.525127 0.863966 0.100048
C17   C     C_R   0.022951 0.524753 0.936110 0.046268
C18   C     C_R   0.749923 0.473694 0.765362 0.122271
C19   C     C_R   0.867912 0.496147 0.715749 -0.060401
C20   C     C_R   0.021446 0.545399 0.738393 0.089626
C21   C     C_R   0.068405 0.561691 0.814173 0.028749
C22   C     C_R   0.148304 0.510394 0.074844 0.043006
C23   C     C_3   0.127579 0.756182 0.196136 -0.320385
C24   C     C_R   0.210633 0.502839 0.144751 0.010785
C25   C     C_R   0.110059 0.458419 0.191968 -0.045844
C26   C     C_R   0.958045 0.411094 0.163997 0.000148
C27   C     C_R   0.215763 0.614486 0.842312 0.001208
C28   C     C_R   0.271575 0.618212 0.914014 -0.088008
C29   C     C_R   0.183259 0.566478 0.959757 0.021466
C30   C     C_R   0.248050 0.556774 0.028480 0.061935
C31   C     C_R   0.412727 0.585683 0.050047 -0.060765
C32   C     C_R   0.374156 0.537984 0.166667 -0.033556
C33   C     C_R   0.474792 0.573052 0.116153 -0.096745
C34   C     C_3   0.237499 0.729567 0.613254 0.277740
C35   C     C_R   0.432216 0.535691 0.237999 -0.022373
C36   C     C_R   0.328193 0.495703 0.284933 -0.259536
C37   C     C_R   0.167027 0.459773 0.264463 0.030382
C38   C     C_R   0.357390 0.817299 0.440427 -0.127525
C39   C     C_R   0.588661 0.789721 0.508617 -0.002648
C40   C     C_R   0.757298 0.225828 0.519952 -0.268918
C41   C     C_R   0.855371 0.170152 0.540878 -0.044791
C42   C     C_R   0.808576 0.076132 0.516462 0.248885
C43   C     C_R   0.644523 0.038822 0.495083 -0.015119
C44   C     C_R   0.551376 0.096845 0.469728 -0.086948
C45   C     C_3   0.308925 0.828604 0.624049 0.231537
C46   C     C_R   0.575711 0.944431 0.489353 0.091188
C47   C     C_R   0.423931 0.909839 0.450865 0.009827
C48   C     C_R   0.344329 0.967503 0.420696 0.045777
C49   C     C_R   0.406518 0.058526 0.430102 0.024374
C50   C     C_R   0.648807 0.884034 0.522814 -0.065557
C51   C     C_R   0.447836 0.758113 0.462414 -0.320895
C52   C     C_R   0.610978 0.191108 0.480103 -0.038713
C53   C     C_3   0.889424 0.257967 0.354367 0.273606
C54   C     C_3   0.821888 0.161812 0.315964 -0.316650
C55   C     C_3   0.768334 0.777384 0.710905 0.594518
C56   C     C_3   0.763139 0.865946 0.768744 0.175804
H1    H     H_    0.437112 0.842062 0.641290 0.014036
H2    H     H_    0.297825 0.851702 0.572497 -0.028832
H3    H     H_    0.789778 0.295156 0.361447 0.057035
H4    H     H_    0.946507 0.260337 0.408837 -0.024516
H5    H     H_    0.749586 0.161462 0.265579 0.168436
H6    H     H_    0.744296 0.126353 0.352480 0.094872
H7    H     H_    0.921096 0.125080 0.299782 0.160399
H8    H     H_    0.888413 0.778814 0.687977 0.046584
H9    H     H_    0.804286 0.833818 0.190940 0.132784
H10   H     H_    0.832459 0.921698 0.746419 0.016533
H11   H     H_    0.506280 0.712013 0.233413 -0.115379
H12   H     H_    0.594758 0.836194 0.172307 0.120213
H13   H     H_    0.323500 0.317638 0.338362 0.061747
H14   H     H_    0.524090 0.366870 0.318070 0.009182
H15   H     H_    0.320148 0.197395 0.221413 0.155940
H16   H     H_    0.306311 0.307993 0.210089 0.006091
H17   H     H_    0.681134 0.743365 0.127716 0.081036
H18   H     H_    0.216260 0.733774 0.156547 0.064510
H19   H     H_    0.552054 0.242795 0.627963 0.066490
H20   H     H_    0.358737 0.257426 0.649517 0.109803
H21   H     H_    0.521657 0.106481 0.652224 0.123789
H22   H     H_    0.313166 0.108129 0.652999 0.152369
H23   H     H_    0.187808 0.681432 0.274683 0.001744
H24   H     H_    0.433120 0.140238 0.739350 0.223351
H25   H     H_    0.835869 0.479131 0.657430 0.036476
H26   H     H_    0.885014 0.367197 0.193941 0.098830
H27   H     H_    0.287697 0.654052 0.809125 0.153156
H28   H     H_    0.603242 0.591111 0.127094 0.091692
H29   H     H_    0.374127 0.492251 0.338653 0.086783
H30   H     H_    0.672449 0.440832 0.004762 0.101321
H31   H     H_    0.780327 0.377446 0.077662 0.098982
H32   H     H_    0.386238 0.660950 0.931815 0.113040
H33   H     H_    0.305696 0.794009 0.285138 -0.006127
H34   H     H_    0.498647 0.614739 0.015152 0.053169
H35   H     H_    0.233180 0.942591 0.388013 0.149655
H36   H     H_    0.753845 0.910083 0.559744 0.106209
H37   H     H_    0.801080 0.297277 0.529848 0.056661
H38   H     H_    0.342244 0.098794 0.403861 0.144279
H39   H     H_    0.009462 0.711218 0.180544 0.144624
H40   H     H_    0.116986 0.825731 0.193107 0.138097
H41   H     H_    0.325999 0.692392 0.584973 0.012849
H42   H     H_    0.125143 0.715940 0.578462 0.047292
O1    O     O_2   0.871970 0.437290 0.322980 -0.478149
O2    O     O_3   0.647390 0.765452 0.655495 -0.722687
O3    O     O_3   0.077510 0.786391 0.324482 -0.550080
O4    O     O_2   0.317740 0.562750 0.677070 -0.463590
O5    O     O_3   0.068290 0.555610 0.587550 -0.490499
O6    O     O_3   0.528280 0.392520 0.627490 -0.506188
O7    O     O_3   0.207029 0.704979 0.681008 -0.584690
O8    O     O_3   0.609300 0.386850 0.459730 -0.475359
O9    O     O_3   0.105720 0.342720 0.589770 -0.467409
O10   O     O_2   0.184678 0.187893 0.542037 -0.439853
O11   O     O_3   0.107625 0.199792 0.676629 -0.675856
O12   O     O_3   0.121420 0.444460 0.412460 -0.450604
O13   O     O_3   0.580410 0.613230 0.540280 -0.407941
O14   O     O_2   0.337420 0.273080 0.457680 -0.451205
O15   O     O_3   0.498287 0.239174 0.339925 -0.648991
O16   O     O_2   0.396844 0.443888 0.749483 -0.482644
O17   O     O_3   0.518596 0.298014 0.738305 -0.539004
O18   O     O_3   0.661430 0.607560 0.372520 -0.479058
O19   O     O_2   0.748034 0.520283 0.247236 -0.480536
O20   O     O_3   0.004789 0.294141 0.310588 -0.644422
O21   O     O_3   0.738389 0.683694 0.246400 -0.602637
O22   O     O_2   0.852280 0.726960 0.542370 -0.503815
O23   O     O_3   0.083990 0.657360 0.410240 -0.456960
O24   O     O_2   0.031429 0.816881 0.465624 -0.402911
P1    P     P_3+3 0.039440 0.410950 0.333260 0.985304
P2    P     P_3+3 0.676740 0.714970 0.563520 1.039248
P3    P     P_3+3 0.140129 0.771400 0.410525 1.020242
P4    P     P_3+3 0.150270 0.589130 0.666750 1.070522
P5    P     P_3+3 0.055153 0.225303 0.589688 1.033638
P6    P     P_3+3 0.639937 0.587952 0.275974 0.950976
P7    P     P_3+3 0.516579 0.271415 0.435995 0.932790
P8    P     P_3+3 0.548964 0.407485 0.722611 1.037867
C57   C     C_2   0.651679 0.811104 0.314497 0.533891
H43   H     H_    0.688319 0.791834 0.364155 0.043438
O25   O     O_2   0.620198 0.885514 0.317561 -0.596745
S1    S     S_3+6 0.211182 0.896941 0.688279 -0.072956
O26   O     O_2   0.162160 0.854879 0.752198 -0.205384
O27   O     O_2   0.330834 0.980358 0.716047 -0.271891
O28   O     O_3   0.050935 0.920488 0.647042 -0.566684
H44   H     H_    0.016553 0.869607 0.605703 0.341398
S2    S     S_3+6 0.719393 0.682535 0.749111 -0.105708
O29   O     O_2   0.850582 0.676968 0.801686 -0.322773
O30   O     O_2   0.564842 0.680863 0.787490 -0.348574
O31   O     O_3   0.698453 0.600750 0.674584 -0.605297
H45   H     H_    0.586847 0.569293 0.672119 0.372283
S3    S     S_3+6 0.845754 0.875074 0.861211 0.045818
O32   O     O_2   0.877170 0.972009 0.898742 -0.251542
O33   O     O_2   0.999574 0.840297 0.863217 -0.172761
O34   O     O_3   0.710214 0.818326 0.908522 -0.471915
H46   H     H_    0.761860 0.827116 0.958235 0.357397
C58   C     C_2   0.595092 0.884160 0.777974 0.642865
H47   H     H_    0.491682 0.830166 0.765638 0.072941
O35   O     O_2   0.574203 0.959375 0.804743 -0.430570
C59   C     C_2   0.532265 0.272229 0.184176 0.570492
H48   H     H_    0.601821 0.337001 0.180717 -0.044262
O36   O     O_2   0.571110 0.204137 0.150349 -0.526519
S4    S     S_3+6 0.913090 0.293452 0.751306 -0.113067
O37   O     O_2   0.806080 0.296359 0.815148 -0.260329
O38   O     O_2   0.051007 0.371014 0.767142 -0.377252
O39   O     O_3   0.804698 0.297971 0.677608 -0.605969
H49   H     H_    0.869916 0.341775 0.653639 0.299601
C60   C     C_2   0.855235 0.114773 0.703014 0.420417
H50   H     H_    0.868184 0.066472 0.653926 -0.001725
O40   O     O_2   0.736494 0.100794 0.738378 -0.549803
C61   C     C_2   0.231291 0.245761 0.825730 0.694619
H51   H     H_    0.262669 0.300516 0.797778 0.103624
O41   O     O_2   0.322746 0.240288 0.875457 -0.442106
C62   C     C_2   0.965949 0.185794 0.869897 0.715419
H52   H     H_    0.855600 0.137211 0.867936 0.103265
O42   O     O_2   0.999486 0.244825 0.924940 -0.502651
C63   C     C_2   0.114038 0.086402 0.795674 0.512220
H53   H     H_    0.066911 0.037298 0.748109 0.109807
O43   O     O_2   0.188810 0.064193 0.843611 -0.382016
C64   C     C_2   0.523073 0.471084 0.892634 0.497374
H54   H     H_    0.486923 0.521482 0.866929 0.026274
O44   O     O_2   0.423793 0.423321 0.921529 -0.530895
C65   C     C_2   0.397436 0.664169 0.428179 0.701293
H55   H     H_    0.390137 0.648523 0.369093 -0.271471
O45   O     O_2   0.338394 0.608164 0.462286 -0.555284
S5    S     S_3+6 0.956556 0.018710 0.473650 -0.074513
O46   O     O_2   0.071872 0.005250 0.530672 -0.271892
O47   O     O_2   0.881033 0.930565 0.427100 -0.258566
O48   O     O_3   0.058257 0.076625 0.416128 -0.522533
H56   H     H_    0.021431 0.134150 0.423109 0.305930

loop_
_geom_bond_atom_site_label_1
_geom_bond_atom_site_label_2
_ccdc_geom_bond_type
C53   C54   S    
Ba2   O9    S    
C61   H51   S    
C37   P1    S    
C45   S1    S    
C26   H26   S    
C32   C35   A    
C7    O17   S    
O14   P7    D    
O21   P6    S    
C28   H32   S    
C17   C29   A    
O10   P5    D    
C42   S5    S    
C22   C30   A    
C55   C56   S    
C5    C6    S    
O15   P7    S    
C43   C44   A    
C42   C43   A    
C8    H21   S    
O6    P8    S    
C55   O2    S    
C63   O43   D    
Ba2   O12   S    
C24   C25   A    
S4    O37   D    
C15   C18   A    
C10   C26   A    
O18   P6    S    
C21   C27   A    
C35   C36   A    
C22   C24   A    
O7    P4    S    
C32   C33   A    
C3    H14   S    
S2    O30   D    
Ba1   O12   S    
C28   C29   A    
C33   H28   S    
C38   C47   A    
C53   H4    S    
C9    C22   A    
O19   P6    D    
C35   P6    S    
C34   C45   S    
Ba1   Ba2   S    
O17   P8    S    
C64   H54   S    
O8    P7    S    
C6    C62   S    
C31   C33   A    
C45   H2    S    
Ba1   O22   S    
C9    C13   A    
C24   C32   A    
C19   H25   S    
C25   C37   A    
C14   C15   A    
C65   O45   D    
O4    P4    D    
O1    P1    D    
C58   H47   S    
C54   H6    S    
C50   H36   S    
C1    H17   S    
C7    C8    S    
C55   H8    S    
C39   C50   A    
C59   O36   D    
S5    O48   S    
C49   H38   S    
C7    H20   S    
C62   O42   D    
C61   O41   D    
C19   C20   A    
C3    O15   S    
C34   O7    S    
Ba1   O13   S    
C18   P8    S    
S1    O28   S    
C2    H11   S    
O11   P5    S    
C4    H16   S    
C60   O40   D    
C53   O20   S    
C36   C37   A    
C5    C60   S    
C16   C21   A    
C5    O11   S    
C10   H31   S    
C41   P5    S    
C1    H12   S    
Ba1   P2    S    
S1    O27   D    
C31   H34   S    
C8    H22   S    
O20   P1    S    
C16   C17   A    
O13   P2    S    
C48   C49   A    
C38   P3    S    
C44   C49   A    
C8    H24   S    
C40   H37   S    
O22   P2    D    
C13   C17   A    
C41   C42   A    
Ba1   O23   S    
O48   H56   S    
C27   C28   A    
C52   P7    S    
S3    O34   S    
C20   P4    S    
C29   C30   A    
O16   P8    D    
Ba2   O4    S    
C56   H10   S    
C44   C52   A    
C15   C16   A    
C59   H48   S    
C54   H5    S    
C34   H42   S    
C7    H19   S    
C63   H53   S    
C39   C51   A    
O12   P1    S    
C4    C59   S    
C65   H55   S    
O24   P3    D    
C23   H39   S    
C46   C47   A    
C47   C48   A    
S4    O39   S    
C11   C13   A    
O9    P5    S    
C57   H43   S    
S2    O31   S    
C40   C41   A    
C1    C2    S    
Ba1   O1    S    
O23   P3    S    
O3    P3    S    
C56   C58   S    
C4    H15   S    
S3    O32   D    
C43   C46   A    
C14   C64   S    
C62   H52   S    
S3    O33   D    
S5    O47   D    
O5    P4    S    
C27   H27   S    
C39   P2    S    
C1    H9    S    
Ba1   P1    S    
O31   H45   S    
O2    P2    S    
C51   C65   S    
O28   H44   S    
C56   S3    S    
C48   H35   S    
C5    S4    S    
C60   H50   S    
Ba2   O5    S    
C55   S2    S    
C36   H29   S    
C23   H18   S    
C30   C31   A    
C3    H13   S    
O34   H46   S    
O39   H49   S    
Ba2   O14   S    
C12   O3    S    
C3    C4    S    
C6    C63   S    
C53   H3    S    
C11   H30   S    
Ba2   O8    S    
Ba2   O13   S    
Ba2   O6    S    
C2    O21   S    
C34   H41   S    
Ba1   O18   S    
C58   O35   D    
C12   C23   S    
C64   O44   D    
C12   H33   S    
C6    C61   S    
Ba1   O8    S    
C45   H1    S    
C23   H40   S    
C46   C50   A    
C18   C19   A    
S4    O38   D    
C38   C51   A    
C11   C14   A    
C25   C26   A    
C57   O25   D    
C20   C21   A    
S1    O26   D    
C12   H23   S    
S2    O29   D    
C40   C52   A    
S5    O46   D    
C54   H7    S    
C9    C10   A    
Ba1   O5    S    
C2    C57   S    
Ba2   P4    S    
