data_mof_unit_17845.cif
_audit_creation_date              2012-12-10T18:58:46-0500
_audit_creation_method            fapswitch 2.2
_symmetry_space_group_name_H-M    P1
_symmetry_Int_Tables_number       1
_space_group_crystal_system       triclinic
_cell_length_a                    13.021292
_cell_length_b                    10.821927
_cell_length_c                    9.59371
_cell_angle_alpha                 90.799699
_cell_angle_beta                  95.964449
_cell_angle_gamma                 91.259552
_cell_volume                      1344.07952317

loop_
_atom_site_label
_atom_site_type_symbol
_atom_type_description
_atom_site_fract_x
_atom_site_fract_y
_atom_site_fract_z
_atom_type_partial_charge
C1    C     C_R   0.498882 0.262656 0.498964 0.854290
C2    C     C_R   0.027280 0.477499 0.557433 0.032189
C3    C     C_R   0.973739 0.529378 0.436679 0.007342
C4    C     C_R   0.867784 0.551834 0.438341 0.361042
C5    C     C_R   0.867673 0.442771 0.659910 -0.063721
C6    C     C_R   0.974439 0.436569 0.667953 -0.149658
C7    C     C_R   0.540530 0.067632 0.614464 0.077807
C8    C     C_R   0.495406 0.129340 0.498219 -0.029670
C9    C     C_R   0.444577 0.060903 0.385345 -0.166385
C10   C     C_R   0.444724 0.931965 0.387088 -0.180073
C11   C     C_R   0.495732 0.870879 0.501782 -0.044763
C12   C     C_R   0.300913 0.500219 0.473755 0.845759
C13   C     C_R   0.539423 0.940036 0.617847 0.029108
C14   C     C_3   0.647932 0.938922 0.686839 -0.461678
C15   C     C_3   0.649269 0.078658 0.681422 0.201503
C16   C     C_R   0.570164 0.570798 0.084515 0.310939
C17   C     C_R   0.435360 0.423291 0.064356 -0.067784
C18   C     C_R   0.436044 0.422086 0.915827 0.401773
C19   C     C_R   0.571034 0.569360 0.937637 0.216502
C20   C     C_3   0.585728 0.705500 0.934033 -0.514687
C21   C     C_3   0.580181 0.708515 0.090646 -0.429897
C22   C     C_R   0.500447 0.737534 0.500797 0.800410
C23   C     C_R   0.699492 0.500800 0.526618 0.873636
C24   C     C_R   0.813006 0.498949 0.543052 -0.182923
C25   C     C_R   0.188709 0.504385 0.457807 -0.117244
C26   C     C_R   0.029241 0.556625 0.320479 0.443457
C27   C     C_R   0.136019 0.544799 0.332999 -0.232428
C28   C     C_R   0.133991 0.468033 0.568064 -0.178188
Cu1   Cu    Cu3+1 0.499990 0.499980 0.640670 1.016254
Cu2   Cu    Cu3+1 0.500010 0.500020 0.359330 1.001074
H1    H     H_    0.701985 0.893143 0.621055 0.248797
H2    H     H_    0.655150 0.124814 0.786263 0.147313
H3    H     H_    0.664011 0.729342 0.905109 0.221726
H4    H     H_    0.520346 0.752771 0.874999 0.225394
H5    H     H_    0.652852 0.743271 0.149528 0.271042
H6    H     H_    0.509344 0.753122 0.120439 0.200099
H7    H     H_    0.016430 0.396318 0.759372 0.173800
H8    H     H_    0.177966 0.567636 0.244607 0.190763
H9    H     H_    0.174512 0.432286 0.662816 0.209767
H10   H     H_    0.406994 0.106472 0.295110 0.174662
H11   H     H_    0.406930 0.880275 0.297956 0.156052
H12   H     H_    0.652165 0.907350 0.796173 0.174575
N1    N     N_R   0.500660 0.500930 0.148010 -0.249202
N2    N     N_R   0.500660 0.500890 0.852110 -0.224987
O1    O     O_R   0.500000 0.319640 0.618810 -0.536321
O2    O     O_R   0.500010 0.319680 0.381230 -0.588689
O3    O     O_R   0.348990 0.499960 0.599490 -0.540216
O4    O     O_R   0.349000 0.500000 0.361910 -0.602545
O5    O     O_R   0.499990 0.680320 0.618770 -0.588996
O6    O     O_R   0.500000 0.680360 0.381190 -0.586358
O7    O     O_R   0.651000 0.500000 0.638090 -0.592415
O8    O     O_R   0.651010 0.500040 0.400510 -0.523791
Cl1   Cl    Cl    0.809168 0.670606 0.335632 -0.566664
Cl2   Cl    Cl    0.738341 0.137233 0.566857 -0.590359
C29   C     C_1   0.360841 0.346520 0.125811 0.411304
N3    N     N_1   0.299867 0.285218 0.173412 -0.275757
Cl3   Cl    Cl    0.350563 0.318615 0.815411 -0.621717
C30   C     C_1   0.817562 0.391991 0.774726 0.404025
N4    N     N_1   0.777732 0.351542 0.866963 -0.240960
Cl4   Cl    Cl    0.970945 0.588852 0.150846 -0.534329

loop_
_geom_bond_atom_site_label_1
_geom_bond_atom_site_label_2
_ccdc_geom_bond_type
C23   C24   S    
C17   N1    A    
C16   C21   S    
C21   H5    S    
C18   N2    A    
C4    Cl1   S    
C25   C27   A    
C1    C8    S    
C9    C10   A    
C17   C29   S    
C18   Cl3   S    
C23   O7    A    
C19   C20   S    
C28   H9    S    
C12   C25   S    
C22   O6    A    
C14   H1    S    
C12   O4    A    
C20   H4    S    
C29   N3    T    
C7    C15   S    
C17   C18   A    
C23   O8    A    
C6    H7    S    
C7    C8    A    
C21   H6    S    
Cu1   O5    S    
C14   H12   S    
C19   N2    A    
C10   H11   S    
C11   C13   A    
C16   N1    A    
C1    O1    A    
C26   C27   A    
Cu1   Cu2   S    
C5    C24   A    
C5    C30   S    
Cu1   O3    S    
C22   O5    A    
C20   H3    S    
Cu2   O4    S    
C2    C3    A    
C12   O3    A    
Cu1   N2    S    
C16   C19   A    
C5    C6    A    
C4    C24   A    
Cu2   N1    S    
C10   C11   A    
C27   H8    S    
C3    C4    A    
C15   Cl2   S    
C7    C13   A    
C20   C21   S    
Cu1   O7    S    
C3    C26   A    
Cu2   O8    S    
C14   C15   S    
C2    C28   A    
C11   C22   S    
C1    O2    A    
Cu2   O6    S    
C30   N4    T    
C13   C14   S    
C26   Cl4   S    
Cu2   O2    S    
C9    H10   S    
C2    C6    A    
Cu1   O1    S    
C8    C9    A    
C25   C28   A    
C15   H2    S    
