data_mof_unit_59080.cif
_audit_creation_date              2012-12-11T15:42:36-0500
_audit_creation_method            fapswitch 2.2
_symmetry_space_group_name_H-M    P1
_symmetry_Int_Tables_number       1
_space_group_crystal_system       triclinic
_cell_length_a                    6.9508
_cell_length_b                    14.547178
_cell_length_c                    16.207296
_cell_angle_alpha                 90.605915
_cell_angle_beta                  89.939203
_cell_angle_gamma                 90.031496
_cell_volume                      1638.70023742

loop_
_atom_site_label
_atom_site_type_symbol
_atom_type_description
_atom_site_fract_x
_atom_site_fract_y
_atom_site_fract_z
_atom_type_partial_charge
O1    O     O_R   0.505810 0.583360 0.413880 -0.549816
O2    O     O_R   0.175870 0.595480 0.585520 -0.548388
O3    O     O_R   0.005540 0.416640 0.586120 -0.521255
C1    C     C_R   0.344873 0.617612 0.614585 0.692839
O4    O     O_R   0.176100 0.594390 0.414490 -0.507620
O5    O     O_R   0.005770 0.415540 0.413870 -0.520356
C2    C     C_R   0.345170 0.618124 0.387155 0.744090
O6    O     O_R   0.505580 0.584460 0.586130 -0.543930
O7    O     O_3   0.339190 0.441320 0.500000 -0.370010
V1    V     V_3+5 0.064350 0.510890 0.500000 1.492200
O8    O     O_R   0.676050 0.404520 0.414480 -0.558272
C3    C     C_R   0.845125 0.383174 0.384970 0.730103
O9    O     O_R   0.675830 0.405610 0.585510 -0.537003
C4    C     C_R   0.844565 0.387273 0.616302 0.682043
V2    V     V_3+5 0.564340 0.489110 0.500000 1.430081
O10   O     O_3   0.839370 0.558680 0.500000 -0.374836
C5    C     C_2   0.724575 0.208630 0.785298 -0.086521
C6    C     C_2   0.887680 0.173727 0.817098 -0.281517
H1    H     H_    0.586371 0.187398 0.809946 0.142571
H2    H     H_    0.025183 0.189495 0.788800 0.132694
C7    C     C_2   0.722215 0.269483 0.711772 -0.189810
C8    C     C_2   0.856660 0.333918 0.693898 -0.156913
H3    H     H_    0.602222 0.259572 0.669710 0.142560
C9    C     C_R   0.016251 0.254537 0.191888 -0.227041
H4    H     H_    0.126706 0.260659 0.145085 0.133476
C10   C     C_R   0.006509 0.320440 0.256294 0.465019
C11   C     C_R   0.857404 0.315382 0.315642 -0.130398
C12   C     C_R   0.721365 0.244283 0.308845 -0.261655
H5    H     H_    0.607869 0.237914 0.354211 0.127365
C13   C     C_R   0.730792 0.180064 0.244034 -0.163540
H6    H     H_    0.622449 0.126745 0.240358 0.113501
C14   C     C_R   0.879693 0.183710 0.185488 -0.098211
C15   C     C_R   0.188682 0.723459 0.719108 -0.153789
H7    H     H_    0.048154 0.705240 0.695234 0.113051
C16   C     C_R   0.200113 0.785686 0.785519 -0.147002
H8    H     H_    0.067743 0.813742 0.810437 0.117730
C17   C     C_R   0.379436 0.811472 0.819066 -0.045051
C18   C     C_R   0.546986 0.773225 0.784204 -0.152326
H9    H     H_    0.687521 0.791447 0.808064 0.117034
C19   C     C_R   0.535555 0.710994 0.717797 -0.145203
H10   H     H_    0.667925 0.682938 0.692875 0.117251
C20   C     C_R   0.356236 0.685225 0.684248 -0.044554
C21   C     C_R   0.189018 0.732433 0.290058 0.518013
C22   C     C_R   0.202499 0.789396 0.220879 -0.289916
H11   H     H_    0.072432 0.814975 0.193415 0.218984
C23   C     C_R   0.381421 0.817454 0.189956 -0.246302
C24   C     C_R   0.548339 0.787349 0.231419 0.510131
C25   C     C_R   0.534701 0.718710 0.291478 -0.294338
H12   H     H_    0.664863 0.691111 0.317364 0.219008
C26   C     C_R   0.355581 0.689581 0.321538 -0.241897
O11   O     O_R   0.230120 0.912300 0.917180 -0.543333
O12   O     O_R   0.559740 0.902430 0.088770 -0.511739
O13   O     O_R   0.729930 0.081310 0.089370 -0.540147
C27   C     C_R   0.391113 0.881946 0.118726 0.743839
O14   O     O_R   0.559840 0.901330 0.917750 -0.545647
O15   O     O_R   0.730030 0.080210 0.917120 -0.541460
C28   C     C_R   0.390820 0.879142 0.888713 0.680885
O16   O     O_R   0.230020 0.913400 0.089430 -0.543885
O17   O     O_3   0.396460 0.055470 0.003290 -0.374137
V3    V     V_3+5 0.671360 0.985960 0.003250 1.448923
O18   O     O_R   0.059740 0.091300 0.917690 -0.544247
C29   C     C_R   0.891394 0.111265 0.888270 0.739442
O19   O     O_R   0.059640 0.092400 0.088720 -0.545444
C30   C     C_R   0.890600 0.114712 0.117385 0.705831
V4    V     V_3+5 0.171350 0.007820 0.003190 1.417015
O20   O     O_3   0.896380 0.938200 0.003220 -0.363895
O21   O     O_3   0.011933 0.720887 0.326881 -0.535126
C31   C     C_3   0.000128 0.782254 0.394991 -0.206353
H13   H     H_    0.103484 0.763882 0.444432 0.109996
H14   H     H_    0.853606 0.778106 0.421847 0.139099
H15   H     H_    0.025745 0.854680 0.376414 0.103847
O22   O     O_3   0.725612 0.826038 0.215887 -0.536659
C32   C     C_3   0.736864 0.910260 0.260060 -0.205568
H16   H     H_    0.631828 0.961225 0.236748 0.105840
H17   H     H_    0.882453 0.940000 0.251687 0.133774
H18   H     H_    0.712712 0.900648 0.327305 0.106602
C33   C     C_2   0.006572 0.362311 0.754808 0.761226
O23   O     O_2   0.170156 0.379544 0.731768 -0.561875
O24   O     O_R   0.958735 0.371833 0.838321 -0.649442
H19   H     H_    0.072255 0.391742 0.873453 0.298357
O25   O     O_3   0.127379 0.396122 0.255707 -0.554662
C34   C     C_3   0.316080 0.367967 0.274456 -0.175527
H20   H     H_    0.378995 0.325891 0.223567 0.128018
H21   H     H_    0.407236 0.430105 0.281923 0.162572
H22   H     H_    0.320922 0.329953 0.333674 0.121608

loop_
_geom_bond_atom_site_label_1
_geom_bond_atom_site_label_2
_ccdc_geom_bond_type
C18   C19   A    
O19   V4    S    
C32   H16   S    
C16   H8    S    
C1    O6    A    
O25   C34   S    
C33   O23   D    
C10   C11   A    
C15   C20   A    
C7    C8    D    
C12   H5    S    
C16   C17   A    
C9    C10   A    
O5    C3    A    
C18   H9    S    
O13   C30   A    
C8    C33   S    
V2    O10   S    
O11   V4    S    
O12   V3    S    
C5    H1    S    
O8    V2    S    
C22   C23   A    
C31   H13   S    
O11   C28   A    
O7    V1    S    
C19   C20   A    
V3    O20   S    
O17   V3    S    
O14   V3    S    
C32   H17   S    
O13   V3    S    
O12   C27   A    
C5    C6    D    
C33   O24   S    
C7    H3    S    
C3    C11   S    
O21   C31   S    
C9    H4    S    
C14   C30   S    
O4    C2    A    
C6    C29   S    
C5    C7    S    
O15   V3    S    
O2    C1    A    
C21   C22   A    
C9    C14   A    
C17   C18   A    
O16   V4    S    
C24   C25   A    
C23   C27   S    
C15   H7    S    
C25   C26   A    
O3    C4    A    
O1    V2    S    
C31   H14   S    
C25   H12   S    
V4    O20   S    
O6    V2    S    
C34   H21   S    
O9    V2    S    
C32   H18   S    
O15   C29   A    
O24   H19   S    
O2    V1    S    
C22   H11   S    
C27   O16   A    
C23   C24   A    
C19   H10   S    
O1    C2    A    
C2    C26   S    
O22   C32   S    
O5    V1    S    
O8    C3    A    
C21   C26   A    
C10   O25   S    
C34   H22   S    
C4    C8    S    
O14   C28   A    
O7    V2    S    
O4    V1    S    
O3    V1    S    
V1    O10   S    
O17   V4    S    
C13   C14   A    
C13   H6    S    
C1    C20   S    
C31   H15   S    
C12   C13   A    
C15   C16   A    
C6    H2    S    
O18   C29   A    
C24   O22   S    
O19   C30   A    
O18   V4    S    
C21   O21   S    
C34   H20   S    
C11   C12   A    
O9    C4    A    
C17   C28   S    
