data_mof_unit_39005.cif
_audit_creation_date              2012-12-11T14:44:01-0500
_audit_creation_method            fapswitch 2.2
_symmetry_space_group_name_H-M    P1
_symmetry_Int_Tables_number       1
_space_group_crystal_system       triclinic
_cell_length_a                    19.120982
_cell_length_b                    10.873603
_cell_length_c                    18.925924
_cell_angle_alpha                 90.305734
_cell_angle_beta                  89.365725
_cell_angle_gamma                 90.085718
_cell_volume                      3934.66275116

loop_
_atom_site_label
_atom_site_type_symbol
_atom_type_description
_atom_site_fract_x
_atom_site_fract_y
_atom_site_fract_z
_atom_type_partial_charge
C1    C     C_R   0.728241 0.371949 0.144618 0.531335
C2    C     C_R   0.025911 0.996813 0.027986 -0.137431
C3    C     C_R   0.023737 0.770547 0.030211 0.008239
C4    C     C_R   0.490661 0.060198 0.037455 -0.016917
C5    C     C_R   0.463691 0.074119 0.971053 -0.019922
C6    C     C_R   0.023162 0.543695 0.028713 0.003228
C7    C     C_R   0.979180 0.545213 0.970723 0.004380
C8    C     C_3   0.475860 0.937932 0.074937 -0.357584
C9    C     C_3   0.394869 0.013858 0.956526 -0.351724
C10   C     C_3   0.051157 0.418839 0.051510 -0.368994
C11   C     C_3   0.942792 0.425487 0.950918 -0.363803
C12   C     C_3   0.849869 0.120727 0.051412 -0.368641
C13   C     C_R   0.574079 0.470850 0.936099 -0.106229
C14   C     C_3   0.159922 0.121224 0.949937 -0.357382
C15   C     C_3   0.333410 0.269259 0.099070 -0.396270
C16   C     C_3   0.799797 0.657778 0.962006 -0.382192
C17   C     C_3   0.531662 0.383701 0.582721 -0.376064
C18   C     C_3   0.511223 0.406836 0.428890 -0.376704
C19   C     C_3   0.031760 0.883614 0.582744 -0.374832
C20   C     C_3   0.011340 0.906849 0.428920 -0.376477
C21   C     C_R   0.573225 0.487380 0.008728 -0.115720
C22   C     C_R   0.680830 0.930638 0.028032 -0.163758
C23   C     C_R   0.275284 0.829870 0.954221 -0.176150
C24   C     C_R   0.210965 0.513966 0.025269 -0.149912
C25   C     C_R   0.726078 0.331242 0.949607 -0.141594
C26   C     C_R   0.685614 0.905245 0.955609 -0.158740
C27   C     C_R   0.275855 0.812890 0.027153 -0.159072
C28   C     C_R   0.215756 0.492266 0.953120 -0.158335
C29   C     C_R   0.270499 0.376698 0.854369 0.532889
C30   C     C_R   0.717683 0.308632 0.021332 -0.115768
C31   C     C_R   0.744546 0.944342 0.917379 0.001319
C32   C     C_R   0.245427 0.901543 0.072207 -0.000138
C33   C     C_R   0.259478 0.399176 0.928775 0.013132
C34   C     C_R   0.741624 0.393949 0.071263 0.016913
C35   C     C_R   0.791422 0.025867 0.949165 -0.114312
C36   C     C_R   0.213471 0.004300 0.044782 -0.127925
C37   C     C_R   0.298813 0.329017 0.976060 -0.096854
C38   C     C_R   0.769853 0.504631 0.050636 -0.123409
C39   C     C_R   0.789784 0.047102 0.021520 -0.012003
C40   C     C_R   0.229116 0.872830 0.144788 0.530238
C41   C     C_R   0.206985 0.017742 0.972899 -0.000543
C42   C     C_R   0.292087 0.346636 0.048758 -0.023297
C43   C     C_R   0.775542 0.531347 0.979308 -0.027172
C44   C     C_R   0.734280 0.995875 0.062793 0.019154
C45   C     C_R   0.243407 0.934557 0.926359 0.035129
C46   C     C_R   0.246815 0.438939 0.073113 0.041851
C47   C     C_R   0.754371 0.443147 0.928069 0.040537
C48   C     C_R   0.479963 0.063293 0.457420 -0.156231
C49   C     C_R   0.473500 0.059360 0.529515 -0.146387
C50   C     C_R   0.979902 0.563334 0.457403 -0.154891
C51   C     C_R   0.767984 0.883638 0.851504 0.524145
C52   C     C_R   0.973413 0.559396 0.529497 -0.147009
C53   C     C_R   0.487806 0.163513 0.571108 0.032094
C54   C     C_R   0.500100 0.171821 0.424041 0.024728
C55   C     C_R   0.987777 0.663512 0.571101 0.029415
C56   C     C_R   0.000102 0.671841 0.424040 0.025801
C57   C     C_R   0.553667 0.152473 0.138564 0.535028
C58   C     C_R   0.468717 0.155492 0.852156 0.528265
C59   C     C_R   0.062208 0.650631 0.138115 0.540636
C60   C     C_R   0.941109 0.651427 0.861899 0.534423
C61   C     C_R   0.507215 0.275356 0.538692 0.003617
C62   C     C_R   0.552518 0.359373 0.907408 -0.095164
C63   C     C_R   0.506710 0.282411 0.464165 0.011414
C64   C     C_R   0.007249 0.775332 0.538700 0.001886
C65   C     C_R   0.006757 0.782412 0.464175 0.011067
C66   C     C_R   0.814130 0.944674 0.458162 -0.135823
C67   C     C_R   0.212727 0.027143 0.527336 -0.132036
C68   C     C_R   0.314033 0.445606 0.458299 -0.136114
C69   C     C_R   0.712737 0.527144 0.527345 -0.131976
C70   C     C_R   0.819386 0.935150 0.530298 -0.127367
C71   C     C_R   0.210225 0.012416 0.455097 -0.144122
C72   C     C_R   0.319204 0.436212 0.530441 -0.127242
C73   C     C_R   0.554848 0.390235 0.053083 -0.087410
C74   C     C_R   0.710223 0.512392 0.455110 -0.143301
C75   C     C_R   0.761133 0.900929 0.571532 0.033719
C76   C     C_R   0.248971 0.918983 0.422653 0.030464
C77   C     C_R   0.261060 0.401137 0.571571 0.034230
C78   C     C_R   0.748948 0.418925 0.422672 0.031229
C79   C     C_R   0.697521 0.873611 0.538944 -0.145544
C80   C     C_R   0.295312 0.847466 0.462632 -0.133582
C81   C     C_R   0.197610 0.373046 0.538868 -0.144950
C82   C     C_R   0.795261 0.347363 0.462659 -0.133750
C83   C     C_R   0.691736 0.886197 0.466044 -0.138200
C84   C     C_R   0.961399 0.886346 0.941987 -0.093513
C85   C     C_R   0.298645 0.863692 0.535414 -0.143594
C86   C     C_R   0.191882 0.385573 0.465957 -0.137735
C87   C     C_R   0.798595 0.363596 0.535439 -0.144265
C88   C     C_R   0.749890 0.924694 0.425649 0.029396
C89   C     C_R   0.255317 0.950616 0.568301 0.034717
C90   C     C_R   0.249939 0.424779 0.425662 0.030120
C91   C     C_R   0.755300 0.450580 0.568316 0.034364
C92   C     C_R   0.728864 0.018565 0.139938 0.547761
C93   C     C_R   0.257298 0.970453 0.852873 0.534388
C94   C     C_R   0.241053 0.470965 0.147066 0.531340
C95   C     C_R   0.046180 0.885921 0.056664 -0.087690
C96   C     C_R   0.759063 0.471791 0.853335 0.526184
C97   C     C_R   0.729577 0.378696 0.352291 0.554485
C98   C     C_R   0.272622 0.374059 0.645671 0.550382
C99   C     C_R   0.229585 0.878717 0.352282 0.550404
C100  C     C_R   0.772642 0.874010 0.645655 0.549879
C101  C     C_R   0.530981 0.158585 0.353218 0.556057
C102  C     C_R   0.466703 0.156768 0.645367 0.542768
C103  C     C_R   0.030989 0.658587 0.353223 0.560697
C104  C     C_R   0.966692 0.656766 0.645363 0.555446
C105  C     C_R   0.740850 0.971348 0.354525 0.558684
C106  C     C_R   0.984265 0.996978 0.969551 -0.141854
C107  C     C_R   0.260528 0.977688 0.643240 0.549042
C108  C     C_R   0.240864 0.471331 0.354519 0.548728
C109  C     C_R   0.760521 0.477665 0.643250 0.548121
C110  C     C_R   0.492044 0.161895 0.924622 0.010116
C111  C     C_R   0.524947 0.163575 0.067615 -0.007706
C112  C     C_R   0.967206 0.657353 0.934844 -0.012314
C113  C     C_R   0.039164 0.656183 0.063697 -0.015044
C114  C     C_R   0.528756 0.263116 0.951605 -0.000660
C115  C     C_R   0.536528 0.272485 0.025610 -0.009876
C116  C     C_R   0.984333 0.771035 0.967824 0.005619
Cr1   Cr    Cr6+3 0.772000 0.169640 0.250110 0.999775
Cr2   Cr    Cr6+3 0.383330 0.010620 0.749160 1.006440
Cr3   Cr    Cr6+3 0.116670 0.510620 0.250840 1.000759
Cr4   Cr    Cr6+3 0.883330 0.510620 0.749160 1.001403
Cr5   Cr    Cr6+3 0.228000 0.169640 0.749890 1.003232
Cr6   Cr    Cr6+3 0.272000 0.669640 0.250110 1.002887
Cr7   Cr    Cr6+3 0.728000 0.669640 0.749890 0.996772
Cr8   Cr    Cr6+3 0.614960 0.323350 0.249260 0.987240
Cr9   Cr    Cr6+3 0.385040 0.323350 0.750740 1.005692
Cr10  Cr    Cr6+3 0.114960 0.823350 0.249260 0.993000
Cr11  Cr    Cr6+3 0.885040 0.823350 0.750740 0.992074
Cr12  Cr    Cr6+3 0.616670 0.010620 0.250840 1.002750
H1    H     H_    0.869920 0.952725 0.553412 0.133988
H2    H     H_    0.333680 0.807173 0.565928 0.118183
H3    H     H_    0.141533 0.370043 0.441793 0.131120
H4    H     H_    0.833606 0.307045 0.565960 0.118026
H5    H     H_    0.553241 0.350561 0.850478 0.124806
H6    H     H_    0.551917 0.414623 0.107895 0.170763
H7    H     H_    0.922964 0.895743 0.902962 0.182826
H8    H     H_    0.081259 0.895123 0.098019 0.189889
H9    H     H_    0.968728 0.082903 0.945921 0.096975
H10   H     H_    0.042406 0.082718 0.051620 0.102021
H11   H     H_    0.589810 0.545603 0.901910 0.136983
H12   H     H_    0.175056 0.069780 0.425222 0.121013
H13   H     H_    0.587408 0.575801 0.030988 0.111812
H14   H     H_    0.647466 0.844753 0.931647 0.131648
H15   H     H_    0.299073 0.730228 0.048177 0.151376
H16   H     H_    0.187283 0.549567 0.916703 0.124077
H17   H     H_    0.690586 0.226451 0.038168 0.108258
H18   H     H_    0.471971 0.978810 0.427906 0.133079
H19   H     H_    0.456534 0.973109 0.552477 0.141880
H20   H     H_    0.971876 0.478873 0.427879 0.133882
H21   H     H_    0.956392 0.473171 0.552451 0.141621
H22   H     H_    0.450854 0.867654 0.040872 0.109588
H23   H     H_    0.369617 0.454521 0.553632 0.133688
H24   H     H_    0.524840 0.892202 0.090653 0.147461
H25   H     H_    0.440590 0.953016 0.121207 0.158770
H26   H     H_    0.364089 0.004633 0.006085 0.125797
H27   H     H_    0.362553 0.073624 0.923333 0.150352
H28   H     H_    0.403718 0.922772 0.931298 0.168383
H29   H     H_    0.067730 0.363984 0.004651 0.110474
H30   H     H_    0.098246 0.425383 0.083711 0.173219
H31   H     H_    0.010708 0.367271 0.081752 0.139103
H32   H     H_    0.923736 0.377231 0.998898 0.111139
H33   H     H_    0.895342 0.441246 0.920648 0.176779
H34   H     H_    0.675071 0.569779 0.425229 0.121999
H35   H     H_    0.978564 0.364516 0.920263 0.136791
H36   H     H_    0.859666 0.974270 0.428281 0.126829
H37   H     H_    0.181087 0.099267 0.550965 0.135519
H38   H     H_    0.359503 0.475794 0.428519 0.126094
H39   H     H_    0.681131 0.599328 0.550965 0.135854
H40   H     H_    0.637377 0.892899 0.057532 0.129403
H41   H     H_    0.301831 0.764425 0.919955 0.127205
H42   H     H_    0.179516 0.590248 0.044136 0.106940
H43   H     H_    0.707783 0.264503 0.911307 0.113741
H44   H     H_    0.834195 0.064396 0.918434 0.130825
H45   H     H_    0.652592 0.843617 0.569691 0.118489
H46   H     H_    0.188616 0.070112 0.080301 0.127792
H47   H     H_    0.335204 0.261598 0.955788 0.115802
H48   H     H_    0.785076 0.571909 0.090186 0.121995
H49   H     H_    0.831307 0.196045 0.085295 0.175463
H50   H     H_    0.884975 0.059786 0.081645 0.171302
H51   H     H_    0.880980 0.166733 0.009577 0.089317
H52   H     H_    0.190585 0.190404 0.922265 0.183240
H53   H     H_    0.117521 0.085571 0.915885 0.164818
H54   H     H_    0.135251 0.171209 0.994880 0.086744
H55   H     H_    0.368977 0.328660 0.130290 0.154763
H56   H     H_    0.325910 0.774441 0.438475 0.134096
H57   H     H_    0.297192 0.219971 0.135445 0.126045
H58   H     H_    0.365607 0.199922 0.070653 0.135934
H59   H     H_    0.811813 0.669376 0.905441 0.156989
H60   H     H_    0.757968 0.720589 0.978567 0.151109
H61   H     H_    0.846176 0.682051 0.993627 0.121601
H62   H     H_    0.557208 0.352154 0.631802 0.140445
H63   H     H_    0.571854 0.438081 0.553939 0.126686
H64   H     H_    0.486891 0.444212 0.596576 0.135533
H65   H     H_    0.480977 0.407544 0.379167 0.140031
H66   H     H_    0.487465 0.479713 0.462649 0.096249
H67   H     H_    0.152768 0.342422 0.569530 0.119135
H68   H     H_    0.566577 0.431038 0.418252 0.169893
H69   H     H_    0.057350 0.851978 0.631779 0.147032
H70   H     H_    0.071932 0.938012 0.553950 0.126481
H71   H     H_    0.987018 0.944139 0.596677 0.135532
H72   H     H_    0.981126 0.907630 0.379180 0.142871
H73   H     H_    0.987589 0.979734 0.462677 0.096116
H74   H     H_    0.066707 0.930989 0.418322 0.169704
H75   H     H_    0.825836 0.274304 0.438507 0.134202
H76   H     H_    0.641274 0.871336 0.441974 0.131266
O1    O     O_R   0.787540 0.042690 0.170470 -0.516725
O2    O     O_R   0.454130 0.051100 0.669160 -0.527522
O3    O     O_R   0.045870 0.551100 0.330840 -0.519665
O4    O     O_R   0.954130 0.551100 0.669160 -0.522218
O5    O     O_R   0.681340 0.959300 0.325510 -0.499758
O6    O     O_R   0.318660 0.959300 0.674490 -0.502988
O7    O     O_R   0.181340 0.459300 0.325510 -0.504413
O8    O     O_R   0.818660 0.459300 0.674490 -0.502975
O9    O     O_3   0.667880 0.167870 0.250070 -0.269872
O10   O     O_3   0.332120 0.167870 0.749930 -0.249023
O11   O     O_3   0.167880 0.667870 0.250070 -0.258535
O12   O     O_R   0.212460 0.042690 0.829530 -0.524695
O13   O     O_3   0.832120 0.667870 0.749930 -0.261518
O14   O     O_R   0.765660 0.292160 0.175050 -0.532090
O15   O     O_R   0.234340 0.292160 0.824950 -0.518556
O16   O     O_R   0.265660 0.792160 0.175050 -0.505316
O17   O     O_R   0.734340 0.792160 0.824950 -0.503875
O18   O     O_R   0.670190 0.408980 0.168550 -0.530690
O19   O     O_R   0.329810 0.408980 0.831450 -0.506332
O20   O     O_R   0.170190 0.908980 0.168550 -0.560298
O21   O     O_R   0.829810 0.908980 0.831450 -0.559457
O22   O     O_R   0.556580 0.251450 0.175160 -0.525033
O23   O     O_R   0.287540 0.542690 0.170470 -0.516720
O24   O     O_R   0.443420 0.251450 0.824840 -0.512314
O25   O     O_R   0.056580 0.751450 0.175160 -0.512816
O26   O     O_R   0.943420 0.751450 0.824840 -0.512897
O27   O     O_R   0.545920 0.049510 0.170320 -0.531523
O28   O     O_R   0.454080 0.049510 0.829680 -0.518937
O29   O     O_R   0.045920 0.549510 0.170320 -0.512181
O30   O     O_R   0.954080 0.549510 0.829680 -0.510293
O31   O     O_R   0.681390 0.957840 0.176710 -0.510459
O32   O     O_R   0.318610 0.957840 0.823290 -0.514501
O33   O     O_R   0.181390 0.457840 0.176710 -0.535211
O34   O     O_R   0.712460 0.542690 0.829530 -0.521201
O35   O     O_R   0.818610 0.457840 0.823290 -0.530794
O36   O     O_R   0.787500 0.044280 0.330990 -0.522577
O37   O     O_R   0.212500 0.044280 0.669010 -0.528275
O38   O     O_R   0.287500 0.544280 0.330990 -0.527464
O39   O     O_R   0.712500 0.544280 0.669010 -0.530199
O40   O     O_R   0.765610 0.293630 0.323860 -0.501728
O41   O     O_R   0.234390 0.293630 0.676140 -0.504444
O42   O     O_R   0.265610 0.793630 0.323860 -0.503062
O43   O     O_R   0.734390 0.793630 0.676140 -0.504313
O44   O     O_R   0.670140 0.410570 0.329080 -0.530133
O45   O     O_R   0.556540 0.252920 0.323970 -0.500275
O46   O     O_R   0.329860 0.410570 0.670920 -0.529189
O47   O     O_R   0.170140 0.910570 0.329080 -0.531336
O48   O     O_R   0.829860 0.910570 0.670920 -0.528220
O49   O     O_R   0.443460 0.252920 0.676030 -0.506787
O50   O     O_R   0.056540 0.752920 0.323970 -0.498829
O51   O     O_R   0.943460 0.752920 0.676030 -0.497287
O52   O     O_R   0.545870 0.051100 0.330840 -0.521341

loop_
_geom_bond_atom_site_label_1
_geom_bond_atom_site_label_2
_ccdc_geom_bond_type
Cr4   O8    S    
C12   H50   S    
C84   H7    S    
C36   H46   S    
C38   H48   S    
C23   C45   A    
C87   C91   A    
C51   O17   A    
C18   H66   S    
C107  O37   A    
C79   H45   S    
C54   C101  S    
C35   C39   A    
C59   O25   A    
C11   H33   S    
C3    C95   A    
C4    C8    S    
C45   C93   S    
C108  O7    A    
C97   O44   A    
Cr7   O39   S    
C114  C115  A    
Cr10  O11   S    
Cr6   O38   S    
C107  O6    A    
C66   C70   A    
C17   H63   S    
C76   C99   S    
C48   C54   A    
C15   H57   S    
Cr8   O45   S    
C104  O51   A    
Cr6   O16   S    
C40   O20   A    
C60   O26   A    
C13   H11   S    
C62   H5    S    
Cr9   O46   S    
C8    H24   S    
C103  O3    A    
C20   H73   S    
C62   C114  A    
Cr1   O1    S    
C3    C116  A    
C66   C88   A    
C82   H75   S    
C57   O27   A    
Cr10  O20   S    
C86   H3    S    
C16   C43   S    
C81   H67   S    
C5    C110  A    
C109  O39   A    
C56   C65   A    
C80   H56   S    
C29   C33   S    
C67   C89   A    
C105  O5    A    
C7    C112  A    
C49   H19   S    
Cr11  O48   S    
C42   C46   A    
C37   C42   A    
C61   C63   A    
C20   H72   S    
C22   C26   A    
C92   O1    A    
C72   C77   A    
Cr4   O30   S    
C53   C61   A    
Cr3   O29   S    
C22   C44   A    
C13   C62   A    
Cr1   O36   S    
Cr2   O28   S    
C52   H21   S    
C15   H55   S    
C51   O21   A    
C68   C90   A    
C47   C96   S    
C1    O14   A    
C28   H16   S    
C104  O4    A    
C23   C27   A    
C109  O8    A    
C24   H42   S    
C10   H30   S    
C74   C78   A    
C81   C86   A    
C44   C92   S    
C52   C55   A    
C59   C113  S    
Cr12  O9    S    
Cr6   O42   S    
Cr7   O34   S    
C17   C61   S    
C67   H37   S    
Cr12  O31   S    
Cr5   O41   S    
C12   H49   S    
Cr7   O13   S    
C26   C31   A    
C17   H64   S    
C58   C110  S    
C40   O16   A    
C93   O12   A    
C35   H44   S    
Cr5   O15   S    
C36   C41   A    
C59   O29   A    
C27   H15   S    
C14   H54   S    
C11   H32   S    
C7    C11   S    
C6    C7    A    
Cr8   O9    S    
Cr9   O19   S    
C93   O32   A    
C15   H58   S    
C101  O45   A    
C19   H69   S    
C30   C34   A    
C18   H68   S    
Cr4   O4    S    
Cr5   O12   S    
C24   C28   A    
C20   C65   S    
C77   C98   S    
C101  O52   A    
C60   O30   A    
C19   H71   S    
C56   C103  S    
C98   O41   A    
C99   O47   A    
C84   C106  A    
C16   H60   S    
C98   O46   A    
C85   C89   A    
Cr3   O33   S    
C106  H9    S    
C6    C10   S    
Cr1   O40   S    
C55   C104  S    
C2    C106  A    
C70   H1    S    
C33   C37   A    
Cr1   O14   S    
C48   H18   S    
C1    O18   A    
C2    H10   S    
C87   H4    S    
Cr8   O44   S    
C8    H22   S    
C69   H39   S    
C6    C113  A    
C5    C9    S    
C80   C85   A    
C60   C112  S    
C75   C100  S    
C85   H2    S    
C37   H47   S    
Cr7   O17   S    
Cr9   O10   S    
C78   C82   A    
C94   O33   A    
C50   C52   A    
C23   H41   S    
C46   C94   S    
C77   C81   A    
C19   C64   S    
C68   C72   A    
C72   H23   S    
C1    C34   S    
C55   C64   A    
C89   C107  S    
C78   C97   S    
C11   H35   S    
C13   C21   A    
C69   C74   A    
Cr2   O10   S    
C99   O42   A    
Cr1   O9    S    
C8    H25   S    
C102  O2    A    
C10   H29   S    
C71   H12   S    
C94   O23   A    
C14   C41   S    
C57   O22   A    
C3    C113  A    
C48   C49   A    
C4    C111  A    
Cr8   O18   S    
C28   C33   A    
Cr12  O27   S    
C32   C40   S    
C86   C90   A    
C96   O35   A    
C31   C35   A    
C84   C116  A    
C90   C108  S    
Cr3   O3    S    
C39   C44   A    
Cr9   O24   S    
C32   C36   A    
C71   C76   A    
C112  C116  A    
C14   H53   S    
C58   O24   A    
Cr11  O13   S    
C30   H17   S    
C74   H34   S    
Cr5   O37   S    
C50   H20   S    
C25   C30   A    
C29   O19   A    
C110  C114  A    
C25   C47   A    
C2    C95   A    
C19   H70   S    
Cr2   O2    S    
C27   C32   A    
C34   C38   A    
C29   O15   A    
C96   O34   A    
Cr12  O5    S    
C21   C73   A    
C76   C80   A    
C15   C42   S    
C31   C51   S    
C83   H76   S    
C100  O48   A    
C16   H59   S    
C9    H26   S    
Cr8   O22   S    
Cr6   O11   S    
Cr9   O49   S    
C17   H62   S    
Cr7   O43   S    
C92   O31   A    
Cr3   O7    S    
C73   C115  A    
Cr2   O6    S    
C102  O49   A    
C24   C46   A    
Cr5   O10   S    
C91   C109  S    
C12   C39   S    
C22   H40   S    
C38   C43   A    
C100  O43   A    
C26   H14   S    
C64   C65   A    
C97   O40   A    
C79   C83   A    
C88   C105  S    
C25   H43   S    
C57   C111  S    
C75   C79   A    
Cr10  O50   S    
C49   C53   A    
Cr6   O23   S    
C53   C102  S    
Cr3   O11   S    
C95   H8    S    
Cr12  O52   S    
C105  O36   A    
C83   C88   A    
C67   C71   A    
Cr11  O26   S    
C18   C63   S    
C50   C56   A    
C9    H28   S    
C58   O28   A    
C16   H61   S    
Cr4   O13   S    
Cr4   O35   S    
C20   H74   S    
Cr11  O51   S    
Cr2   O32   S    
C4    C5    A    
C12   H51   S    
C73   H6    S    
C9    H27   S    
C21   H13   S    
C54   C63   A    
C108  O38   A    
C70   C75   A    
Cr11  O21   S    
C103  O50   A    
C41   C45   A    
Cr10  O25   S    
Cr10  O47   S    
C111  C115  A    
C66   H36   S    
C69   C91   A    
C43   C47   A    
C10   H31   S    
C14   H52   S    
C82   C87   A    
C18   H65   S    
C68   H38   S    
