data_mof_unit_13849.cif
_audit_creation_date              2012-12-10T17:45:27-0500
_audit_creation_method            fapswitch 2.2
_symmetry_space_group_name_H-M    P1
_symmetry_Int_Tables_number       1
_space_group_crystal_system       triclinic
_cell_length_a                    11.542722
_cell_length_b                    10.714583
_cell_length_c                    9.918745
_cell_angle_alpha                 91.332289
_cell_angle_beta                  90.087025
_cell_angle_gamma                 92.027433
_cell_volume                      1225.60258683

loop_
_atom_site_label
_atom_site_type_symbol
_atom_type_description
_atom_site_fract_x
_atom_site_fract_y
_atom_site_fract_z
_atom_type_partial_charge
C1    C     C_R   0.507611 0.260618 0.498287 0.897022
C2    C     C_R   0.520192 0.872469 0.503149 -0.172880
C3    C     C_R   0.340854 0.343996 0.136036 -0.102510
C4    C     C_R   0.282033 0.499567 0.499914 0.902822
C5    C     C_R   0.261019 0.268236 0.064151 -0.158846
C6    C     C_R   0.262121 0.266460 0.924607 -0.211971
C7    C     C_R   0.342246 0.341348 0.856193 -0.153342
C8    C     C_R   0.421911 0.422419 0.925740 0.158539
C9    C     C_R   0.421561 0.423076 0.070268 0.129233
C10   C     C_R   0.575301 0.573523 0.073496 -0.115315
C11   C     C_R   0.575231 0.573535 0.930463 -0.128038
C12   C     C_R   0.725030 0.083498 0.789103 0.591182
C13   C     C_R   0.507159 0.739652 0.501615 0.904500
C14   C     C_R   0.717968 0.500155 0.500109 0.877137
C15   C     C_1   0.161521 0.499010 0.499814 -0.182870
C16   C     C_1   0.059310 0.498772 0.499984 0.006457
C17   C     C_1   0.940614 0.498962 0.500248 0.004616
C18   C     C_1   0.838431 0.499461 0.500307 -0.188504
C19   C     C_R   0.663970 0.141893 0.686510 -0.271566
C20   C     C_3   0.505041 0.093538 0.165113 -0.279962
C21   C     C_3   0.741564 0.257426 0.932695 -0.313058
C22   C     C_R   0.724852 0.953557 0.788980 -0.224230
C23   C     C_R   0.660286 0.882814 0.694056 -0.260715
C24   C     C_R   0.589709 0.940738 0.598806 0.108667
C25   C     C_R   0.591810 0.071877 0.594606 -0.023552
C26   C     C_R   0.526050 0.128822 0.493412 -0.208666
C27   C     C_R   0.475630 0.057521 0.386655 0.509305
C28   C     C_R   0.466190 0.930815 0.397867 -0.307631
H1    H     H_    0.201476 0.205489 0.868839 0.169291
H2    H     H_    0.339486 0.332138 0.749214 0.208969
H3    H     H_    0.646692 0.242373 0.949439 0.144868
H4    H     H_    0.758380 0.336537 0.864165 0.184013
H5    H     H_    0.780987 0.284290 0.031699 0.196105
H6    H     H_    0.776719 0.906715 0.862089 0.158408
H7    H     H_    0.669581 0.783073 0.694894 0.175016
H8    H     H_    0.200054 0.208075 0.117191 0.173251
H9    H     H_    0.636829 0.633534 0.878537 0.138724
H10   H     H_    0.678155 0.241108 0.675923 0.173276
H11   H     H_    0.416521 0.877819 0.321684 0.189923
H12   H     H_    0.636773 0.633737 0.128758 0.148358
H13   H     H_    0.339558 0.334653 0.242573 0.228223
H14   H     H_    0.516053 0.992803 0.140450 0.159382
H15   H     H_    0.590861 0.141001 0.185535 0.169139
H16   H     H_    0.468514 0.135217 0.073952 0.192442
N1    N     N_R   0.498930 0.498800 0.142780 -0.120714
N2    N     N_R   0.498900 0.498720 0.857170 -0.119046
O1    O     O_R   0.500000 0.316780 0.614690 -0.656187
O2    O     O_3   0.794828 0.148854 0.883004 -0.616511
O3    O     O_R   0.499990 0.316750 0.385360 -0.594018
O4    O     O_R   0.334450 0.500030 0.614670 -0.621999
O5    O     O_R   0.334440 0.500000 0.385330 -0.632387
O6    O     O_R   0.500010 0.683250 0.614640 -0.614976
O7    O     O_R   0.500000 0.683220 0.385310 -0.618371
O8    O     O_R   0.665560 0.500000 0.614670 -0.635290
O9    O     O_R   0.665550 0.499970 0.385330 -0.614899
O10   O     O_3   0.428443 0.111114 0.274596 -0.614780
Zn1   Zn    Zn3+2 0.500010 0.500020 0.653130 0.922214
Zn2   Zn    Zn3+2 0.499990 0.499980 0.346870 0.941754

loop_
_geom_bond_atom_site_label_1
_geom_bond_atom_site_label_2
_ccdc_geom_bond_type
C20   H14   S    
C23   C24   A    
C11   H9    S    
C9    N1    A    
C6    C7    A    
C3    C9    A    
C19   H10   S    
O1    Zn1   S    
C13   O6    A    
C14   C18   S    
C23   H7    S    
O7    Zn2   S    
C12   O2    S    
C21   O2    S    
C20   H15   S    
C10   N1    A    
C14   O9    A    
C7    C8    A    
O5    Zn2   S    
C21   H3    S    
C26   C27   A    
C5    C6    A    
C4    C15   S    
C19   C25   A    
C12   C19   A    
C14   O8    A    
C17   C18   T    
C13   O7    A    
C20   O10   S    
N2    Zn1   S    
C2    C24   A    
C1    C26   S    
C22   H6    S    
C21   H4    S    
C8    N2    A    
N1    Zn2   S    
C21   H5    S    
C10   C11   A    
C4    O5    A    
C15   C16   T    
C5    H8    S    
C12   C22   A    
C6    H1    S    
C24   C25   A    
C10   H12   S    
O6    Zn1   S    
O9    Zn2   S    
C27   C28   A    
C7    H2    S    
C2    C13   S    
C27   O10   S    
C3    H13   S    
C11   N2    A    
C2    C28   A    
C28   H11   S    
C20   H16   S    
C25   C26   A    
C22   C23   A    
O4    Zn1   S    
C1    O3    A    
C1    O1    A    
O3    Zn2   S    
C16   C17   S    
C4    O4    A    
C8    C9    A    
C3    C5    A    
O8    Zn1   S    
