data_mof_unit_51485.cif
_audit_creation_date              2012-12-11T16:08:45-0500
_audit_creation_method            fapswitch 2.2
_symmetry_space_group_name_H-M    P1
_symmetry_Int_Tables_number       1
_space_group_crystal_system       triclinic
_cell_length_a                    12.981278
_cell_length_b                    13.271277
_cell_length_c                    27.728939
_cell_angle_alpha                 95.051153
_cell_angle_beta                  90.034539
_cell_angle_gamma                 119.318021
_cell_volume                      4143.78344951

loop_
_atom_site_label
_atom_site_type_symbol
_atom_type_description
_atom_site_fract_x
_atom_site_fract_y
_atom_site_fract_z
_atom_type_partial_charge
C1    C     C_R   0.627844 0.895362 0.427368 0.547288
C2    C     C_R   0.656190 0.421378 0.237168 -0.095631
C3    C     C_R   0.645842 0.405227 0.286679 0.159421
C4    C     C_R   0.668445 0.321056 0.304221 0.062837
C5    C     C_R   0.685936 0.352898 0.205157 0.011887
C6    C     C_1   0.695237 0.371503 0.154576 -0.055565
C7    C     C_1   0.653084 0.297495 0.354306 -0.027531
C8    C     C_1   0.703860 0.396435 0.113425 -0.012875
C9    C     C_R   0.208828 0.760077 0.346504 -0.124729
C10   C     C_R   0.198422 0.756213 0.296712 0.011027
C11   C     C_R   0.183987 0.751984 0.196317 0.012627
C12   C     C_R   0.601019 0.221800 0.440537 0.544383
C13   C     C_R   0.203003 0.669669 0.217004 -0.123637
C14   C     C_R   0.208205 0.670610 0.267041 -0.124487
C15   C     C_R   0.166294 0.743636 0.146547 -0.128256
C16   C     C_R   0.128869 0.814042 0.126313 -0.005620
C17   C     C_R   0.196395 0.937738 0.356639 -0.135733
C18   C     C_R   0.177942 0.930748 0.306418 0.014416
C19   C     C_R   0.183435 0.841974 0.276379 0.061695
C20   C     C_R   0.158814 0.013020 0.285463 -0.128745
C21   C     C_R   0.143814 0.006358 0.235127 -0.126519
C22   C     C_R   0.150989 0.919255 0.205183 0.013452
C23   C     C_R   0.269987 0.876213 0.425310 0.546923
C24   C     C_R   0.173933 0.838544 0.225944 0.061345
C25   C     C_R   0.128226 0.906360 0.155136 -0.133214
C26   C     C_R   0.216197 0.854609 0.376501 -0.002545
C27   C     C_R   0.751595 0.939122 0.357106 -0.130912
C28   C     C_R   0.756472 0.929900 0.307160 0.009695
C29   C     C_R   0.758290 0.918336 0.206448 0.010437
C30   C     C_R   0.848339 0.014201 0.234542 -0.138163
C31   C     C_R   0.848446 0.019077 0.284748 -0.136774
C32   C     C_R   0.762768 0.909539 0.156537 -0.130781
C33   C     C_R   0.684079 0.805935 0.128625 -0.005351
C34   C     C_R   0.627515 0.898321 0.564669 0.547744
C35   C     C_R   0.563012 0.759502 0.351931 -0.134851
C36   C     C_R   0.569538 0.745935 0.301695 0.007937
C37   C     C_R   0.664414 0.833825 0.279172 0.060281
C38   C     C_R   0.480162 0.649618 0.273332 -0.139890
C39   C     C_R   0.485381 0.639982 0.222913 -0.137880
C40   C     C_R   0.578181 0.728335 0.200263 0.011458
C41   C     C_R   0.666549 0.826950 0.228607 0.062960
C42   C     C_R   0.588187 0.717685 0.150094 -0.138469
C43   C     C_R   0.651120 0.859240 0.379273 -0.002239
C44   C     C_R   0.741467 0.301430 0.651448 -0.138700
C45   C     C_R   0.603078 0.227466 0.578396 0.546183
C46   C     C_R   0.755179 0.324207 0.701943 0.007051
C47   C     C_R   0.770979 0.352253 0.803819 0.005960
C48   C     C_R   0.862239 0.349000 0.777865 -0.141448
C49   C     C_R   0.853650 0.333514 0.727199 -0.141161
C50   C     C_R   0.779812 0.371537 0.854434 -0.138481
C51   C     C_R   0.688666 0.377697 0.879462 -0.005690
C52   C     C_R   0.558034 0.309022 0.652956 -0.134832
C53   C     C_R   0.567074 0.325357 0.703093 0.001568
C54   C     C_R   0.664970 0.331169 0.727861 0.057951
C55   C     C_R   0.475659 0.328370 0.728769 -0.145427
C56   C     C_R   0.271782 0.879512 0.563446 0.547908
C57   C     C_R   0.479797 0.334576 0.779030 -0.144321
C58   C     C_R   0.577080 0.341343 0.804008 0.001947
C59   C     C_R   0.671017 0.341342 0.778575 0.057249
C60   C     C_R   0.584397 0.354235 0.854168 -0.133169
C61   C     C_R   0.639606 0.287729 0.627252 -0.006310
C62   C     C_1   0.222203 0.863152 0.610196 -0.012355
C63   C     C_R   0.078886 0.745290 0.718119 -0.103392
C64   C     C_R   0.064017 0.735209 0.767734 -0.103552
C65   C     C_R   0.231310 0.928967 0.786004 -0.104639
C66   C     C_R   0.246136 0.939086 0.736352 -0.104497
C67   C     C_1   0.633665 0.269488 0.394949 -0.013436
C68   C     C_R   0.170292 0.847081 0.702308 0.035979
C69   C     C_R   0.140815 0.826554 0.801788 0.036312
C70   C     C_1   0.123912 0.814310 0.852683 -0.058267
C71   C     C_1   0.193388 0.854264 0.651602 -0.057378
C72   C     C_1   0.100466 0.797167 0.894272 -0.014310
C73   C     C_1   0.647405 0.860946 0.609020 -0.014042
C74   C     C_R   0.701978 0.908463 0.734683 -0.104038
C75   C     C_R   0.712380 0.891795 0.783050 -0.102040
C76   C     C_R   0.671969 0.695343 0.758424 -0.106661
C77   C     C_R   0.661333 0.712025 0.709831 -0.105109
C78   C     C_R   0.699577 0.253678 0.272074 -0.142295
C79   C     C_R   0.676359 0.818827 0.697937 0.036881
C80   C     C_R   0.697064 0.785259 0.795112 0.036453
C81   C     C_1   0.710268 0.770554 0.845123 -0.058310
C82   C     C_1   0.661507 0.837495 0.648651 -0.057404
C83   C     C_1   0.724968 0.762008 0.887173 -0.011116
C84   C     C_R   0.065635 0.773417 0.078956 0.550259
C85   C     C_R   0.716960 0.441431 0.067286 0.547905
C86   C     C_R   0.720359 0.782907 0.080967 0.558003
C87   C     C_R   0.056560 0.766225 0.941230 0.538552
C88   C     C_R   0.710248 0.433949 0.928997 0.536907
C89   C     C_R   0.708256 0.269454 0.222725 -0.117993
C90   C     C_R   0.748440 0.754444 0.936880 0.563394
Cr1   Cr    Cr6+3 0.416430 0.829200 0.492370 1.021474
Cr2   Cr    Cr6+3 0.674630 0.087020 0.504170 1.020893
Cr3   Cr    Cr6+3 0.408920 0.083740 0.503490 1.020676
Cr4   Cr    Cr6+3 0.914010 0.832750 0.013970 1.016801
Cr5   Cr    Cr6+3 0.922310 0.578600 0.003000 1.017502
Cr6   Cr    Cr6+3 0.656280 0.574630 0.003870 1.020522
H1    H     H_    0.715892 0.187868 0.285116 0.122197
H2    H     H_    0.126010 0.068783 0.219646 0.101573
H3    H     H_    0.154301 0.081622 0.307974 0.100881
H4    H     H_    0.201287 0.010357 0.379770 0.120409
H5    H     H_    0.835627 0.979261 0.140081 0.130396
H6    H     H_    0.820876 0.015364 0.378121 0.132440
H7    H     H_    0.919840 0.084162 0.217694 0.098614
H8    H     H_    0.919009 0.093618 0.306021 0.101904
H9    H     H_    0.526422 0.638182 0.128463 0.124636
H10   H     H_    0.416818 0.563847 0.201671 0.102714
H11   H     H_    0.406535 0.581783 0.290142 0.095128
H12   H     H_    0.731961 0.216493 0.198349 0.120735
H13   H     H_    0.485901 0.696907 0.369135 0.118531
H14   H     H_    0.860128 0.388763 0.873920 0.129202
H15   H     H_    0.805543 0.286710 0.631542 0.127019
H16   H     H_    0.939707 0.357649 0.796733 0.113254
H17   H     H_    0.923689 0.328503 0.707799 0.112560
H18   H     H_    0.512752 0.357027 0.873224 0.137330
H19   H     H_    0.407868 0.335843 0.798388 0.113280
H20   H     H_    0.399699 0.323070 0.709945 0.112713
H21   H     H_    0.480375 0.301053 0.634444 0.135960
H22   H     H_    0.020496 0.673211 0.692206 0.114089
H23   H     H_    0.639266 0.486331 0.223555 0.114488
H24   H     H_    0.993245 0.655799 0.779559 0.118107
H25   H     H_    0.290739 0.000337 0.811959 0.114416
H26   H     H_    0.317896 0.017833 0.724519 0.120351
H27   H     H_    0.713232 0.991187 0.725943 0.117268
H28   H     H_    0.732365 0.962025 0.811052 0.116279
H29   H     H_    0.660579 0.612722 0.767360 0.122244
H30   H     H_    0.640922 0.641884 0.681745 0.113677
H31   H     H_    0.169395 0.673911 0.124216 0.132055
H32   H     H_    0.222483 0.694397 0.361404 0.132340
H33   H     H_    0.210284 0.602591 0.194517 0.104445
H34   H     H_    0.220965 0.605137 0.282553 0.099774
H35   H     H_    0.100953 0.962066 0.139383 0.125271
O1    O     O_R   0.296680 0.802170 0.437540 -0.524877
O2    O     O_R   0.662610 0.183990 0.557860 -0.501395
O3    O     O_R   0.500730 0.201280 0.562180 -0.520135
O4    O     O_R   0.312500 0.978850 0.548170 -0.494765
O5    O     O_3   0.499990 0.999990 0.500010 -0.242544
O6    O     O_R   0.820790 0.857990 0.068830 -0.519623
O7    O     O_R   0.016700 0.827330 0.062850 -0.502333
O8    O     O_R   0.041970 0.673520 0.060040 -0.515971
O9    O     O_R   0.817980 0.483660 0.048840 -0.490687
O10   O     O_R   0.637200 0.461990 0.052510 -0.509843
O11   O     O_R   0.664790 0.681920 0.057970 -0.495356
O12   O     O_R   0.525380 0.838530 0.443500 -0.503598
O13   O     O_R   0.815840 0.852920 0.961840 -0.504415
O14   O     O_R   0.012100 0.822630 0.963670 -0.511379
O15   O     O_R   0.037010 0.668460 0.953040 -0.508462
O16   O     O_R   0.813390 0.478970 0.949660 -0.504051
O17   O     O_R   0.632250 0.456930 0.945520 -0.527378
O18   O     O_R   0.660200 0.677230 0.958780 -0.491551
O19   O     O_3   0.830870 0.661990 0.006950 -0.264357
O20   O     O_R   0.702130 0.995190 0.446810 -0.520955
O21   O     O_R   0.661770 0.181390 0.458760 -0.495739
O22   O     O_R   0.499820 0.198480 0.455280 -0.511303
O23   O     O_R   0.311660 0.976250 0.449080 -0.500272
O24   O     O_R   0.297580 0.804960 0.544440 -0.506505
O25   O     O_R   0.526220 0.841130 0.542590 -0.494193
O26   O     O_R   0.703030 0.997990 0.553710 -0.510127
N1    N     N_2   0.613154 0.473909 0.318470 -0.510583
H36   H     H_    0.643150 0.556596 0.308624 0.257020
C91   C     C_3   0.488662 0.417534 0.328035 -0.305387
H37   H     H_    0.434804 0.399884 0.293969 0.130174
H38   H     H_    0.471511 0.475049 0.354347 0.137377
H39   H     H_    0.461150 0.334576 0.343876 0.165554

loop_
_geom_bond_atom_site_label_1
_geom_bond_atom_site_label_2
_ccdc_geom_bond_type
C39   H10   S    
C66   C68   A    
C87   O15   A    
C12   O21   A    
C60   H18   S    
C35   C36   A    
C42   H9    S    
C50   H14   S    
C12   O22   A    
Cr3   O5    S    
C72   C87   S    
C62   C71   T    
C57   H19   S    
C53   C54   A    
Cr1   O24   S    
C46   C49   A    
Cr5   O9    S    
C5    C6    S    
C33   C42   A    
C22   C24   A    
Cr3   O23   S    
C8    C85   S    
C29   C32   A    
C52   C61   A    
C90   O18   A    
C14   H34   S    
C38   C39   A    
C55   H20   S    
C58   C60   A    
C15   C16   A    
C11   C24   A    
C16   C84   S    
C18   C19   A    
C23   C26   S    
C45   C61   S    
C38   H11   S    
C86   O6    A    
Cr6   O10   S    
C11   C15   A    
C1    C43   S    
Cr1   O5    S    
Cr2   O2    S    
C84   O8    A    
C22   C25   A    
C30   H7    S    
Cr2   O21   S    
C3    N1    S    
C66   H26   S    
C49   H17   S    
C65   H25   S    
C35   C43   A    
C75   C80   A    
C1    O20   A    
C35   H13   S    
C52   H21   S    
Cr4   O14   S    
C40   C42   A    
C74   H27   S    
C84   O7    A    
C15   H31   S    
C21   C22   A    
N1    C91   S    
C76   H29   S    
Cr2   O5    S    
Cr5   O15   S    
C78   H1    S    
C56   O24   A    
C81   C83   T    
Cr6   O11   S    
C44   C46   A    
C9    C26   A    
C50   C51   A    
C47   C50   A    
Cr1   O12   S    
C54   C59   A    
C53   C55   A    
C78   C89   A    
Cr6   O17   S    
C12   C67   S    
C9    H32   S    
C74   C75   A    
C75   H28   S    
C91   H39   S    
Cr5   O16   S    
C76   C77   A    
Cr3   O3    S    
C10   C14   A    
C85   O10   A    
C39   C40   A    
C63   H22   S    
C6    C8    T    
Cr1   O1    S    
C4    C7    S    
C58   C59   A    
C47   C59   A    
C32   C33   A    
Cr2   O26   S    
C91   H38   S    
C33   C86   S    
C44   H15   S    
C4    C78   A    
C29   C30   A    
C1    O12   A    
C47   C48   A    
C10   C19   A    
Cr6   O19   S    
C46   C54   A    
Cr2   O20   S    
C17   C18   A    
C88   O17   A    
C77   C79   A    
Cr5   O19   S    
C45   O3    A    
C64   C69   A    
C85   O9    A    
C40   C41   A    
C48   H16   S    
C74   C79   A    
C55   C57   A    
N1    H36   S    
Cr4   O7    S    
C56   C62   S    
C2    C5    A    
C17   C26   A    
C3    C4    A    
C25   H35   S    
C73   C82   T    
C56   O4    A    
C52   C53   A    
C86   O11   A    
C9    C10   A    
C16   C25   A    
C83   C90   S    
C63   C68   A    
C48   C49   A    
C87   O14   A    
C29   C41   A    
C45   O2    A    
C28   C31   A    
C76   C80   A    
C80   C81   S    
Cr3   O4    S    
C51   C88   S    
C79   C82   S    
C2    H23   S    
C34   O25   A    
C44   C61   A    
Cr4   O19   S    
C27   H6    S    
Cr5   O8    S    
C64   H24   S    
Cr4   O13   S    
C31   H8    S    
Cr3   O22   S    
C2    C3    A    
Cr1   O25   S    
C91   H37   S    
C21   H2    S    
C11   C13   A    
C57   C58   A    
C30   C31   A    
C20   H3    S    
C28   C37   A    
C68   C71   S    
C65   C69   A    
Cr6   O18   S    
C89   H12   S    
C36   C38   A    
C88   O16   A    
C23   O1    A    
C19   C24   A    
C18   C20   A    
C37   C41   A    
C69   C70   S    
C17   H4    S    
C90   O13   A    
C34   C73   S    
C7    C67   T    
C63   C64   A    
C34   O26   A    
C27   C43   A    
C20   C21   A    
C36   C37   A    
C65   C66   A    
C23   O23   A    
C27   C28   A    
Cr4   O6    S    
C13   H33   S    
C32   H5    S    
C70   C72   T    
C51   C60   A    
C13   C14   A    
C5    C89   A    
C77   H30   S    
