data_mof_unit_21414.cif
_audit_creation_date              2012-12-11T14:21:08-0500
_audit_creation_method            fapswitch 2.2
_symmetry_space_group_name_H-M    P1
_symmetry_Int_Tables_number       1
_space_group_crystal_system       triclinic
_cell_length_a                    21.958241
_cell_length_b                    7.203478
_cell_length_c                    14.961212
_cell_angle_alpha                 90.773415
_cell_angle_beta                  107.087799
_cell_angle_gamma                 90.374006
_cell_volume                      2261.69013712

loop_
_atom_site_label
_atom_site_type_symbol
_atom_type_description
_atom_site_fract_x
_atom_site_fract_y
_atom_site_fract_z
_atom_type_partial_charge
O1    O     O_R   0.584770 0.505770 0.002090 -0.542200
O2    O     O_R   0.415230 0.005770 0.997910 -0.540844
O3    O     O_R   0.467060 0.173340 0.861950 -0.538674
O4    O     O_R   0.532940 0.673340 0.138050 -0.538268
C1    C     C_R   0.455307 0.342591 0.825937 0.678619
C2    C     C_R   0.544975 0.845912 0.173953 0.677702
O5    O     O_R   0.587510 0.175890 0.993210 -0.540492
O6    O     O_R   0.412490 0.675890 0.006790 -0.540794
O7    O     O_R   0.536540 0.008150 0.130100 -0.536517
O8    O     O_R   0.463460 0.508150 0.869900 -0.537798
C3    C     C_R   0.612962 0.345334 0.997312 0.731390
C4    C     C_R   0.386945 0.844509 0.002142 0.730091
O9    O     O_3   0.483140 0.340040 0.044760 -0.377440
O10   O     O_3   0.516860 0.840040 0.955240 -0.378309
V1    V     V_3+5 0.503130 0.064190 0.991700 1.418664
V2    V     V_3+5 0.496870 0.564190 0.008300 1.415603
C5    C     C_2   0.211493 0.728377 0.992267 -0.144060
C6    C     C_2   0.785261 0.227191 0.994437 -0.116915
C7    C     C_2   0.180288 0.888093 0.996001 -0.295489
C8    C     C_2   0.819704 0.386042 0.003625 -0.304852
H1    H     H_    0.186038 0.597275 0.987961 0.144514
H2    H     H_    0.807705 0.096322 0.987016 0.146372
H3    H     H_    0.203877 0.021254 0.998276 0.131754
H4    H     H_    0.798696 0.518310 0.011872 0.129035
C9    C     C_2   0.279698 0.714734 0.993758 -0.147617
C10   C     C_2   0.717368 0.214909 0.994715 -0.141054
C11   C     C_2   0.319749 0.860725 0.002466 -0.300795
C12   C     C_2   0.680045 0.362134 0.996193 -0.305807
H5    H     H_    0.297268 0.576001 0.987607 0.138094
H6    H     H_    0.697555 0.075922 0.992988 0.138117
H7    H     H_    0.303167 0.000331 0.008209 0.131964
H8    H     H_    0.698470 0.502055 0.996753 0.130604
C13   C     C_R   0.927864 0.872507 0.723721 -0.112861
C14   C     C_R   0.074193 0.392958 0.275721 -0.107797
C15   C     C_R   0.573499 0.860952 0.275186 -0.024603
C16   C     C_R   0.427353 0.340533 0.724465 -0.029881
C17   C     C_R   0.929994 0.714117 0.581373 -0.178656
C18   C     C_R   0.065461 0.448338 0.430828 -0.159893
C19   C     C_R   0.959149 0.760473 0.674587 -0.246513
C20   C     C_R   0.037172 0.432885 0.334856 -0.246087
C21   C     C_R   0.866626 0.939396 0.678756 0.316078
C22   C     C_R   0.140176 0.365930 0.312542 0.329649
C23   C     C_R   0.831978 0.865230 0.588884 -0.036150
C24   C     C_R   0.168867 0.363830 0.411494 -0.022177
C25   C     C_R   0.866618 0.763093 0.538526 0.096724
C26   C     C_R   0.130906 0.418175 0.469328 0.094312
C27   C     C_R   0.764616 0.884206 0.548099 0.054966
C28   C     C_R   0.234284 0.319524 0.454763 0.063164
C29   C     C_R   0.735805 0.831220 0.452361 0.059617
C30   C     C_R   0.263244 0.363931 0.551446 0.054482
C31   C     C_R   0.773892 0.743712 0.403193 -0.187607
C32   C     C_R   0.223821 0.426749 0.604896 -0.184934
C33   C     C_R   0.837507 0.706242 0.446433 -0.181555
C34   C     C_R   0.158684 0.446779 0.565020 -0.175169
C35   C     C_R   0.724428 0.939429 0.601761 -0.168730
C36   C     C_R   0.270729 0.223644 0.405879 -0.160090
C37   C     C_R   0.659397 0.960621 0.561488 -0.226648
C38   C     C_R   0.335435 0.196672 0.445117 -0.239148
C39   C     C_R   0.631571 0.925584 0.466379 0.145507
C40   C     C_R   0.365783 0.255097 0.536494 0.148976
C41   C     C_R   0.669220 0.860172 0.410202 0.079210
C42   C     C_R   0.330185 0.337039 0.591875 0.079035
C43   C     C_R   0.566021 0.954354 0.427080 -0.156275
C44   C     C_R   0.431119 0.222611 0.574466 -0.158145
C45   C     C_R   0.537275 0.923564 0.331894 -0.170518
C46   C     C_R   0.461423 0.262239 0.668205 -0.166641
C47   C     C_R   0.638682 0.829109 0.313673 -0.213984
C48   C     C_R   0.362924 0.383070 0.686249 -0.215956
H9    H     H_    0.864151 0.630710 0.407379 0.118927
H10   H     H_    0.130000 0.490493 0.609267 0.117915
H11   H     H_    0.664540 0.788729 0.265556 0.096226
H12   H     H_    0.339351 0.443328 0.733288 0.101507
H13   H     H_    0.486943 0.950802 0.302173 0.104014
H14   H     H_    0.511028 0.225922 0.697815 0.107122
H15   H     H_    0.630542 0.004480 0.605454 0.125343
H16   H     H_    0.361681 0.125185 0.404144 0.124853
H17   H     H_    0.955990 0.631631 0.544044 0.118016
H18   H     H_    0.036200 0.486272 0.475096 0.115919
H19   H     H_    0.006396 0.708815 0.708729 0.130389
H20   H     H_    0.986595 0.457895 0.306287 0.124206
H21   H     H_    0.755118 0.692377 0.332396 0.121541
H22   H     H_    0.241328 0.455895 0.678832 0.120061
H23   H     H_    0.741387 0.957734 0.676560 0.186406
H24   H     H_    0.249747 0.159907 0.338145 0.186579
H25   H     H_    0.537145 0.003384 0.469904 0.106798
H26   H     H_    0.458224 0.159147 0.532492 0.107061
O11   O     O_R   0.036450 0.233070 0.130130 -0.530208
O12   O     O_R   0.963550 0.733070 0.869870 -0.547141
O13   O     O_R   0.912470 0.560570 0.006790 -0.546303
O14   O     O_R   0.087530 0.060570 0.993210 -0.540443
C49   C     C_R   0.887035 0.391504 0.002787 0.720188
C50   C     C_R   0.112939 0.892332 0.997004 0.724027
O15   O     O_R   0.032920 0.562940 0.138050 -0.550705
O16   O     O_R   0.967080 0.062940 0.861950 -0.529497
O17   O     O_R   0.084790 0.730500 0.002090 -0.541250
O18   O     O_R   0.915210 0.230500 0.997910 -0.531874
C51   C     C_R   0.045004 0.395891 0.174440 0.742927
C52   C     C_R   0.955155 0.892490 0.825404 0.742518
O19   O     O_3   0.016820 0.396170 0.955260 -0.382660
O20   O     O_3   0.983180 0.896170 0.044740 -0.380675
V3    V     V_3+5 0.996880 0.672090 0.008300 1.405631
V4    V     V_3+5 0.003120 0.172090 0.991700 1.450019
O21   O     O_3   0.842227 0.076173 0.723797 -0.569361
C53   C     C_3   0.847707 0.248284 0.682375 0.101642
H27   H     H_    0.819468 0.247859 0.607149 0.126590
H28   H     H_    0.898497 0.281443 0.688766 0.127864
C54   C     C_3   0.822194 0.401176 0.732086 -0.665797
H29   H     H_    0.851466 0.412195 0.806247 0.216419
H30   H     H_    0.824309 0.535938 0.698068 0.177309
H31   H     H_    0.771960 0.370381 0.728783 0.215277
O22   O     O_3   0.176042 0.354354 0.250548 -0.572792
C55   C     C_3   0.202627 0.530925 0.243438 0.082672
H32   H     H_    0.221282 0.604149 0.312426 0.120791
H33   H     H_    0.166145 0.619243 0.195876 0.138499
C56   C     C_3   0.258082 0.507161 0.202940 -0.711643
H34   H     H_    0.242001 0.431488 0.134790 0.218198
H35   H     H_    0.277422 0.645413 0.192675 0.191690
H36   H     H_    0.296579 0.427121 0.251543 0.218907

loop_
_geom_bond_atom_site_label_1
_geom_bond_atom_site_label_2
_ccdc_geom_bond_type
C43   C45   A    
C17   C25   A    
O18   V4    S    
C21   C23   A    
O22   C55   S    
C14   C22   A    
O2    C4    A    
C2    O7    A    
C53   H28   S    
O12   V3    S    
C38   H16   S    
C27   C29   A    
O5    C3    A    
C13   C19   A    
C14   C20   A    
C16   C46   A    
C37   C39   A    
C15   C45   A    
C38   C40   A    
C56   H34   S    
C46   H14   S    
C1    C16   S    
C14   C51   S    
C45   H13   S    
C2    C15   S    
C40   C42   A    
C13   C52   S    
C44   H26   S    
C53   H27   S    
C7    C50   S    
C49   O18   A    
O14   V4    S    
C8    H4    S    
C24   C26   A    
C29   C31   A    
C6    C10   S    
C30   C32   A    
C54   H29   S    
C20   H20   S    
O13   C49   A    
C31   H21   S    
C47   H11   S    
C48   H12   S    
C28   C30   A    
C33   H9    S    
O6    V2    S    
C43   H25   S    
C54   H30   S    
C22   C24   A    
C55   H33   S    
C55   H32   S    
C32   C34   A    
C36   H24   S    
C9    H5    S    
C8    C49   S    
C39   C41   A    
C29   C41   A    
C4    C11   S    
C11   H7    S    
C12   H8    S    
O4    C2    A    
O15   V3    S    
C18   H18   S    
C56   H35   S    
C17   H17   S    
C50   O17   A    
C5    H1    S    
C21   O21   S    
C31   C33   A    
C19   H19   S    
O4    V2    S    
C7    H3    S    
C22   O22   S    
O11   V4    S    
C41   C47   A    
O14   C50   A    
C34   H10   S    
C15   C47   A    
O6    C4    A    
C56   H36   S    
C26   C34   A    
O1    V2    S    
C32   H22   S    
O2    V1    S    
C23   C25   A    
C10   H6    S    
C35   C37   A    
C30   C42   A    
C54   H31   S    
C35   H23   S    
O15   C51   A    
O3    V1    S    
C27   C35   A    
C28   C36   A    
O13   V3    S    
C6    H2    S    
C10   C12   D    
O3    C1    A    
C16   C48   A    
C9    C11   D    
C39   C43   A    
C42   C48   A    
C40   C44   A    
C13   C21   A    
C37   H15   S    
O7    V1    S    
C5    C9    S    
C1    O8    A    
C17   C19   A    
O8    V2    S    
C18   C20   A    
C3    C12   S    
O5    V1    S    
O20   V3    S    
C5    C7    D    
C36   C38   A    
C6    C8    D    
C55   C56   S    
C18   C26   A    
C25   C33   A    
O17   V3    S    
O19   V4    S    
O16   V4    S    
O9    V2    S    
O21   C53   S    
O16   C52   A    
O10   V1    S    
O1    C3    A    
C23   C27   A    
C53   C54   S    
O12   C52   A    
C24   C28   A    
C44   C46   A    
O11   C51   A    
