data_mof_unit_42530.cif
_audit_creation_date              2012-12-10T20:48:20-0500
_audit_creation_method            fapswitch 2.2
_symmetry_space_group_name_H-M    P1
_symmetry_Int_Tables_number       1
_space_group_crystal_system       triclinic
_cell_length_a                    10.774674
_cell_length_b                    8.863147
_cell_length_c                    8.28258
_cell_angle_alpha                 89.873791
_cell_angle_beta                  87.937894
_cell_angle_gamma                 90.714776
_cell_volume                      790.389332884

loop_
_atom_site_label
_atom_site_type_symbol
_atom_type_description
_atom_site_fract_x
_atom_site_fract_y
_atom_site_fract_z
_atom_type_partial_charge
C1    C     C_R   0.498940 0.218765 0.500181 0.875922
C2    C     C_1   0.492119 0.934226 0.500320 -0.209742
C3    C     C_3   0.071524 0.663544 0.571938 0.902794
C4    C     C_3   0.925454 0.659766 0.540274 0.833002
C5    C     C_3   0.120803 0.504210 0.513220 -0.367928
C6    C     C_3   0.879173 0.487518 0.504532 -0.333036
C7    C     C_3   0.176005 0.258051 0.840408 -0.311568
C8    C     C_3   0.024816 0.621442 0.101593 0.081062
C9    C     C_3   0.776680 0.299615 0.845270 -0.147491
C10   C     C_3   0.922650 0.252497 0.130732 -0.337228
C11   C     C_3   0.204346 0.743919 0.787705 -0.216076
C12   C     C_R   0.257572 0.501015 0.503668 0.961731
C13   C     C_3   0.113265 0.929408 0.509448 -0.290933
C14   C     C_3   0.864323 0.861389 0.725921 -0.290236
C15   C     C_3   0.787395 0.807080 0.378438 -0.301433
C16   C     C_R   0.742003 0.485644 0.498766 0.960897
C17   C     C_R   0.491661 0.780656 0.500292 0.907687
C18   C     C_1   0.494988 0.065310 0.500507 -0.216302
C19   C     C_3   0.068630 0.377173 0.636109 0.268064
C20   C     C_3   0.075498 0.475089 0.333668 0.156344
C21   C     C_3   0.922064 0.379122 0.644950 0.262630
C22   C     C_3   0.944913 0.409230 0.353679 0.205550
H1    H     H_    0.097444 0.268022 0.578786 -0.022548
H2    H     H_    0.048579 0.526677 0.021745 0.230582
H3    H     H_    0.820294 0.188235 0.862204 0.063805
H4    H     H_    0.708504 0.273911 0.752764 0.154482
H5    H     H_    0.724758 0.335403 0.956332 0.209923
H6    H     H_    0.844377 0.170580 0.124535 0.170562
H7    H     H_    0.000331 0.188906 0.183054 0.099993
H8    H     H_    0.964255 0.283821 0.013292 0.253646
H9    H     H_    0.188114 0.851133 0.853536 0.115791
H10   H     H_    0.272216 0.768064 0.687832 0.191464
H11   H     H_    0.247377 0.665593 0.873429 0.218398
H12   H     H_    0.132770 0.387889 0.270255 0.108083
H13   H     H_    0.090031 0.953393 0.637226 0.132899
H14   H     H_    0.040991 0.972593 0.430183 0.200012
H15   H     H_    0.198654 0.996220 0.478921 0.160396
H16   H     H_    0.879396 0.940153 0.623566 0.142272
H17   H     H_    0.935605 0.878265 0.817497 0.178366
H18   H     H_    0.774562 0.893312 0.785254 0.173039
H19   H     H_    0.722660 0.785455 0.481309 0.194037
H20   H     H_    0.750368 0.757620 0.266976 0.209398
H21   H     H_    0.793207 0.930951 0.359310 0.149748
H22   H     H_    0.895085 0.260021 0.614212 -0.008181
H23   H     H_    0.964070 0.292679 0.392086 0.033603
H24   H     H_    0.257703 0.232713 0.759735 0.186406
H25   H     H_    0.109900 0.160602 0.842499 0.118066
H26   H     H_    0.209469 0.273786 0.964431 0.176791
H27   H     H_    0.052196 0.728721 0.042167 0.147842
H28   H     H_    0.923435 0.631742 0.123632 0.213350
N1    N     N_1   0.500000 0.500030 0.073640 -0.044772
N2    N     N_1   0.500000 0.500030 0.926360 -0.054977
O1    O     O_R   0.500000 0.285340 0.636850 -0.659934
O2    O     O_3   0.088939 0.613254 0.245459 -0.553384
O3    O     O_3   0.867824 0.412810 0.799447 -0.502772
O4    O     O_3   0.879844 0.386490 0.210645 -0.561688
O5    O     O_3   0.088534 0.682061 0.741685 -0.636428
O6    O     O_3   0.138543 0.776120 0.475795 -0.583718
O7    O     O_3   0.855672 0.707374 0.682533 -0.569080
O8    O     O_3   0.907818 0.752694 0.401236 -0.637925
O9    O     O_R   0.500000 0.285340 0.363150 -0.619049
O10   O     O_R   0.314790 0.499970 0.636880 -0.603331
O11   O     O_R   0.314790 0.499970 0.363120 -0.601660
O12   O     O_R   0.685210 0.499970 0.636880 -0.562469
O13   O     O_R   0.685210 0.499970 0.363120 -0.583506
O14   O     O_R   0.500000 0.714650 0.636900 -0.631669
O15   O     O_R   0.500000 0.714650 0.363100 -0.613282
O16   O     O_3   0.117426 0.391960 0.792137 -0.531137
Zn1   Zn    Zn3+2 0.500000 0.499990 0.682780 0.965390
Zn2   Zn    Zn3+2 0.500000 0.499990 0.317220 0.989455

loop_
_geom_bond_atom_site_label_1
_geom_bond_atom_site_label_2
_ccdc_geom_bond_type
O9    Zn2   S    
C9    H3    S    
C19   H1    S    
C7    H24   S    
C5    C19   S    
N1    Zn2   S    
C10   H6    S    
C9    H4    S    
C2    C18   T    
C21   H22   S    
C10   O4    S    
C15   O8    S    
C10   H8    S    
C13   H15   S    
O11   Zn2   S    
O15   Zn2   S    
O1    Zn1   S    
C7    H26   S    
C4    O8    S    
C17   O14   A    
C11   H9    S    
C19   O16   S    
C5    C20   S    
O12   Zn1   S    
C2    C17   S    
C14   O7    S    
C10   H7    S    
C9    H5    S    
C1    C18   S    
C5    C12   S    
C9    O3    S    
C3    O5    S    
C4    O7    S    
C20   O2    S    
C19   C21   S    
C20   C22   S    
C11   H10   S    
C13   H13   S    
C16   O13   A    
O10   Zn1   S    
C14   H17   S    
N1    N2    T    
C17   O15   A    
O14   Zn1   S    
C14   H16   S    
C15   H21   S    
O13   Zn2   S    
C6    C22   S    
C3    O6    S    
C8    H28   S    
C11   H11   S    
C22   H23   S    
C12   O10   A    
C15   H19   S    
C13   H14   S    
C4    C6    S    
C20   H12   S    
C8    O2    S    
C13   O6    S    
C12   O11   A    
C1    O1    A    
C21   O3    S    
C22   O4    S    
N2    Zn1   S    
C16   O12   A    
C8    H2    S    
C7    O16   S    
C11   O5    S    
C6    C21   S    
C14   H18   S    
C8    H27   S    
C6    C16   S    
C3    C4    S    
C15   H20   S    
C7    H25   S    
C3    C5    S    
C1    O9    A    
