data_mof_unit_35476.cif
_audit_creation_date              2013-03-05T16:05:14-0500
_audit_creation_method            fapswitch 2.2
_symmetry_space_group_name_H-M    P1
_symmetry_Int_Tables_number       1
_space_group_crystal_system       triclinic
_cell_length_a                    11.534323
_cell_length_b                    15.030573
_cell_length_c                    15.353129
_cell_angle_alpha                 81.550835
_cell_angle_beta                  90.943818
_cell_angle_gamma                 103.674211
_cell_volume                      2557.75630492

loop_
_atom_site_label
_atom_site_type_symbol
_atom_site_description
_atom_site_fract_x
_atom_site_fract_y
_atom_site_fract_z
_atom_type_partial_charge
O1    O     O_R   0.466720 0.383110 0.605620 -0.555805
O2    O     O_R   0.533280 0.616890 0.394380 -0.575841
O3    O     O_R   0.509090 0.531900 0.639510 -0.632147
O4    O     O_R   0.490910 0.468100 0.360490 -0.643350
C1    C     C_R   0.485920 0.441963 0.662683 0.884509
C2    C     C_R   0.519409 0.558317 0.337599 0.886342
O5    O     O_R   0.644370 0.425610 0.483050 -0.571734
O6    O     O_R   0.355630 0.574390 0.516950 -0.542786
O7    O     O_R   0.686740 0.574390 0.516930 -0.621819
O8    O     O_R   0.313260 0.425610 0.483070 -0.611759
C3    C     C_R   0.717745 0.500690 0.500247 0.900156
C4    C     C_R   0.282253 0.499301 0.499794 0.907299
Zn1   Zn    Zn3+2 0.471710 0.400660 0.477370 1.013794
Zn2   Zn    Zn3+2 0.528290 0.599340 0.522630 1.011805
C5    C     C_1   0.838790 0.501821 0.500522 -0.135357
C6    C     C_1   0.161213 0.498209 0.499538 -0.112611
C7    C     C_1   0.940862 0.500968 0.500289 0.043666
C8    C     C_1   0.059153 0.499106 0.499784 0.054019
C9    C     C_R   0.498701 0.408994 0.756323 -0.099428
C10   C     C_R   0.547901 0.594433 0.244682 -0.087200
C11   C     C_R   0.527440 0.291010 0.875520 0.182243
C12   C     C_R   0.594142 0.721332 0.123302 0.193955
C13   C     C_R   0.498340 0.317026 0.787916 -0.192309
C14   C     C_R   0.566972 0.688700 0.212602 -0.230592
C15   C     C_R   0.524822 0.474707 0.813090 -0.230022
C16   C     C_R   0.560665 0.532796 0.188482 -0.238584
C17   C     C_R   0.563172 0.453431 0.898439 0.026246
C18   C     C_R   0.592684 0.562731 0.099942 0.030506
C19   C     C_R   0.563367 0.359908 0.931608 0.083016
C20   C     C_R   0.607651 0.658275 0.065477 0.088273
C21   C     C_R   0.594224 0.523441 0.952739 0.055797
C22   C     C_R   0.599199 0.497273 0.043784 0.057239
C23   C     C_R   0.609709 0.406494 0.075541 -0.270243
C24   C     C_R   0.620630 0.618693 0.918893 -0.275401
C25   C     C_R   0.598385 0.339399 0.019663 0.214265
C26   C     C_R   0.632945 0.686138 0.974288 0.168481
H1    H     H_    0.540165 0.459958 0.214111 0.173568
H2    H     H_    0.513254 0.543331 0.789882 0.173870
H3    H     H_    0.556659 0.736983 0.256186 0.187474
H4    H     H_    0.473975 0.264927 0.745159 0.233718
H5    H     H_    0.633408 0.387754 0.143011 0.149748
H6    H     H_    0.637739 0.642436 0.849315 0.166780
N1    N     N_R   0.566020 0.731700 0.552730 -0.166969
N2    N     N_R   0.433980 0.268300 0.447270 -0.165908
C27   C     C_R   0.714414 0.844656 0.612675 0.244701
C28   C     C_R   0.366756 0.178674 0.332084 0.255275
C29   C     C_R   0.665411 0.753559 0.600514 -0.142647
C30   C     C_R   0.378676 0.259045 0.369665 -0.133718
C31   C     C_R   0.509880 0.796457 0.513341 0.383600
C32   C     C_R   0.480085 0.200395 0.492496 0.412680
C33   C     C_R   0.559939 0.891645 0.517469 -0.140967
C34   C     C_R   0.480603 0.119826 0.454411 -0.140616
C35   C     C_R   0.657158 0.914819 0.575195 -0.124239
C36   C     C_R   0.413314 0.105328 0.376727 -0.128161
C37   C     C_R   0.515647 0.963931 0.467360 0.072129
C38   C     C_R   0.544169 0.053063 0.491729 0.071533
C39   C     C_R   0.640928 0.074652 0.547987 -0.198502
C40   C     C_R   0.451042 0.951633 0.389889 -0.209916
C41   C     C_R   0.694456 0.007357 0.591925 0.344635
C42   C     C_R   0.396929 0.018737 0.346344 0.348744
H7    H     H_    0.347967 0.316797 0.334672 0.191801
H8    H     H_    0.710217 0.699734 0.625735 0.193676
H9    H     H_    0.679395 0.145028 0.557016 0.214889
H10   H     H_    0.444722 0.890662 0.359628 0.206706
N3    N     N_2   0.623137 0.252416 0.053095 -0.270713
H11   H     H_    0.606273 0.232455 0.119747 0.262744
C43   C     C_3   0.740081 0.243916 0.028303 -0.689793
H12   H     H_    0.749430 0.172557 0.051970 0.251837
H13   H     H_    0.810498 0.293678 0.058474 0.233559
H14   H     H_    0.752625 0.257328 0.955559 0.255224
N4    N     N_2   0.668754 0.781116 0.936761 -0.289618
H15   H     H_    0.640808 0.795192 0.873092 0.255491
C44   C     C_3   0.794318 0.821934 0.945946 -0.577831
H16   H     H_    0.813780 0.896817 0.919307 0.270360
H17   H     H_    0.849123 0.787918 0.908872 0.256112
H18   H     H_    0.819262 0.814676 0.016396 0.226019
N5    N     N_2   0.517072 0.195408 0.906437 -0.299922
H19   H     H_    0.541990 0.159779 0.860185 0.260657
C45   C     C_3   0.402612 0.148268 0.947216 -0.593884
H20   H     H_    0.405059 0.076483 0.975884 0.250118
H21   H     H_    0.331241 0.145494 0.897450 0.232004
H22   H     H_    0.381605 0.184375 0.000924 0.281830
N6    N     N_2   0.601378 0.816530 0.092371 -0.297899
H23   H     H_    0.642337 0.860086 0.135660 0.235266
C46   C     C_3   0.489168 0.836066 0.062418 -0.637428
H24   H     H_    0.503671 0.910480 0.034812 0.248347
H25   H     H_    0.423873 0.820313 0.118261 0.260028
H26   H     H_    0.452043 0.794309 0.010011 0.240933
N7    N     N_R   0.776417 0.033280 0.660329 0.248318
O9    O     O_R   0.858557 0.110126 0.646652 -0.333672
O10   O     O_R   0.753669 0.990923 0.740593 -0.365960
N8    N     N_R   0.315838 0.992790 0.277532 0.253520
O11   O     O_R   0.347524 0.951253 0.216461 -0.384461
O12   O     O_R   0.203771 0.992679 0.286277 -0.302371
N9    N     N_R   0.512170 0.206274 0.582284 0.186567
O13   O     O_R   0.459506 0.141166 0.644145 -0.402648
O14   O     O_R   0.604845 0.268195 0.601134 -0.404021
N10   N     N_R   0.393973 0.765946 0.478008 0.204450
O15   O     O_R   0.301685 0.784585 0.512362 -0.346133
O16   O     O_R   0.381679 0.727735 0.406635 -0.396608
N11   N     N_R   0.829180 0.864853 0.652694 0.247062
O17   O     O_R   0.851180 0.810755 0.722044 -0.391311
O18   O     O_R   0.918025 0.923816 0.609617 -0.301265
N12   N     N_R   0.320404 0.178509 0.244793 0.238650
O19   O     O_R   0.226252 0.210352 0.224916 -0.352831
O20   O     O_R   0.385749 0.166138 0.181471 -0.409237

loop_
_geom_bond_atom_site_label_1
_geom_bond_atom_site_label_2
_geom_bond_distance
_ccdc_geom_bond_type
C37   C38   1.406370 A    
N11   O17   1.301336 A    
C17   C19   1.423527 A    
C44   H16   1.110308 S    
N9    O13   1.301368 A    
C24   H6    1.081228 S    
C29   H8    1.081929 S    
N12   O20   1.300518 A    
C35   C41   1.415657 A    
C36   C42   1.416499 A    
C46   H24   1.110497 S    
O5    C3    1.299275 A    
N6    H23   1.031890 S    
O1    C1    1.314472 A    
C32   N9    1.431297 S    
C39   C41   1.392968 A    
C25   N3    1.424328 S    
C40   C42   1.392684 A    
C13   H4    1.078915 S    
C14   H3    1.083844 S    
C38   C39   1.405806 A    
C41   N7    1.435924 S    
O4    Zn1   1.915490 S    
C31   N10   1.432225 S    
C3    C5    1.392189 S    
C4    C6    1.392283 S    
C31   C33   1.421001 A    
C32   C34   1.421289 A    
N7    O10   1.301493 A    
C24   C26   1.397314 A    
C26   N4    1.424038 S    
C27   C29   1.391002 A    
C27   C35   1.420514 A    
N11   O18   1.301416 A    
C44   H17   1.111382 S    
O2    C2    1.309572 A    
O2    Zn2   1.947801 S    
N12   O19   1.301333 A    
C34   C36   1.427694 A    
C39   H9    1.074331 S    
N5    C45   1.446232 S    
C40   H10   1.073974 S    
C28   C30   1.390973 A    
C46   H25   1.111598 S    
C17   C21   1.414338 A    
C43   H12   1.110378 S    
C10   C14   1.396302 A    
C18   C22   1.415415 A    
O4    C2    1.312773 A    
N4    C44   1.446526 S    
C28   N12   1.434820 S    
N1    C31   1.358127 A    
N3    C43   1.446837 S    
N5    H19   1.031930 S    
C11   C19   1.425869 A    
C33   C35   1.427424 A    
C9    C13   1.395152 A    
O7    Zn2   1.956381 S    
C15   H2    1.078964 S    
C21   C22   1.399423 A    
O6    C4    1.299185 A    
C28   C36   1.421004 A    
N8    O12   1.301356 A    
C7    C8    1.371462 S    
C21   C24   1.411713 A    
O7    C3    1.301662 A    
O3    Zn2   1.915493 S    
O8    C4    1.301742 A    
N6    C46   1.446808 S    
N10   O15   1.301053 A    
N10   O16   1.300790 A    
C11   C13   1.402571 A    
C44   H18   1.111081 S    
C12   C14   1.400846 A    
O1    Zn1   1.947801 S    
C45   H21   1.111591 S    
C46   H26   1.111149 S    
N2    C32   1.357524 A    
C5    C7    1.180507 T    
O6    Zn2   1.940401 S    
C12   C20   1.425625 A    
O3    C1    1.310096 A    
O8    Zn1   1.956381 S    
C45   H22   1.110616 S    
N9    O14   1.300455 A    
C16   H1    1.078615 S    
C1    C9    1.467094 S    
C15   C17   1.392713 A    
C2    C10   1.463324 S    
C19   C25   1.415719 A    
C16   C18   1.394622 A    
C20   C26   1.415622 A    
C43   H14   1.110991 S    
C23   H5    1.080942 S    
C12   N6    1.423036 S    
C18   C20   1.426405 A    
N4    H15   1.032128 S    
C22   C23   1.412419 A    
C30   H7    1.081509 S    
C10   C16   1.388539 A    
N8    O11   1.301419 A    
C23   C25   1.399421 A    
C33   C37   1.427322 A    
C9    C15   1.389089 A    
C45   H20   1.110464 S    
N2    C30   1.351884 A    
O5    Zn1   1.940401 S    
C6    C8    1.180523 T    
N3    H11   1.031384 S    
C37   C40   1.405151 A    
C11   N5    1.422902 S    
C43   H13   1.111701 S    
N7    O9    1.301421 A    
C42   N8    1.434972 S    
N1    C29   1.351094 A    
Zn1   N2    2.053060 S    
C34   C38   1.427548 A    
Zn2   N1    2.053059 S    
C27   N11   1.435274 S    
