data_mof_unit_30910.cif
_audit_creation_date              2012-12-11T15:59:37-0500
_audit_creation_method            fapswitch 2.2
_symmetry_space_group_name_H-M    P1
_symmetry_Int_Tables_number       1
_space_group_crystal_system       triclinic
_cell_length_a                    10.702811
_cell_length_b                    10.734052
_cell_length_c                    17.069328
_cell_angle_alpha                 99.59043
_cell_angle_beta                  99.911349
_cell_angle_gamma                 60.88945
_cell_volume                      1679.88138427

loop_
_atom_site_label
_atom_site_type_symbol
_atom_type_description
_atom_site_fract_x
_atom_site_fract_y
_atom_site_fract_z
_atom_type_partial_charge
C1    C     C_R   0.356605 0.768703 0.397443 0.533384
C2    C     C_R   0.857905 0.203239 0.197942 0.026412
C3    C     C_R   0.868151 0.213891 0.281980 0.014375
C4    C     C_R   0.778614 0.471284 0.284316 -0.139867
C5    C     C_R   0.784128 0.458774 0.203792 -0.155863
C6    C     C_R   0.878657 0.070444 0.155435 -0.064754
C7    C     C_R   0.931677 0.948341 0.195130 -0.127428
C8    C     C_R   0.957330 0.957012 0.277996 -0.108533
C9    C     C_R   0.924359 0.088771 0.321427 -0.063556
C10   C     C_R   0.820357 0.350167 0.324204 0.001690
C11   C     C_R   0.359926 0.808102 0.155347 -0.007416
C12   C     C_R   0.369309 0.346521 0.357474 0.547342
C13   C     C_R   0.452476 0.842376 0.214299 -0.023645
C14   C     C_R   0.436908 0.851021 0.295788 -0.033538
C15   C     C_R   0.285992 0.734583 0.256035 -0.081197
C16   C     C_R   0.291297 0.737275 0.176249 0.210114
C17   C     C_R   0.560663 0.866797 0.194393 -0.144287
C18   C     C_R   0.642103 0.910565 0.253116 -0.065849
C19   C     C_R   0.619619 0.931166 0.333038 0.261970
C20   C     C_R   0.513456 0.905925 0.354106 -0.088436
C21   C     C_R   0.349553 0.799012 0.316284 -0.038553
C22   C     C_R   0.281410 0.251287 0.794113 -0.067194
C23   C     C_R   0.774859 0.378390 0.403146 0.531331
C24   C     C_R   0.411482 0.158562 0.759506 0.021530
C25   C     C_R   0.449707 0.213912 0.705439 0.000612
C26   C     C_R   0.195408 0.391438 0.681036 0.209884
C27   C     C_R   0.172700 0.365068 0.753082 -0.096420
C28   C     C_R   0.512679 0.021593 0.784030 -0.070217
C29   C     C_R   0.656117 0.958597 0.769670 -0.102827
C30   C     C_R   0.701105 0.033314 0.732806 -0.102024
C31   C     C_R   0.599183 0.161366 0.702112 -0.078754
C32   C     C_R   0.337596 0.320731 0.658664 -0.007882
C33   C     C_1   0.845329 0.329425 0.705646 -0.048718
C34   C     C_R   0.381146 0.715258 0.631592 0.556920
C35   C     C_1   0.891663 0.294305 0.772251 -0.060454
C36   C     C_1   0.358284 0.765268 0.713755 -0.038952
C37   C     C_1   0.325365 0.811975 0.780604 -0.048458
C38   C     C_R   0.891079 0.308435 0.086985 0.552415
C39   C     C_R   0.319524 0.299842 0.120029 0.588909
C40   C     C_R   0.299298 0.885274 0.083441 0.542930
C41   C     C_R   0.942220 0.273986 0.854559 0.531346
C42   C     C_R   0.274214 0.245659 0.878330 0.541770
C43   C     C_R   0.280802 0.881073 0.857698 0.530318
C44   C     C_R   0.373778 0.349921 0.587519 0.520184
C45   C     C_R   0.777593 0.378650 0.629086 0.545613
C46   C     C_1   0.343022 0.336695 0.274091 -0.033958
C47   C     C_1   0.332155 0.326515 0.203297 -0.011632
C48   C     C_R   0.830080 0.325319 0.160372 -0.001516
Cr1   Cr    Cr6+3 0.608100 0.610860 0.522250 1.039558
Cr2   Cr    Cr6+3 0.288890 0.599990 0.488420 1.037557
Cr3   Cr    Cr6+3 0.603040 0.289190 0.489390 1.031765
Cr4   Cr    Cr6+3 0.053960 0.052250 0.967380 1.022408
Cr5   Cr    Cr6+3 0.059890 0.373160 0.992710 1.038623
Cr6   Cr    Cr6+3 0.373370 0.061690 0.991710 0.993059
H1    H     H_    0.738154 0.578275 0.314967 0.160748
H2    H     H_    0.723115 0.928514 0.235896 0.140101
H3    H     H_    0.493250 0.927899 0.416092 0.121183
H4    H     H_    0.483983 0.964861 0.816900 0.155599
H5    H     H_    0.070104 0.432788 0.776589 0.161745
H6    H     H_    0.733276 0.856323 0.791342 0.127690
H7    H     H_    0.814118 0.991688 0.727108 0.137585
H8    H     H_    0.639067 0.219322 0.677497 0.159659
H9    H     H_    0.849989 0.059331 0.091816 0.146325
H10   H     H_    0.758935 0.553239 0.176066 0.138544
H11   H     H_    0.949297 0.847238 0.161636 0.154649
H12   H     H_    0.996917 0.862463 0.308876 0.149045
H13   H     H_    0.944402 0.091633 0.385870 0.141400
H14   H     H_    0.233333 0.678269 0.270601 0.158164
H15   H     H_    0.589392 0.844892 0.134083 0.140252
O1    O     O_R   0.749810 0.499790 0.438040 -0.519425
O2    O     O_R   0.298970 0.468800 0.557390 -0.499002
O3    O     O_R   0.489400 0.255930 0.561910 -0.537604
O4    O     O_R   0.723890 0.306050 0.584610 -0.523001
O5    O     O_3   0.500010 0.500010 0.500020 -0.275212
O6    O     O_R   0.171100 0.914680 0.053100 -0.489651
O7    O     O_R   0.941680 0.184840 0.050710 -0.506253
O8    O     O_R   0.922080 0.403420 0.072610 -0.511259
O9    O     O_R   0.196880 0.369150 0.083850 -0.466097
O10   O     O_R   0.411730 0.181020 0.091530 -0.515604
O11   O     O_R   0.365010 0.944360 0.063320 -0.511157
O12   O     O_R   0.477660 0.726260 0.439290 -0.501433
O13   O     O_R   0.159380 0.906670 0.876210 -0.503041
O14   O     O_R   0.930820 0.177420 0.886730 -0.485756
O15   O     O_R   0.910360 0.395420 0.895720 -0.512969
O16   O     O_R   0.186010 0.361730 0.919870 -0.499800
O17   O     O_R   0.400000 0.173010 0.914630 -0.506023
O18   O     O_R   0.354140 0.936940 0.899340 -0.545861
O19   O     O_3   0.162410 0.162370 0.983930 -0.291748
O20   O     O_R   0.260150 0.743000 0.412270 -0.526106
O21   O     O_R   0.297740 0.466550 0.394720 -0.508167
O22   O     O_R   0.488080 0.253500 0.386430 -0.470704
O23   O     O_R   0.722670 0.303800 0.421940 -0.480822
O24   O     O_R   0.751130 0.502220 0.613520 -0.478652
O25   O     O_R   0.478890 0.728510 0.601960 -0.491079
O26   O     O_R   0.261470 0.745430 0.587750 -0.489228
O27   O     O_3   0.705644 0.971727 0.389192 -0.685148
H16   H     H_    0.678232 0.979209 0.443085 0.322495
O28   O     O_3   0.078960 0.490633 0.637258 -0.674118
H17   H     H_    0.091148 0.459713 0.579905 0.337693
O29   O     O_3   0.225173 0.673023 0.120511 -0.704757
H18   H     H_    0.263187 0.655843 0.068553 0.336713

loop_
_geom_bond_atom_site_label_1
_geom_bond_atom_site_label_2
_ccdc_geom_bond_type
C25   C31   A    
C1    C21   S    
C33   C45   S    
C12   O22   A    
C19   C20   A    
C23   O1    A    
Cr3   O5    S    
Cr4   O6    S    
C45   O24   A    
C7    C8    A    
C38   O7    A    
C8    H12   S    
C26   C27   A    
Cr5   O15   S    
C14   C21   A    
C12   O21   A    
C28   C29   A    
Cr2   O5    S    
C30   C31   A    
Cr3   O4    S    
Cr2   O26   S    
C1    O12   A    
C15   C16   A    
C41   O14   A    
C44   O2    A    
C45   O4    A    
C18   C19   A    
Cr1   O12   S    
Cr3   O22   S    
C46   C47   T    
Cr2   O21   S    
C8    C9    A    
C22   C42   S    
C40   O11   A    
C42   O17   A    
Cr1   O25   S    
C24   C28   A    
C38   C48   S    
C18   H2    S    
C25   C32   A    
C13   C14   A    
C31   H8    S    
C2    C6    A    
Cr6   O11   S    
C5    C48   A    
C39   O9    A    
C14   C20   A    
Cr4   O19   S    
C34   O26   A    
C12   C46   S    
Cr6   O17   S    
C26   C32   A    
C16   O29   S    
C2    C48   A    
C41   O15   A    
C5    H10   S    
C39   O10   A    
C6    H9    S    
C37   C43   S    
Cr4   O14   S    
Cr5   O8    S    
Cr2   O2    S    
C9    H13   S    
C29   C30   A    
C3    C9    A    
Cr3   O23   S    
C7    H11   S    
C11   C16   A    
Cr2   O20   S    
C29   H6    S    
O27   H16   S    
C17   C18   A    
C32   C44   S    
C42   O16   A    
C24   C25   A    
Cr4   O13   S    
C26   O28   S    
Cr1   O1    S    
C4    H1    S    
C22   C24   A    
Cr3   O3    S    
C4    C10   A    
C39   C47   S    
Cr6   O10   S    
C17   H15   S    
C36   C37   T    
C1    O20   A    
Cr1   O5    S    
C34   O25   A    
C4    C5    A    
Cr4   O7    S    
C6    C7    A    
C38   O8    A    
C28   H4    S    
C10   C23   S    
C40   O6    A    
C13   C17   A    
C22   C27   A    
C43   O18   A    
C2    C3    A    
C3    C10   A    
C27   H5    S    
Cr6   O19   S    
C11   C13   A    
Cr6   O18   S    
C15   H14   S    
O29   H18   S    
C33   C35   T    
C44   O3    A    
Cr5   O19   S    
C34   C36   S    
C11   C40   S    
C35   C41   S    
Cr5   O9    S    
C15   C21   A    
O28   H17   S    
C30   H7    S    
C43   O13   A    
C23   O23   A    
Cr5   O16   S    
Cr1   O24   S    
C20   H3    S    
C19   O27   S    
