data_mof_unit_57460.cif
_audit_creation_date              2012-12-10T18:58:11-0500
_audit_creation_method            fapswitch 2.2
_symmetry_space_group_name_H-M    P1
_symmetry_Int_Tables_number       1
_space_group_crystal_system       triclinic
_cell_length_a                    10.65242
_cell_length_b                    10.127972
_cell_length_c                    15.717692
_cell_angle_alpha                 89.07513
_cell_angle_beta                  94.096003
_cell_angle_gamma                 90.949878
_cell_volume                      1690.98714823

loop_
_atom_site_label
_atom_site_type_symbol
_atom_type_description
_atom_site_fract_x
_atom_site_fract_y
_atom_site_fract_z
_atom_type_partial_charge
C1    C     C_R   0.872261 0.500742 0.502066 0.000889
C2    C     C_R   0.580457 0.392349 0.962802 0.050677
C3    C     C_R   0.551956 0.507623 0.914722 0.035944
C4    C     C_R   0.563158 0.518096 0.090700 0.031519
C5    C     C_1   0.535319 0.499532 0.824495 -0.032759
C6    C     C_1   0.541851 0.512157 0.178990 -0.054796
C7    C     C_1   0.521523 0.505777 0.252343 -0.212297
C8    C     C_1   0.519057 0.497032 0.749178 -0.224826
C9    C     C_R   0.569863 0.070023 0.561488 0.098033
C10   C     C_R   0.412571 0.929645 0.450438 0.090062
C11   C     C_R   0.430375 0.069713 0.438688 0.091103
C12   C     C_R   0.128425 0.497592 0.503518 0.008882
C13   C     C_R   0.586025 0.930485 0.551094 0.102048
C14   C     C_R   0.058136 0.395336 0.464396 -0.201810
C15   C     C_R   0.942696 0.600362 0.544250 -0.219194
C16   C     C_R   0.929590 0.397403 0.462830 -0.194538
C17   C     C_R   0.071444 0.599472 0.544458 -0.192269
C18   C     C_3   0.620682 0.129084 0.646211 -0.381810
C19   C     C_3   0.742320 0.213244 0.641796 -0.254637
C20   C     C_3   0.839742 0.186312 0.715880 -0.977112
C21   C     C_3   0.283400 0.872784 0.422204 -0.347485
C22   C     C_3   0.275676 0.790979 0.340133 -0.273736
C23   C     C_R   0.260990 0.499101 0.500953 0.826785
C24   C     C_3   0.145935 0.800959 0.292508 -0.955283
C25   C     C_3   0.396612 0.123949 0.348997 -0.350264
C26   C     C_3   0.274316 0.202842 0.337211 -0.304757
C27   C     C_3   0.227852 0.217936 0.243431 -0.959672
C28   C     C_3   0.709805 0.872961 0.587468 -0.384999
C29   C     C_3   0.700736 0.788407 0.669396 -0.272399
C30   C     C_3   0.805295 0.817997 0.738437 -1.000920
C31   C     C_3   0.490878 0.756813 0.087846 -0.388400
C32   C     C_3   0.348128 0.754286 0.096804 -0.321445
C33   C     C_3   0.297565 0.892955 0.106499 -0.927743
C34   C     C_R   0.739236 0.500738 0.500912 0.824690
C35   C     C_3   0.568378 0.259186 0.919324 -0.409485
C36   C     C_3   0.428042 0.228184 0.896919 -0.334655
C37   C     C_3   0.407308 0.085513 0.872230 -0.930571
C38   C     C_3   0.496648 0.748051 0.895241 -0.376751
C39   C     C_3   0.353700 0.750293 0.870127 -0.314562
C40   C     C_3   0.323563 0.785444 0.775947 -0.885443
C41   C     C_3   0.660127 0.290004 0.105709 -0.396614
C42   C     C_3   0.564139 0.188222 0.136008 -0.336187
C43   C     C_3   0.630373 0.074858 0.185032 -0.925927
C44   C     C_R   0.502064 0.501223 0.339750 0.879000
C45   C     C_R   0.502403 0.498939 0.660202 0.866846
C46   C     C_R   0.531585 0.629544 0.952908 0.046074
C47   C     C_R   0.598903 0.401292 0.051932 0.048869
C48   C     C_R   0.531579 0.633821 0.042768 0.048156
H1    H     H_    0.101708 0.315615 0.433910 0.135397
H2    H     H_    0.545775 0.181891 0.675762 0.209434
H3    H     H_    0.637860 0.048419 0.693822 0.194959
H4    H     H_    0.071521 0.770059 0.335100 0.274879
H5    H     H_    0.128817 0.903883 0.269771 0.271189
H6    H     H_    0.140168 0.734864 0.236684 0.255666
H7    H     H_    0.349193 0.822399 0.297310 0.212239
H8    H     H_    0.289011 0.685445 0.355254 0.250208
H9    H     H_    0.242631 0.820211 0.475801 0.204712
H10   H     H_    0.216606 0.954622 0.412910 0.176575
H11   H     H_    0.296845 0.275973 0.207990 0.263263
H12   H     H_    0.899450 0.676720 0.578284 0.149634
H13   H     H_    0.211660 0.119910 0.213740 0.271770
H14   H     H_    0.137435 0.271533 0.238546 0.253681
H15   H     H_    0.198693 0.154250 0.371274 0.196224
H16   H     H_    0.288661 0.303035 0.361893 0.258374
H17   H     H_    0.477934 0.178145 0.325335 0.222469
H18   H     H_    0.386663 0.040294 0.304512 0.179622
H19   H     H_    0.898775 0.821200 0.711281 0.267961
H20   H     H_    0.788143 0.912720 0.769544 0.272310
H21   H     H_    0.805903 0.739174 0.788433 0.261073
H22   H     H_    0.608965 0.803142 0.696964 0.229644
H23   H     H_    0.875230 0.319225 0.430541 0.147860
H24   H     H_    0.710507 0.683229 0.653695 0.240691
H25   H     H_    0.752778 0.820824 0.536462 0.199848
H26   H     H_    0.780009 0.953502 0.599981 0.198877
H27   H     H_    0.345030 0.941003 0.163132 0.265998
H28   H     H_    0.313213 0.954429 0.049109 0.259307
H29   H     H_    0.194840 0.887355 0.114035 0.257617
H30   H     H_    0.297120 0.708308 0.040538 0.217661
H31   H     H_    0.327190 0.693039 0.153466 0.219803
H32   H     H_    0.540181 0.763907 0.152370 0.194187
H33   H     H_    0.520961 0.848597 0.055686 0.199341
H34   H     H_    0.126240 0.676764 0.577309 0.142508
H35   H     H_    0.472084 0.058491 0.823226 0.265669
H36   H     H_    0.424703 0.023619 0.930236 0.258354
H37   H     H_    0.308377 0.069655 0.846729 0.265362
H38   H     H_    0.372417 0.247516 0.952604 0.219509
H39   H     H_    0.390679 0.291215 0.842870 0.234246
H40   H     H_    0.620494 0.260896 0.860555 0.196860
H41   H     H_    0.609961 0.177951 0.959240 0.205798
H42   H     H_    0.378422 0.873223 0.756231 0.259499
H43   H     H_    0.345250 0.701457 0.735516 0.274073
H44   H     H_    0.221707 0.806456 0.764642 0.242119
H45   H     H_    0.795506 0.186386 0.777734 0.261798
H46   H     H_    0.308857 0.652598 0.882713 0.217125
H47   H     H_    0.308751 0.823292 0.909559 0.221425
H48   H     H_    0.530733 0.841565 0.923678 0.166180
H49   H     H_    0.550665 0.746049 0.837509 0.211020
H50   H     H_    0.691595 0.021958 0.142976 0.262434
H51   H     H_    0.688355 0.112956 0.241173 0.265857
H52   H     H_    0.559664 0.003749 0.208002 0.245686
H53   H     H_    0.501118 0.236671 0.178507 0.231289
H54   H     H_    0.505106 0.147293 0.081383 0.229585
H55   H     H_    0.732194 0.241322 0.069818 0.187950
H56   H     H_    0.885721 0.090560 0.707549 0.271392
H57   H     H_    0.714333 0.331957 0.162346 0.203622
H58   H     H_    0.914126 0.264568 0.716995 0.263330
H59   H     H_    0.787149 0.195959 0.581322 0.226334
H60   H     H_    0.719283 0.318853 0.645779 0.243179
N1    N     N_R   0.500000 0.857200 0.500000 -0.113771
N2    N     N_R   0.500000 0.142800 0.500000 -0.114954
O1    O     O_R   0.316770 0.614620 0.499990 -0.634718
O2    O     O_R   0.683230 0.385380 0.500010 -0.634505
O3    O     O_R   0.683230 0.614620 0.500010 -0.626960
O4    O     O_R   0.316770 0.385380 0.499990 -0.624109
O5    O     O_R   0.499980 0.614630 0.378020 -0.615775
O6    O     O_R   0.500020 0.385370 0.621980 -0.618356
O7    O     O_R   0.500020 0.614630 0.621980 -0.625777
O8    O     O_R   0.499980 0.385370 0.378020 -0.620841
Zn1   Zn    Zn3+2 0.500000 0.653120 0.500000 0.918044
Zn2   Zn    Zn3+2 0.500000 0.346880 0.500000 0.920809

loop_
_geom_bond_atom_site_label_1
_geom_bond_atom_site_label_2
_ccdc_geom_bond_type
C2    C35   S    
C24   H4    S    
C20   H45   S    
C34   O2    A    
C15   H12   S    
C35   C36   S    
C43   H50   S    
C28   H26   S    
C31   H32   S    
C34   O3    A    
C12   C23   S    
N1    Zn1   S    
C26   C27   S    
C41   H57   S    
C37   H37   S    
C36   C37   S    
C43   H51   S    
C18   C19   S    
O7    Zn1   S    
C38   C39   S    
C14   H1    S    
C11   C25   S    
C24   H6    S    
C10   N1    A    
O1    Zn1   S    
C17   H34   S    
C41   C42   S    
C9    C13   A    
C8    C45   S    
C13   N1    A    
C27   H13   S    
O3    Zn1   S    
C33   H27   S    
C19   C20   S    
C44   O5    A    
C12   C17   A    
C1    C34   S    
C37   H36   S    
C1    C15   A    
C30   H19   S    
C29   H24   S    
C19   H60   S    
C36   H39   S    
C21   C22   S    
C11   N2    A    
C16   H23   S    
C38   H49   S    
C28   H25   S    
C42   H54   S    
C18   H3    S    
C20   H58   S    
C10   C21   S    
C46   C48   A    
C25   H17   S    
C43   H52   S    
C4    C6    S    
N2    Zn2   S    
C39   C40   S    
O2    Zn2   S    
C22   H8    S    
C36   H38   S    
C25   C26   S    
C41   H55   S    
C26   H15   S    
C39   H46   S    
C21   H9    S    
C29   C30   S    
C27   H14   S    
C35   H40   S    
C33   H28   S    
C31   C32   S    
C44   O8    A    
C41   C47   S    
C13   C28   S    
C1    C16   A    
C7    C44   S    
C40   H44   S    
C39   H47   S    
C22   H7    S    
C35   H41   S    
C12   C14   A    
O5    Zn1   S    
C31   C48   S    
C14   C16   A    
C42   C43   S    
C42   H53   S    
C30   H21   S    
C18   H2    S    
C29   H22   S    
C4    C48   A    
C45   O7    A    
C9    N2    A    
C15   C17   A    
C28   C29   S    
C25   H18   S    
C3    C5    S    
C5    C8    T    
C6    C7    T    
C20   H56   S    
C26   H16   S    
C2    C47   A    
C23   O1    A    
C3    C46   A    
C31   H33   S    
C32   C33   S    
C2    C3    A    
C24   H5    S    
C21   H10   S    
C27   H11   S    
C32   H31   S    
C45   O6    A    
C33   H29   S    
C22   C24   S    
C40   H43   S    
C30   H20   S    
O8    Zn2   S    
C38   C46   S    
C10   C11   A    
C32   H30   S    
O6    Zn2   S    
C9    C18   S    
C38   H48   S    
C37   H35   S    
C40   H42   S    
O4    Zn2   S    
C23   O4    A    
C4    C47   A    
C19   H59   S    
