data_mof_unit_56097.cif
_audit_creation_date              2013-03-05T16:44:44-0500
_audit_creation_method            fapswitch 2.2
_symmetry_space_group_name_H-M    P1
_symmetry_Int_Tables_number       1
_space_group_crystal_system       triclinic
_cell_length_a                    14.940272
_cell_length_b                    15.904748
_cell_length_c                    17.113415
_cell_angle_alpha                 95.735887
_cell_angle_beta                  89.146083
_cell_angle_gamma                 92.39224
_cell_volume                      4042.38911037

loop_
_atom_site_label
_atom_site_type_symbol
_atom_site_description
_atom_site_fract_x
_atom_site_fract_y
_atom_site_fract_z
_atom_type_partial_charge
O1    O     O_R   0.495940 0.420530 0.382500 -0.551949
O2    O     O_R   0.504060 0.579470 0.617500 -0.605774
O3    O     O_R   0.503270 0.563720 0.388950 -0.544763
O4    O     O_R   0.496730 0.436280 0.611050 -0.519767
C1    C     C_R   0.497251 0.490198 0.348626 0.848606
C2    C     C_R   0.498877 0.509514 0.651181 0.825369
O5    O     O_R   0.366590 0.428400 0.496760 -0.591504
O6    O     O_R   0.633410 0.571600 0.503240 -0.536525
O7    O     O_R   0.373920 0.571590 0.503210 -0.537299
O8    O     O_R   0.626080 0.428410 0.496790 -0.580760
C3    C     C_R   0.328926 0.500282 0.500617 0.813889
C4    C     C_R   0.670854 0.499772 0.500202 0.832863
Cu1   Cu    Cu3+1 0.495660 0.415220 0.496180 0.999375
Cu2   Cu    Cu3+1 0.504340 0.584780 0.503820 0.994578
C5    C     C_R   0.812468 0.517023 0.572525 0.405969
C6    C     C_R   0.186535 0.496900 0.429520 0.417353
C7    C     C_R   0.767040 0.498674 0.501518 -0.193168
C8    C     C_R   0.232259 0.500240 0.500647 -0.176508
C9    C     C_R   0.812102 0.474495 0.431964 -0.266527
C10   C     C_R   0.186249 0.498417 0.571688 -0.281511
C11   C     C_R   0.905155 0.470544 0.430717 -0.017233
C12   C     C_R   0.092739 0.496320 0.573859 -0.017095
C13   C     C_R   0.951974 0.485478 0.502513 -0.080209
C14   C     C_R   0.045913 0.485947 0.501901 -0.076752
C15   C     C_R   0.904897 0.503337 0.574581 -0.104895
C16   C     C_R   0.093243 0.480264 0.429133 -0.117971
C17   C     C_R   0.952208 0.454429 0.359046 0.252304
C18   C     C_R   0.045321 0.506122 0.646041 0.248212
C19   C     C_R   0.046032 0.459892 0.358129 0.321846
C20   C     C_R   0.951631 0.508522 0.646353 0.331250
H1    H     H_    0.773669 0.462498 0.378583 0.190277
H2    H     H_    0.224374 0.500932 0.625004 0.171612
C21   C     C_R   0.489588 0.485593 0.262526 -0.176333
C22   C     C_R   0.493533 0.512462 0.736994 -0.178443
C23   C     C_R   0.493302 0.559416 0.222794 0.406730
C24   C     C_R   0.464640 0.440488 0.774718 0.430166
C25   C     C_R   0.488043 0.551512 0.140975 -0.341345
C26   C     C_R   0.462267 0.445594 0.856324 -0.305713
C27   C     C_R   0.475102 0.471818 0.098008 0.243854
C28   C     C_R   0.487141 0.521647 0.901427 0.235235
C29   C     C_R   0.469910 0.398954 0.137619 0.438640
C30   C     C_R   0.516690 0.592304 0.864125 0.453873
C31   C     C_R   0.475201 0.406212 0.219588 -0.358438
C32   C     C_R   0.517717 0.588062 0.782242 -0.406879
N1    N     N_2   0.471178 0.462281 0.014765 -0.215624
N2    N     N_2   0.486929 0.529466 0.984482 -0.216208
H3    H     H_    0.441415 0.389519 0.883966 0.190793
H4    H     H_    0.495163 0.608256 0.111176 0.191261
H5    H     H_    0.468474 0.349257 0.249369 0.223713
H6    H     H_    0.538887 0.643878 0.754334 0.174621
N3    N     N_R   0.510860 0.712130 0.509560 -0.277499
N4    N     N_R   0.489140 0.287870 0.490440 -0.298337
C33   C     C_R   0.439616 0.758625 0.538667 0.426924
C34   C     C_R   0.542339 0.247169 0.538749 0.439131
C35   C     C_R   0.439821 0.847931 0.536659 0.202731
C36   C     C_R   0.530127 0.158866 0.543828 0.198562
C37   C     C_R   0.518946 0.891586 0.513826 0.069377
C38   C     C_R   0.482356 0.108073 0.484287 0.063942
C39   C     C_R   0.594591 0.844393 0.493585 0.065074
C40   C     C_R   0.436269 0.150252 0.429381 0.067842
C41   C     C_R   0.587058 0.754534 0.484888 0.408960
C42   C     C_R   0.431531 0.239749 0.440268 0.434638
N5    N     N_2   0.528084 0.982090 0.520774 -0.090344
N6    N     N_2   0.476324 0.016719 0.478216 -0.079836
O9    O     O_3   0.765231 0.543555 0.640280 -0.614009
C43   C     C_3   0.748450 0.630919 0.642441 0.085322
H7    H     H_    0.676299 0.638503 0.656662 0.169792
H8    H     H_    0.761690 0.658802 0.585762 0.178062
C44   C     C_3   0.803907 0.681313 0.706790 -0.319368
H9    H     H_    0.795225 0.651571 0.762540 0.236348
H10   H     H_    0.875916 0.680722 0.689640 0.251860
C45   C     C_3   0.775675 0.772787 0.720052 -0.915236
H11   H     H_    0.785420 0.804365 0.665353 0.299289
H12   H     H_    0.817110 0.807580 0.767017 0.264268
H13   H     H_    0.704140 0.775162 0.738521 0.240507
O10   O     O_3   0.233795 0.505769 0.360316 -0.604716
C46   C     C_3   0.252464 0.592746 0.352703 0.059377
H14   H     H_    0.313300 0.596896 0.315356 0.153058
H15   H     H_    0.268132 0.630576 0.409586 0.168451
C47   C     C_3   0.175512 0.632153 0.312640 -0.319997
H16   H     H_    0.163605 0.597540 0.253810 0.263816
H17   H     H_    0.113378 0.627489 0.348617 0.229857
C48   C     C_3   0.196140 0.725370 0.303098 -0.901084
H18   H     H_    0.211361 0.761035 0.360866 0.276244
H19   H     H_    0.137128 0.752806 0.278016 0.273050
H20   H     H_    0.253898 0.732475 0.262556 0.246721
O11   O     O_3   0.568938 0.122760 0.604714 -0.577892
C49   C     C_3   0.519687 0.140533 0.675515 0.108631
H21   H     H_    0.490044 0.079883 0.692689 0.126142
H22   H     H_    0.463584 0.184130 0.671417 0.132194
C50   C     C_3   0.583171 0.177735 0.740451 -0.294541
H23   H     H_    0.642274 0.137649 0.741392 0.217723
H24   H     H_    0.606572 0.242356 0.728530 0.253476
C51   C     C_3   0.537658 0.182900 0.821032 -0.921397
H25   H     H_    0.481696 0.226829 0.823513 0.275276
H26   H     H_    0.587282 0.206933 0.866250 0.261915
H27   H     H_    0.511755 0.119386 0.834412 0.250672
O12   O     O_3   0.359588 0.888363 0.550715 -0.531401
C52   C     C_3   0.363914 0.946558 0.618975 0.119701
H28   H     H_    0.392042 0.008555 0.604730 0.162567
H29   H     H_    0.405433 0.924435 0.665905 0.053856
C53   C     C_3   0.269308 0.961110 0.651617 -0.382294
H30   H     H_    0.235651 0.899754 0.662691 0.225744
H31   H     H_    0.273955 0.001425 0.708459 0.168318
C54   C     C_3   0.212742 0.005040 0.595356 -0.711616
H32   H     H_    0.245098 0.066788 0.583729 0.219166
H33   H     H_    0.145579 0.016580 0.621948 0.226389
H34   H     H_    0.204111 0.964808 0.538874 0.290602
N7    N     N_R   0.680007 0.887162 0.482908 0.147508
O13   O     O_R   0.686647 0.953346 0.443883 -0.332665
O14   O     O_R   0.751821 0.859990 0.512537 -0.360327
N8    N     N_R   0.394340 0.103660 0.362013 0.153690
O15   O     O_R   0.359693 0.027671 0.365596 -0.351013
O16   O     O_R   0.390699 0.137500 0.296015 -0.347017
O17   O     O_3   0.659596 0.709298 0.455948 -0.557387
C55   C     C_3   0.677003 0.721667 0.376299 0.119705
H35   H     H_    0.723728 0.777240 0.372473 0.185315
H36   H     H_    0.615064 0.732077 0.344285 0.159355
C56   C     C_3   0.721814 0.643960 0.335953 -0.301416
H37   H     H_    0.784521 0.633850 0.367250 0.224617
H38   H     H_    0.676443 0.587218 0.338728 0.227728
C57   C     C_3   0.744583 0.654466 0.250127 -0.863148
H39   H     H_    0.683138 0.664626 0.217177 0.270998
H40   H     H_    0.775794 0.596455 0.222626 0.285823
H41   H     H_    0.792607 0.709107 0.246023 0.254713
O18   O     O_3   0.367037 0.277793 0.400268 -0.539699
C58   C     C_3   0.284590 0.276026 0.443129 0.091018
H42   H     H_    0.248498 0.332398 0.430572 0.181567
H43   H     H_    0.293667 0.281243 0.508128 0.106482
C59   C     C_3   0.223653 0.198424 0.417858 -0.371802
H44   H     H_    0.220259 0.188653 0.352798 0.261746
H45   H     H_    0.250352 0.141557 0.440281 0.242686
C60   C     C_3   0.129048 0.209035 0.451594 -0.927446
H46   H     H_    0.130803 0.217893 0.516789 0.261094
H47   H     H_    0.086750 0.151580 0.433325 0.279060
H48   H     H_    0.098150 0.264435 0.429789 0.246805
N9    N     N_R   0.905469 0.434441 0.286341 0.119861
O19   O     O_R   0.851525 0.367919 0.277081 -0.388577
O20   O     O_R   0.924646 0.476522 0.226450 -0.335393
N10   N     N_R   0.091461 0.518842 0.719610 0.121066
O21   O     O_R   0.140357 0.459974 0.741761 -0.423218
O22   O     O_R   0.074373 0.583707 0.769306 -0.335185
O23   O     O_3   0.090530 0.449590 0.286474 -0.550484
C61   C     C_3   0.119474 0.365947 0.273039 0.137036
H49   H     H_    0.060948 0.321080 0.261051 0.153269
H50   H     H_    0.156332 0.347561 0.324246 0.134661
C62   C     C_3   0.182715 0.360155 0.201781 -0.312939
H51   H     H_    0.144523 0.369603 0.148321 0.230619
H52   H     H_    0.236192 0.410942 0.209898 0.252550
C63   C     C_3   0.226617 0.274833 0.190211 -0.841921
H53   H     H_    0.270548 0.267327 0.240621 0.291654
H54   H     H_    0.268403 0.271417 0.135874 0.284884
H55   H     H_    0.174840 0.222467 0.184644 0.251068
O24   O     O_3   0.906947 0.519711 0.717867 -0.556671
C64   C     C_3   0.874427 0.440306 0.739017 0.141075
H56   H     H_    0.931222 0.402592 0.755273 0.150632
H57   H     H_    0.836573 0.403926 0.690198 0.132928
C65   C     C_3   0.810953 0.454730 0.809631 -0.298937
H58   H     H_    0.848844 0.485898 0.860716 0.230640
H59   H     H_    0.757445 0.497179 0.795528 0.238867
C66   C     C_3   0.767187 0.371834 0.831625 -0.931610
H60   H     H_    0.727712 0.340538 0.781655 0.261106
H61   H     H_    0.721236 0.384894 0.882614 0.261377
H62   H     H_    0.818976 0.328697 0.847707 0.260343
O25   O     O_3   0.446876 0.362274 0.733502 -0.596456
C67   C     C_3   0.359014 0.356892 0.702791 0.082674
H63   H     H_    0.364367 0.333002 0.639707 0.171592
H64   H     H_    0.325465 0.418601 0.705310 0.127398
C68   C     C_3   0.300535 0.293780 0.744957 -0.349605
H65   H     H_    0.340373 0.239250 0.757147 0.213094
H66   H     H_    0.276766 0.325212 0.801971 0.236720
C69   C     C_3   0.220214 0.260003 0.695362 -0.884040
H67   H     H_    0.180898 0.312634 0.677998 0.291366
H68   H     H_    0.176184 0.218856 0.729557 0.261282
H69   H     H_    0.243366 0.221938 0.641451 0.225299
O26   O     O_3   0.511477 0.638082 0.263380 -0.609664
C70   C     C_3   0.446265 0.697083 0.249766 0.018200
H70   H     H_    0.416803 0.720014 0.307620 0.168964
H71   H     H_    0.389611 0.670230 0.212061 0.135357
C71   C     C_3   0.490633 0.772964 0.213787 -0.375709
H72   H     H_    0.543055 0.803394 0.253687 0.224378
H73   H     H_    0.523186 0.751641 0.156896 0.220917
C72   C     C_3   0.422225 0.838500 0.200271 -0.803202
H74   H     H_    0.370103 0.810522 0.158728 0.247317
H75   H     H_    0.456379 0.893023 0.174875 0.267987
H76   H     H_    0.389790 0.861750 0.256730 0.283709
O27   O     O_3   0.455621 0.320748 0.095391 -0.603151
C73   C     C_3   0.534179 0.273776 0.094581 0.084490
H77   H     H_    0.514526 0.206834 0.075421 0.183229
H78   H     H_    0.563838 0.274053 0.153975 0.147761
C74   C     C_3   0.604242 0.304744 0.036191 -0.381364
H79   H     H_    0.572340 0.308395 0.978489 0.235826
H80   H     H_    0.630730 0.369045 0.057859 0.223469
C75   C     C_3   0.682414 0.245778 0.025601 -0.877427
H81   H     H_    0.716064 0.242573 0.082614 0.279774
H82   H     H_    0.731900 0.270002 0.983404 0.261647
H83   H     H_    0.658414 0.181243 0.002205 0.251562
O28   O     O_3   0.540089 0.667205 0.908866 -0.601633
C76   C     C_3   0.634068 0.682668 0.905679 0.043014
H84   H     H_    0.647405 0.751310 0.922315 0.176070
H85   H     H_    0.662753 0.668971 0.845542 0.129596
C77   C     C_3   0.681700 0.632976 0.964101 -0.362249
H86   H     H_    0.651346 0.646198 0.023546 0.235987
H87   H     H_    0.673467 0.564058 0.945943 0.216574
C78   C     C_3   0.781580 0.656978 0.967855 -0.879817
H88   H     H_    0.813494 0.643639 0.909152 0.257822
H89   H     H_    0.814137 0.619331 0.009876 0.271499
H90   H     H_    0.792113 0.725177 0.988115 0.259711
O29   O     O_3   0.603497 0.292712 0.588121 -0.554884
C79   C     C_3   0.691281 0.287732 0.554849 0.120132
H91   H     H_    0.726786 0.349105 0.572534 0.175980
H92   H     H_    0.691961 0.279142 0.489233 0.138363
C80   C     C_3   0.746354 0.219814 0.586870 -0.373832
H93   H     H_    0.741980 0.225625 0.651945 0.218760
H94   H     H_    0.721059 0.156011 0.563170 0.285075
C81   C     C_3   0.844820 0.228950 0.562390 -0.897526
H95   H     H_    0.851444 0.222565 0.497339 0.274653
H96   H     H_    0.883078 0.178715 0.585704 0.270633
H97   H     H_    0.874250 0.291438 0.586058 0.236844
O30   O     O_3   0.365392 0.718001 0.569007 -0.547643
C82   C     C_3   0.367588 0.729823 0.652044 0.087228
H98   H     H_    0.341977 0.792396 0.672932 0.142552
H99   H     H_    0.436417 0.725318 0.675364 0.117573
C83   C     C_3   0.306427 0.662777 0.685749 -0.317794
H100  H     H_    0.239095 0.662218 0.658885 0.243705
H101  H     H_    0.335053 0.599830 0.671483 0.201685
C84   C     C_3   0.296393 0.679745 0.774741 -0.840239
H102  H     H_    0.362983 0.685617 0.803052 0.258088
H103  H     H_    0.257291 0.626568 0.797875 0.301034
H104  H     H_    0.260561 0.739041 0.790136 0.253751

loop_
_geom_bond_atom_site_label_1
_geom_bond_atom_site_label_2
_geom_bond_distance
_ccdc_geom_bond_type
C43   H8    1.117852 S    
O11   C49   1.418369 S    
C3    C8    1.444195 S    
O25   C67   1.417343 S    
C39   N7    1.438786 S    
O29   C79   1.424065 S    
C17   C19   1.400775 A    
C68   H66   1.111305 S    
C68   H65   1.110369 S    
C54   H32   1.111008 S    
C75   H82   1.110159 S    
C62   H51   1.111484 S    
C18   N10   1.436861 S    
C81   H97   1.110633 S    
O7    Cu2   1.951118 S    
C9    H1    1.082725 S    
C83   H100  1.111575 S    
N8    O16   1.301581 A    
C66   H60   1.110105 S    
C27   C29   1.398744 A    
C78   H88   1.110468 S    
C71   H72   1.110002 S    
C28   N2    1.414332 S    
C54   H33   1.110277 S    
C17   N9    1.437040 S    
C77   H87   1.111294 S    
C73   C74   1.536548 S    
O1    C1    1.300182 A    
C23   O26   1.387486 S    
C12   C14   1.417240 A    
C73   H78   1.114379 S    
C23   C25   1.396362 A    
N10   O22   1.301136 A    
C82   C83   1.526652 S    
C44   H9    1.110062 S    
C61   C62   1.529308 S    
C79   H91   1.108289 S    
C53   H31   1.111695 S    
C5    C15   1.408419 A    
C75   H83   1.110776 S    
C64   H57   1.114801 S    
C38   C40   1.410996 A    
O23   C61   1.411936 S    
C19   O23   1.384616 S    
C55   H35   1.109744 S    
C29   O27   1.384814 S    
C53   C54   1.528853 S    
C40   C42   1.421581 A    
O4    Cu1   1.961060 S    
C44   H10   1.111093 S    
N8    O15   1.301541 A    
C65   C66   1.525584 S    
C21   C23   1.413157 A    
C65   H59   1.111989 S    
C34   O29   1.385237 S    
Cu2   N3    2.016359 S    
C69   H68   1.110225 S    
C70   H71   1.116351 S    
C77   C78   1.525459 S    
C1    C21   1.473895 S    
C4    C7    1.438407 S    
C41   O17   1.383934 S    
C76   C77   1.535167 S    
C13   C14   1.403073 A    
O28   C76   1.416487 S    
C36   C38   1.417489 A    
C8    C10   1.389933 A    
C71   C72   1.526020 S    
C45   H11   1.110627 S    
C33   O30   1.380888 S    
C33   C35   1.424106 A    
C75   H81   1.110859 S    
C11   C17   1.410949 A    
C76   H84   1.110877 S    
C12   C18   1.413057 A    
Cu1   Cu2   2.684684 S    
C64   C65   1.529990 S    
C67   H64   1.117282 S    
C29   C31   1.399122 A    
O2    C2    1.302253 A    
C30   C32   1.396049 A    
C43   C44   1.528706 S    
C47   C48   1.525941 S    
O30   C82   1.415381 S    
C66   H61   1.110719 S    
N4    C34   1.379774 A    
C37   N5    1.433401 S    
C56   H38   1.110271 S    
C11   C13   1.417301 A    
C6    C16   1.407785 A    
C54   H34   1.110676 S    
C34   C36   1.419795 A    
C39   C41   1.421945 A    
C77   H86   1.111870 S    
C74   H79   1.110612 S    
C21   C31   1.405961 A    
C55   C56   1.528784 S    
C30   O28   1.385108 S    
C62   C63   1.525667 S    
C22   C32   1.400680 A    
O10   C46   1.418154 S    
C58   C59   1.533125 S    
C45   H12   1.110293 S    
C72   H76   1.111173 S    
C50   H23   1.111728 S    
C42   O18   1.383577 S    
C31   H5    1.083318 S    
C36   O11   1.384582 S    
C38   N6    1.445407 S    
C46   H14   1.106831 S    
C63   H55   1.110725 S    
C2    C22   1.465688 S    
C73   H77   1.110982 S    
N3    C33   1.379926 A    
C65   H58   1.111401 S    
C44   C45   1.525934 S    
C59   H45   1.108362 S    
C72   H74   1.110929 S    
C58   H43   1.117015 S    
C82   H98   1.105086 S    
C40   N8    1.443152 S    
C50   H24   1.109028 S    
Cu1   N4    2.016360 S    
N9    O20   1.301123 A    
O5    C3    1.290566 A    
C84   H102  1.109406 S    
C49   C50   1.528977 S    
C80   H93   1.109422 S    
C81   H96   1.110350 S    
O6    C4    1.288943 A    
C70   C71   1.531213 S    
C84   H104  1.110727 S    
C74   H80   1.111212 S    
C26   H3    1.083054 S    
C46   H15   1.114629 S    
C51   H25   1.109403 S    
C6    C8    1.399981 A    
N10   O21   1.300096 A    
C25   H4    1.080851 S    
C51   H26   1.108564 S    
O7    C3    1.291247 A    
O24   C64   1.413130 S    
O3    Cu2   1.961060 S    
O8    C4    1.289819 A    
C67   C68   1.531158 S    
C60   H48   1.110640 S    
C61   H50   1.111632 S    
O26   C70   1.418059 S    
C48   H19   1.110314 S    
C49   H22   1.117264 S    
C70   H70   1.111416 S    
C20   O24   1.384630 S    
C79   H92   1.117502 S    
C35   C37   1.415690 A    
C67   H63   1.110957 S    
C68   C69   1.527867 S    
C63   H54   1.110325 S    
C48   H18   1.111156 S    
O4    C2    1.291134 A    
O1    Cu1   1.955635 S    
C57   H40   1.110314 S    
C58   H42   1.105946 S    
C83   C84   1.526152 S    
C66   H62   1.110648 S    
C24   C26   1.390789 A    
C69   H67   1.109055 S    
C60   H47   1.110279 S    
C13   C15   1.420312 A    
C10   H2    1.079268 S    
C78   H90   1.110731 S    
C32   H6    1.083064 S    
C15   C20   1.415422 A    
C5    C7    1.399855 A    
C80   C81   1.528638 S    
O6    Cu2   1.948153 S    
C71   H73   1.110448 S    
C9    C11   1.394029 A    
C6    O10   1.386077 S    
C56   C57   1.526562 S    
C14   C16   1.419720 A    
C10   C12   1.396098 A    
C47   H16   1.111170 S    
O3    C1    1.297468 A    
O8    Cu1   1.951115 S    
C83   H101  1.108431 S    
N1    N2    1.245725 D    
C56   H37   1.111382 S    
C69   H69   1.110736 S    
C79   C80   1.533018 S    
C62   H52   1.112252 S    
N9    O19   1.301206 A    
C51   H27   1.110682 S    
C52   H28   1.103957 S    
C27   N1    1.419287 S    
C61   H49   1.113492 S    
C57   H41   1.110681 S    
C72   H75   1.110416 S    
C59   H44   1.110332 S    
C80   H94   1.107866 S    
C18   C20   1.401788 A    
C25   C27   1.407888 A    
C84   H103  1.110014 S    
N4    C42   1.378199 A    
N7    O13   1.301434 A    
C50   C51   1.524760 S    
C26   C28   1.407627 A    
N3    C41   1.381164 A    
C46   C47   1.534346 S    
C45   H13   1.111075 S    
C60   H46   1.111078 S    
O18   C58   1.424908 S    
N7    O14   1.301434 A    
C35   O12   1.390355 S    
C28   C30   1.399596 A    
C24   O25   1.384928 S    
C7    C9    1.387167 A    
C47   H17   1.110258 S    
C55   H36   1.109025 S    
C43   H7    1.110367 S    
C22   C24   1.418345 A    
O9    C43   1.418964 S    
C53   H30   1.110950 S    
O2    Cu2   1.955635 S    
C74   C75   1.525636 S    
C37   C39   1.402788 A    
N5    N6    1.250724 D    
C59   C60   1.528300 S    
C81   H95   1.111029 S    
O5    Cu1   1.948153 S    
C48   H20   1.108367 S    
C49   H21   1.109105 S    
C16   C19   1.416611 A    
C82   H99   1.116220 S    
O12   C52   1.416553 S    
C64   H56   1.113587 S    
C76   H85   1.113594 S    
C63   H53   1.110520 S    
O27   C73   1.416518 S    
C57   H39   1.110333 S    
C78   H89   1.110436 S    
C52   H29   1.114980 S    
C52   C53   1.530148 S    
O17   C55   1.415296 S    
C5    O9    1.386824 S    
