data_mof_unit_54579.cif
_audit_creation_date              2012-10-26T20:57:23-0400
_audit_creation_method            fapswitch 2.2
_symmetry_space_group_name_H-M    P1
_symmetry_Int_Tables_number       1
_space_group_crystal_system       triclinic
_cell_length_a                    14.686259
_cell_length_b                    14.621113
_cell_length_c                    15.853389
_cell_angle_alpha                 77.149697
_cell_angle_beta                  102.537081
_cell_angle_gamma                 114.652365
_cell_volume                      2986.59867435

loop_
_atom_site_label
_atom_site_type_symbol
_atom_type_description
_atom_site_fract_x
_atom_site_fract_y
_atom_site_fract_z
_atom_type_partial_charge
C1    C     C_R   0.880339 0.312057 0.515452 0.542756
C2    C     C_R   0.360492 0.923318 0.485261 -0.011823
C3    C     C_R   0.676713 0.001870 0.561525 0.030332
C4    C     C_R   0.323287 0.998130 0.438475 0.030330
C5    C     C_R   0.534236 0.049198 0.484419 -0.059900
C6    C     C_R   0.465764 0.950802 0.515581 -0.059898
C7    C     C_R   0.504982 0.884204 0.577636 0.269232
C8    C     C_R   0.495018 0.115796 0.422364 0.269229
C9    C     C_R   0.608898 0.905177 0.592186 0.294777
C10   C     C_R   0.391102 0.094823 0.407813 0.294774
C11   C     C_R   0.724934 0.681403 0.367501 -0.105036
C12   C     C_R   0.119661 0.687943 0.484548 0.542755
C13   C     C_R   0.275066 0.318597 0.632499 -0.105036
C14   C     C_R   0.801740 0.645122 0.384390 0.044696
C15   C     C_R   0.198260 0.354878 0.615610 0.044696
C16   C     C_R   0.999574 0.500249 0.659964 0.551238
C17   C     C_R   0.000426 0.499751 0.340036 0.551238
C18   C     C_R   0.712476 0.506883 0.484672 0.050231
C19   C     C_R   0.287524 0.493117 0.515328 0.050231
C20   C     C_R   0.629171 0.537348 0.467853 -0.037778
C21   C     C_R   0.370828 0.462652 0.532146 -0.037778
C22   C     C_R   0.638937 0.630009 0.410770 0.022666
C23   C     C_R   0.781830 0.027462 0.582483 -0.083561
C24   C     C_R   0.361063 0.369990 0.589230 0.022666
C25   C     C_R   0.538799 0.480680 0.507552 -0.052481
C26   C     C_R   0.461201 0.519320 0.492448 -0.052481
C27   C     C_R   0.477158 0.614645 0.439852 -0.130605
C28   C     C_R   0.522842 0.385355 0.560148 -0.130605
C29   C     C_R   0.563841 0.669949 0.399649 0.248030
C30   C     C_R   0.436159 0.330051 0.600351 0.248029
C31   C     C_3   0.995817 0.408821 0.045571 -0.128649
C32   C     C_3   0.004183 0.591179 0.954429 -0.128649
C33   C     C_3   0.914243 0.425504 0.969977 -0.123268
C34   C     C_R   0.218170 0.972538 0.417517 -0.083561
C35   C     C_3   0.085756 0.574496 0.030023 -0.123268
C36   C     C_1   0.998699 0.500666 0.749355 0.016822
C37   C     C_1   0.001301 0.499334 0.250645 0.016822
C38   C     C_3   0.079270 0.484073 0.990878 0.295654
C39   C     C_3   0.920730 0.515927 0.009121 0.295654
C40   C     C_3   0.999056 0.500480 0.916632 -0.013134
C41   C     C_3   0.000944 0.499520 0.083367 -0.013134
C42   C     C_1   0.998580 0.500744 0.824850 0.021730
C43   C     C_1   0.001420 0.499256 0.175150 0.021729
C44   C     C_R   0.812573 0.204134 0.527392 -0.013213
C45   C     C_R   0.849401 0.127645 0.563446 -0.131506
C46   C     C_R   0.187427 0.795866 0.472608 -0.013213
C47   C     C_3   0.632294 0.757919 0.607060 0.000300
C48   C     C_3   0.675768 0.685912 0.669171 -0.340753
C49   C     C_3   0.367706 0.242081 0.392939 0.000298
C50   C     C_3   0.324233 0.314088 0.330829 -0.340754
C51   C     C_3   0.424443 0.829919 0.697647 -0.014585
C52   C     C_3   0.350939 0.737571 0.748383 -0.311919
C53   C     C_3   0.575557 0.170081 0.302352 -0.014584
C54   C     C_3   0.649060 0.262428 0.251616 -0.311919
C55   C     C_R   0.150599 0.872355 0.436554 -0.131507
C56   C     C_R   0.708351 0.178231 0.505431 -0.084836
C57   C     C_R   0.291649 0.821769 0.494569 -0.084835
C58   C     C_R   0.639507 0.076682 0.514738 -0.011822
Cu1   Cu    Cu3+1 0.081740 0.475690 0.522610 0.964465
Cu2   Cu    Cu3+1 0.918260 0.524310 0.477390 0.964465
H1    H     H_    0.843399 0.365361 0.944405 0.164253
H2    H     H_    0.575966 0.349998 0.569061 0.162793
H3    H     H_    0.993710 0.334624 0.083758 0.155610
H4    H     H_    0.006290 0.665376 0.916242 0.155610
H5    H     H_    0.318619 0.761022 0.513961 0.197547
H6    H     H_    0.681381 0.238978 0.486038 0.197546
H7    H     H_    0.070126 0.854106 0.418820 0.135082
H8    H     H_    0.929874 0.145894 0.581180 0.135082
H9    H     H_    0.812075 0.970722 0.615558 0.161389
H10   H     H_    0.187925 0.029278 0.384442 0.161389
H11   H     H_    0.690606 0.566114 0.933994 0.377834
H12   H     H_    0.156601 0.634639 0.055595 0.164253
H13   H     H_    0.309392 0.433884 0.066006 0.377834
H14   H     H_    0.673137 0.787869 0.548977 0.162975
H15   H     H_    0.550730 0.713710 0.586516 0.181652
H16   H     H_    0.635432 0.653235 0.727307 0.194385
H17   H     H_    0.666719 0.622955 0.635666 0.116873
H18   H     H_    0.757546 0.727465 0.690684 0.172927
H19   H     H_    0.449271 0.286290 0.413484 0.181651
H20   H     H_    0.326863 0.212131 0.451023 0.162975
H21   H     H_    0.242455 0.272536 0.309316 0.172926
H22   H     H_    0.333282 0.377045 0.364334 0.116873
H23   H     H_    0.284509 0.556823 0.467240 0.130542
H24   H     H_    0.364568 0.346764 0.272693 0.194386
H25   H     H_    0.389376 0.887174 0.674219 0.142641
H26   H     H_    0.495667 0.862501 0.742613 0.173923
H27   H     H_    0.384072 0.679299 0.773995 0.203131
H28   H     H_    0.334993 0.760437 0.804092 0.145053
H29   H     H_    0.278774 0.704166 0.705064 0.167329
H30   H     H_    0.504333 0.137498 0.257387 0.173921
H31   H     H_    0.610624 0.112825 0.325781 0.142643
H32   H     H_    0.721226 0.295834 0.294935 0.167329
H33   H     H_    0.665007 0.239562 0.195907 0.145052
H34   H     H_    0.715490 0.443177 0.532759 0.130542
H35   H     H_    0.615927 0.320700 0.226004 0.203131
H36   H     H_    0.509396 0.900166 0.334010 0.363163
H37   H     H_    0.490598 0.099831 0.665978 0.363159
H38   H     H_    0.131459 0.313473 0.647600 0.141628
H39   H     H_    0.868541 0.686527 0.352400 0.141628
H40   H     H_    0.734577 0.749946 0.321027 0.194404
H41   H     H_    0.265423 0.250054 0.678973 0.194404
H42   H     H_    0.424034 0.650002 0.430939 0.162794
N1    N     N_R   0.795440 0.560790 0.443380 -0.234129
N2    N     N_R   0.204560 0.439210 0.556620 -0.234129
O1    O     O_R   0.977900 0.338120 0.529810 -0.507067
O2    O     O_2   0.849338 0.631083 0.063754 -0.262028
O3    O     O_3   0.747789 0.553546 0.922586 -0.515331
O4    O     O_2   0.150662 0.368917 0.936246 -0.262029
O5    O     O_2   0.251677 0.552899 0.922033 -0.290035
O6    O     O_3   0.252211 0.446454 0.077413 -0.515331
O7    O     O_3   0.645029 0.837884 0.650281 -0.550849
O8    O     O_3   0.354971 0.162116 0.349719 -0.550848
O9    O     O_3   0.443981 0.799167 0.627441 -0.575313
O10   O     O_3   0.556019 0.200833 0.372558 -0.575312
O11   O     O_2   0.678293 0.869801 0.373468 -0.335132
O12   O     O_R   0.022100 0.661880 0.470190 -0.507067
O13   O     O_2   0.573653 0.791700 0.245256 -0.239053
O14   O     O_3   0.485118 0.825680 0.353177 -0.548921
O15   O     O_2   0.426346 0.208299 0.754744 -0.239046
O16   O     O_2   0.321707 0.130199 0.626531 -0.335138
O17   O     O_3   0.514883 0.174320 0.646825 -0.548916
O18   O     O_R   0.839850 0.379180 0.491620 -0.513168
O19   O     O_R   0.160150 0.620820 0.508380 -0.513169
O20   O     O_R   0.069010 0.479460 0.640020 -0.480534
O21   O     O_R   0.930990 0.520540 0.359980 -0.480534
O22   O     O_R   0.930960 0.520530 0.601820 -0.499857
O23   O     O_R   0.069040 0.479470 0.398180 -0.499857
O24   O     O_2   0.748323 0.447101 0.077967 -0.290036
S1    S     S_3+6 0.813921 0.537355 0.021559 0.025727
S2    S     S_3+6 0.186079 0.462645 0.978441 0.025727
S3    S     S_3+6 0.577789 0.792605 0.340629 -0.029322
S4    S     S_3+6 0.422211 0.207395 0.659371 -0.029320

loop_
_geom_bond_atom_site_label_1
_geom_bond_atom_site_label_2
_ccdc_geom_bond_type
C9    O7    S    
O2    S1    D    
C21   C26   A    
C23   C45   A    
C22   C29   A    
H11   O3    S    
C27   C29   A    
C48   H16   S    
C3    C23   A    
O3    S1    S    
O24   S1    D    
C51   H25   S    
C2    C57   A    
C50   H24   S    
C14   H39   S    
C39   C41   S    
O11   S3    D    
C53   C54   S    
C53   O10   S    
C25   C28   A    
C26   C27   A    
Cu1   O1    S    
C5    C58   A    
Cu1   N2    S    
C38   S2    S    
H36   O14   S    
Cu2   O21   S    
C19   C21   A    
C4    C10   A    
C5    C6    A    
C11   C14   A    
C47   O7    S    
H13   O6    S    
C20   C25   A    
Cu1   O23   S    
C32   C39   S    
C48   H18   S    
C23   H9    S    
C1    O18   A    
C54   H33   S    
H37   O17   S    
O14   S3    S    
C36   C42   T    
C46   C55   A    
C53   H31   S    
C31   C33   S    
C10   O8    S    
C15   N2    A    
Cu2   N1    S    
C34   H10   S    
O4    S2    D    
C8    O10   S    
C40   C42   S    
Cu1   Cu2   S    
C41   C43   S    
C52   H29   S    
C2    C6    A    
C19   H23   S    
C51   H26   S    
Cu1   O19   S    
C4    C34   A    
C33   C40   S    
C51   C52   S    
C32   C35   S    
C31   H3    S    
C52   H28   S    
C35   C38   S    
C32   H4    S    
C12   C46   S    
C17   O23   A    
C17   C37   S    
C39   S1    S    
C25   C26   A    
C49   H19   S    
C13   C24   A    
C11   H40   S    
C48   H17   S    
C37   C43   T    
C2    C4    A    
C54   H32   S    
C3    C9    A    
C19   N2    A    
C44   C56   A    
C1    C44   S    
C47   C48   S    
C45   H8    S    
O15   S4    D    
C33   C39   S    
Cu2   O18   S    
C54   H35   S    
C35   C41   S    
C49   O8    S    
C33   H1    S    
C20   C22   A    
C35   H12   S    
C13   C15   A    
C46   C57   A    
C18   H34   S    
Cu2   O12   S    
C15   H38   S    
C13   H41   S    
C53   H30   S    
C44   C45   A    
C50   H22   S    
Cu1   O20   S    
C7    C9    A    
C31   C41   S    
O16   S4    D    
C51   O9    S    
C52   H27   S    
C47   H14   S    
C57   H5    S    
C5    C8    A    
C55   H7    S    
C31   C38   S    
C6    C7    A    
C27   H42   S    
C49   H20   S    
C7    O9    S    
Cu2   O22   S    
C16   O20   A    
C47   H15   S    
C16   C36   S    
C38   C40   S    
C17   O21   A    
C14   N1    A    
C29   S3    S    
C12   O19   A    
C56   H6    S    
C28   C30   A    
C56   C58   A    
O6    S2    S    
C18   C20   A    
C18   N1    A    
C32   C40   S    
O13   S3    D    
C24   C30   A    
C30   S4    S    
C3    C58   A    
C34   C55   A    
C11   C22   A    
C8    C10   A    
C49   C50   S    
C21   C24   A    
O5    S2    D    
O17   S4    S    
C16   O22   A    
C50   H21   S    
C1    O1    A    
C12   O12   A    
C28   H2    S    
