data_mof_unit_45900.cif
_audit_creation_date              2013-03-05T15:52:04-0500
_audit_creation_method            fapswitch 2.2
_symmetry_space_group_name_H-M    P1
_symmetry_Int_Tables_number       1
_space_group_crystal_system       triclinic
_cell_length_a                    25.926745
_cell_length_b                    25.941939
_cell_length_c                    22.232166
_cell_angle_alpha                 90.041339
_cell_angle_beta                  125.828589
_cell_angle_gamma                 89.967557
_cell_volume                      12123.5761066

loop_
_atom_site_label
_atom_site_type_symbol
_atom_site_description
_atom_site_fract_x
_atom_site_fract_y
_atom_site_fract_z
_atom_type_partial_charge
Zn1   Zn    Zn3+2 0.074160 0.706620 0.561580 1.043724
Zn2   Zn    Zn3+2 0.925840 0.293380 0.438420 1.033171
Zn3   Zn    Zn3+2 0.925840 0.706620 0.438420 1.036350
Zn4   Zn    Zn3+2 0.074160 0.293380 0.561580 1.042157
Zn5   Zn    Zn3+2 0.574160 0.206620 0.561580 1.032393
Zn6   Zn    Zn3+2 0.425840 0.793380 0.438420 1.041109
Zn7   Zn    Zn3+2 0.425840 0.206620 0.438420 1.045341
Zn8   Zn    Zn3+2 0.574160 0.793380 0.561580 1.038574
Zn9   Zn    Zn3+2 0.012590 0.793370 0.438410 1.111180
Zn10  Zn    Zn3+2 0.987410 0.206630 0.561590 1.124399
Zn11  Zn    Zn3+2 0.987410 0.793370 0.561590 1.123843
Zn12  Zn    Zn3+2 0.012590 0.206630 0.438410 1.114090
Zn13  Zn    Zn3+2 0.512590 0.293370 0.438410 1.123989
Zn14  Zn    Zn3+2 0.487410 0.706630 0.561590 1.111957
Zn15  Zn    Zn3+2 0.487410 0.293370 0.561590 1.112368
Zn16  Zn    Zn3+2 0.512590 0.706630 0.438410 1.124685
O1    O     O_3   0.000000 0.750000 0.500000 -0.528871
O2    O     O_3   0.000000 0.250000 0.500000 -0.527431
O3    O     O_3   0.500000 0.250000 0.500000 -0.528116
O4    O     O_3   0.500000 0.750000 0.500000 -0.528430
O5    O     O_R   0.887450 0.719640 0.335600 -0.622963
O6    O     O_R   0.112550 0.280360 0.664400 -0.622254
O7    O     O_R   0.112550 0.719640 0.664400 -0.622111
O8    O     O_R   0.887450 0.280360 0.335600 -0.624935
O9    O     O_R   0.387450 0.219640 0.335600 -0.622259
O10   O     O_R   0.612550 0.780360 0.664400 -0.623284
O11   O     O_R   0.612550 0.219640 0.664400 -0.623939
O12   O     O_R   0.387450 0.780360 0.335600 -0.622356
O13   O     O_R   0.094250 0.780350 0.456890 -0.611537
O14   O     O_R   0.905750 0.219650 0.543110 -0.608338
O15   O     O_R   0.905750 0.780350 0.543110 -0.608018
O16   O     O_R   0.094250 0.219650 0.456890 -0.610064
O17   O     O_R   0.594250 0.280350 0.456890 -0.608437
O18   O     O_R   0.405750 0.719650 0.543110 -0.610611
O19   O     O_R   0.405750 0.280350 0.543110 -0.612138
O20   O     O_R   0.594250 0.719650 0.456890 -0.608179
O21   O     O_R   0.008810 0.865800 0.456890 -0.582608
O22   O     O_R   0.991190 0.134200 0.543110 -0.581650
O23   O     O_R   0.991190 0.865800 0.543110 -0.580856
O24   O     O_R   0.008810 0.134200 0.456890 -0.582127
O25   O     O_R   0.508810 0.365800 0.456890 -0.581811
O26   O     O_R   0.491190 0.634200 0.543110 -0.583308
O27   O     O_R   0.491190 0.365800 0.543110 -0.581923
O28   O     O_R   0.508810 0.634200 0.456890 -0.580328
O29   O     O_R   0.948090 0.634190 0.456900 -0.631506
O30   O     O_R   0.051910 0.365810 0.543100 -0.630810
O31   O     O_R   0.051910 0.634190 0.543100 -0.629506
O32   O     O_R   0.948090 0.365810 0.456900 -0.633278
O33   O     O_R   0.448090 0.134190 0.456900 -0.628395
O34   O     O_R   0.551910 0.865810 0.543100 -0.629936
O35   O     O_R   0.551910 0.134190 0.543100 -0.634217
O36   O     O_R   0.448090 0.865810 0.456900 -0.632237
O37   O     O_R   0.137350 0.719630 0.543100 -0.631180
O38   O     O_R   0.862650 0.280370 0.456900 -0.638595
O39   O     O_R   0.862650 0.719630 0.456900 -0.632203
O40   O     O_R   0.137350 0.280370 0.543100 -0.636259
O41   O     O_R   0.637350 0.219630 0.543100 -0.637817
O42   O     O_R   0.362650 0.780370 0.456900 -0.635274
O43   O     O_R   0.362650 0.219630 0.456900 -0.630896
O44   O     O_R   0.637350 0.780370 0.543100 -0.632279
O45   O     O_R   0.948170 0.780360 0.335600 -0.604511
O46   O     O_R   0.051830 0.219640 0.664400 -0.600315
O47   O     O_R   0.051830 0.780360 0.664400 -0.600821
O48   O     O_R   0.948170 0.219640 0.335600 -0.602918
O49   O     O_R   0.448170 0.280360 0.335600 -0.600317
O50   O     O_R   0.551830 0.719640 0.664400 -0.604403
O51   O     O_R   0.551830 0.280360 0.664400 -0.603182
O52   O     O_R   0.448170 0.719640 0.335600 -0.600138
C1    C     C_R   0.900338 0.749905 0.300635 0.850965
C2    C     C_R   0.099755 0.250006 0.699361 0.877142
C3    C     C_R   0.099728 0.749984 0.699377 0.874696
C4    C     C_R   0.900353 0.250092 0.300625 0.854478
C5    C     C_R   0.400262 0.249982 0.300628 0.876271
C6    C     C_R   0.599658 0.750096 0.699364 0.853292
C7    C     C_R   0.599652 0.249915 0.699376 0.851998
C8    C     C_R   0.400259 0.750008 0.300629 0.875564
C9    C     C_R   0.139889 0.749895 0.499924 0.810982
C10   C     C_R   0.860037 0.250026 0.499955 0.812524
C11   C     C_R   0.859998 0.750029 0.499883 0.813090
C12   C     C_R   0.139920 0.250029 0.499940 0.809484
C13   C     C_R   0.639961 0.249971 0.500041 0.812531
C14   C     C_R   0.360083 0.750045 0.500056 0.810020
C15   C     C_R   0.360125 0.249895 0.500117 0.810930
C16   C     C_R   0.640006 0.749965 0.500126 0.812843
C17   C     C_R   0.999929 0.889973 0.499969 0.926743
C18   C     C_R   0.999886 0.110024 0.499876 0.927089
C19   C     C_R   0.500117 0.389973 0.500131 0.927120
C20   C     C_R   0.500071 0.610025 0.500027 0.926879
C21   C     C_R   0.999995 0.610039 0.500081 0.773433
C22   C     C_R   0.000006 0.389998 0.499965 0.777537
C23   C     C_R   0.500031 0.110029 0.499714 0.775224
C24   C     C_R   0.499964 0.889989 0.500241 0.775356
C25   C     C_R   0.936418 0.553699 0.550181 -0.251998
C26   C     C_R   0.062732 0.446577 0.448696 -0.264414
C27   C     C_R   0.064271 0.553698 0.450879 -0.262675
C28   C     C_R   0.937480 0.446564 0.551565 -0.256020
C29   C     C_R   0.435617 0.054000 0.548814 -0.262174
C30   C     C_R   0.563906 0.946118 0.450443 -0.251385
C31   C     C_R   0.563282 0.053248 0.449198 -0.256134
C32   C     C_R   0.435999 0.946883 0.549861 -0.264136
C33   C     C_R   0.905491 0.527323 0.575553 0.273836
C34   C     C_R   0.095216 0.473101 0.425383 0.275886
C35   C     C_R   0.095518 0.527333 0.425886 0.270801
C36   C     C_R   0.905373 0.473064 0.575451 0.273149
C37   C     C_R   0.403803 0.027817 0.573149 0.271058
C38   C     C_R   0.595211 0.972367 0.425455 0.273829
C39   C     C_R   0.595590 0.026624 0.425679 0.273624
C40   C     C_R   0.403266 0.973577 0.572795 0.274620
C41   C     C_R   0.968198 0.472939 0.524961 0.025938
C42   C     C_R   0.032509 0.527209 0.476069 0.028827
C43   C     C_R   0.031952 0.472937 0.475275 0.027408
C44   C     C_R   0.967753 0.527214 0.524404 0.025611
C45   C     C_R   0.467557 0.973076 0.524188 0.026837
C46   C     C_R   0.532141 0.026998 0.475359 0.025552
C47   C     C_R   0.532457 0.972724 0.475993 0.026437
C48   C     C_R   0.467306 0.027346 0.523611 0.029307
C49   C     C_R   0.000006 0.446126 0.500005 -0.051252
C50   C     C_R   0.000048 0.553969 0.500146 -0.050750
C51   C     C_R   0.500032 0.946102 0.500222 -0.051108
C52   C     C_R   0.499894 0.053944 0.499613 -0.050852
H1    H     H_    0.937019 0.595332 0.552963 0.179921
H2    H     H_    0.062810 0.404930 0.446720 0.178244
H3    H     H_    0.063881 0.595330 0.448376 0.176847
H4    H     H_    0.937198 0.404916 0.553151 0.181506
H5    H     H_    0.436462 0.095624 0.551812 0.176425
H6    H     H_    0.563144 0.904489 0.447564 0.180171
H7    H     H_    0.563698 0.094893 0.447636 0.181643
H8    H     H_    0.435493 0.905242 0.551361 0.180433
C53   C     C_3   0.746461 0.204010 0.024772 0.237360
C54   C     C_3   0.196877 0.777127 0.974784 0.256501
C55   C     C_3   0.198274 0.221508 0.974740 0.231031
C56   C     C_3   0.744024 0.795068 0.024844 0.266609
C57   C     C_3   0.302678 0.722720 0.025270 0.231377
C58   C     C_3   0.753570 0.295915 0.975243 0.268779
C59   C     C_3   0.755912 0.704968 0.975149 0.270718
C60   C     C_3   0.302304 0.278413 0.025195 0.228876
C61   C     C_3   0.234167 0.701420 0.974987 0.251668
C62   C     C_3   0.810301 0.259233 0.024788 0.218226
C63   C     C_3   0.810647 0.743245 0.024806 0.230665
C64   C     C_3   0.233109 0.298319 0.974849 0.234732
C65   C     C_3   0.689749 0.240712 0.975220 0.225243
C66   C     C_3   0.265389 0.798427 0.025074 0.234544
C67   C     C_3   0.267441 0.201612 0.025067 0.258728
C68   C     C_3   0.689257 0.756783 0.975173 0.229348
C69   C     C_1   0.139636 0.750153 0.778551 0.001401
C70   C     C_1   0.860734 0.250193 0.221451 -0.031419
C71   C     C_1   0.860681 0.749791 0.221453 -0.032067
C72   C     C_1   0.139857 0.249722 0.778526 0.002429
C73   C     C_1   0.639282 0.249833 0.778551 -0.031818
C74   C     C_1   0.360217 0.749759 0.221467 -0.000625
C75   C     C_1   0.360318 0.250180 0.221441 0.002779
C76   C     C_1   0.639297 0.750223 0.778542 -0.031526
C77   C     C_3   0.281902 0.771454 0.976432 0.239085
C78   C     C_3   0.730285 0.286842 0.024337 0.265834
C79   C     C_3   0.732125 0.711503 0.024217 0.224271
C80   C     C_3   0.283126 0.229756 0.976414 0.209095
C81   C     C_3   0.769788 0.213091 0.975660 0.230104
C82   C     C_3   0.217657 0.728407 0.023647 0.214356
C83   C     C_3   0.217426 0.270180 0.023481 0.203678
C84   C     C_3   0.767786 0.788525 0.975779 0.221342
C85   C     C_3   0.213414 0.750156 0.926163 -0.338229
C86   C     C_3   0.786957 0.250168 0.073832 -0.326907
C87   C     C_3   0.786851 0.749789 0.073822 -0.326279
C88   C     C_3   0.213974 0.249643 0.926138 -0.315409
C89   C     C_3   0.713086 0.249800 0.926174 -0.327043
C90   C     C_3   0.286133 0.749699 0.073863 -0.326327
C91   C     C_3   0.286581 0.250272 0.073799 -0.317894
C92   C     C_3   0.713075 0.750242 0.926170 -0.326008
C93   C     C_1   0.173102 0.750238 0.845157 0.278052
C94   C     C_1   0.827433 0.250243 0.154846 0.269307
C95   C     C_1   0.827352 0.749731 0.154844 0.269156
C96   C     C_1   0.173512 0.249565 0.845127 0.273201
C97   C     C_1   0.672592 0.249781 0.845158 0.269370
C98   C     C_1   0.326590 0.749638 0.154868 0.272512
C99   C     C_1   0.326865 0.250321 0.154826 0.274583
C100  C     C_1   0.672602 0.750292 0.845151 0.269554
C101  C     C_R   0.739193 0.784052 0.371889 -0.136535
C102  C     C_R   0.131730 0.282160 0.370969 -0.144524
C103  C     C_R   0.132191 0.715441 0.372137 -0.142475
C104  C     C_R   0.738196 0.220191 0.369662 -0.139175
C105  C     C_R   0.367894 0.215671 0.627991 -0.141966
C106  C     C_R   0.760822 0.715981 0.628146 -0.136043
C107  C     C_R   0.761800 0.279803 0.630332 -0.139127
C108  C     C_R   0.368279 0.782154 0.629100 -0.141919
C109  C     C_R   0.680989 0.800605 0.309316 -0.138790
C110  C     C_R   0.127114 0.298667 0.308393 -0.083143
C111  C     C_R   0.127819 0.697819 0.310131 -0.104549
C112  C     C_R   0.679393 0.206270 0.305711 -0.148081
C113  C     C_R   0.372284 0.198121 0.690009 -0.106187
C114  C     C_R   0.819040 0.699481 0.690749 -0.140019
C115  C     C_R   0.820603 0.293718 0.694284 -0.146952
C116  C     C_R   0.372887 0.798730 0.691673 -0.086703
C117  C     C_R   0.626625 0.800645 0.308420 0.366290
C118  C     C_R   0.181032 0.300420 0.308513 0.328148
C119  C     C_R   0.181528 0.696859 0.309758 0.339154
C120  C     C_R   0.624939 0.206556 0.304586 0.376762
C121  C     C_R   0.318554 0.197097 0.690333 0.337763
C122  C     C_R   0.873409 0.699455 0.691655 0.368598
C123  C     C_R   0.875061 0.293415 0.695417 0.375886
C124  C     C_R   0.318976 0.800487 0.691573 0.333624
C125  C     C_R   0.631803 0.783870 0.371725 -0.164409
C126  C     C_R   0.239562 0.284274 0.372128 -0.168274
C127  C     C_R   0.239698 0.714507 0.372536 -0.167811
C128  C     C_R   0.630701 0.220717 0.369182 -0.168265
C129  C     C_R   0.260338 0.214600 0.627488 -0.167653
C130  C     C_R   0.868217 0.716172 0.628318 -0.164681
C131  C     C_R   0.869299 0.279247 0.630824 -0.168228
C132  C     C_R   0.260457 0.784286 0.627968 -0.169145
C133  C     C_R   0.690516 0.766405 0.435776 0.029853
C134  C     C_R   0.245023 0.266286 0.435836 0.022718
C135  C     C_R   0.245064 0.732976 0.436017 0.023596
C136  C     C_R   0.689983 0.235847 0.434571 0.014412
C137  C     C_R   0.254961 0.233025 0.564011 0.024018
C138  C     C_R   0.809495 0.733604 0.564246 0.028973
C139  C     C_R   0.810015 0.264132 0.565427 0.014089
C140  C     C_R   0.254995 0.766280 0.564233 0.022100
C141  C     C_R   0.744900 0.766422 0.435793 0.072221
C142  C     C_R   0.190520 0.265750 0.435558 0.062303
C143  C     C_R   0.190654 0.733183 0.435955 0.080259
C144  C     C_R   0.744411 0.235775 0.434689 0.074619
C145  C     C_R   0.309393 0.233289 0.564120 0.080443
C146  C     C_R   0.755110 0.733586 0.564228 0.072091
C147  C     C_R   0.755585 0.264213 0.565307 0.074654
C148  C     C_R   0.309489 0.765755 0.564488 0.064018
C149  C     C_R   0.696070 0.750032 0.500072 -0.086235
C150  C     C_R   0.304029 0.249944 0.500080 -0.084304
C151  C     C_R   0.303975 0.749772 0.500057 -0.089652
C152  C     C_R   0.696033 0.249947 0.499998 -0.090982
C153  C     C_R   0.196026 0.249744 0.499944 -0.089816
C154  C     C_R   0.803937 0.749963 0.499942 -0.086531
C155  C     C_R   0.803964 0.250043 0.499997 -0.091122
C156  C     C_R   0.196001 0.749901 0.499989 -0.084238
H9    H     H_    0.779611 0.785664 0.369457 0.192603
H10   H     H_    0.088633 0.283147 0.368067 0.153880
H11   H     H_    0.089282 0.714065 0.369629 0.144501
H12   H     H_    0.778617 0.218154 0.367286 0.193158
H13   H     H_    0.410825 0.214346 0.630540 0.144800
H14   H     H_    0.720402 0.714361 0.630572 0.192331
H15   H     H_    0.721377 0.281850 0.632703 0.193342
H16   H     H_    0.411375 0.783130 0.632000 0.153456
H17   H     H_    0.678704 0.813692 0.261575 0.214305
H18   H     H_    0.081268 0.311011 0.260206 0.219146
H19   H     H_    0.082300 0.684247 0.262663 0.212779
H20   H     H_    0.676719 0.194904 0.257086 0.212693
H21   H     H_    0.417838 0.184655 0.737525 0.212870
H22   H     H_    0.821333 0.686427 0.738507 0.211715
H23   H     H_    0.823278 0.305089 0.742908 0.214982
H24   H     H_    0.418725 0.811107 0.739848 0.217802
H25   H     H_    0.589599 0.785322 0.370600 0.159238
H26   H     H_    0.280780 0.286277 0.371343 0.201761
H27   H     H_    0.280779 0.713086 0.371431 0.201467
H28   H     H_    0.588403 0.219124 0.367814 0.167266
H29   H     H_    0.219237 0.213115 0.628548 0.201353
H30   H     H_    0.910424 0.714725 0.629449 0.159390
H31   H     H_    0.911600 0.280833 0.632196 0.167769
H32   H     H_    0.219248 0.786267 0.628776 0.201973
H33   H     H_    0.789959 0.953122 0.289354 0.218850
H34   H     H_    0.210247 0.046745 0.709878 0.231606
H35   H     H_    0.210289 0.953371 0.709903 0.229868
H36   H     H_    0.790271 0.046433 0.288296 0.219515
H37   H     H_    0.289761 0.453192 0.290150 0.230145
H38   H     H_    0.709955 0.546884 0.710817 0.217693
H39   H     H_    0.709649 0.453574 0.711881 0.218287
H40   H     H_    0.289847 0.546563 0.289767 0.231904
C157  C     C_R   0.114796 0.946133 0.611190 0.317034
C158  C     C_R   0.885287 0.053832 0.387865 0.324029
C159  C     C_R   0.885022 0.946029 0.388914 0.324197
C160  C     C_R   0.114757 0.053915 0.611145 0.316479
C161  C     C_R   0.614684 0.446168 0.612220 0.325535
C162  C     C_R   0.385296 0.553832 0.388554 0.316217
C163  C     C_R   0.385219 0.446053 0.388956 0.316910
C164  C     C_R   0.614944 0.553971 0.611162 0.325318
C165  C     C_R   0.167408 0.973571 0.667327 -0.157739
C166  C     C_R   0.832954 0.026298 0.331409 -0.160009
C167  C     C_R   0.832796 0.973351 0.331962 -0.163655
C168  C     C_R   0.167384 0.026516 0.667312 -0.156459
C169  C     C_R   0.666981 0.473706 0.668729 -0.163977
C170  C     C_R   0.332683 0.526371 0.332459 -0.156033
C171  C     C_R   0.332641 0.473427 0.332663 -0.157229
C172  C     C_R   0.667135 0.526654 0.668174 -0.165893
C173  C     C_R   0.056956 0.027485 0.555026 -0.066593
C174  C     C_R   0.942835 0.972502 0.444900 -0.065504
C175  C     C_R   0.942916 0.027459 0.444554 -0.066584
C176  C     C_R   0.056970 0.972536 0.555077 -0.066796
C177  C     C_R   0.557150 0.527495 0.555134 -0.065650
C178  C     C_R   0.443044 0.472497 0.444991 -0.066598
C179  C     C_R   0.443066 0.527446 0.444827 -0.066697
C180  C     C_R   0.557071 0.472539 0.555490 -0.066453
C181  C     C_R   0.999911 0.054046 0.499821 -0.105545
C182  C     C_R   0.999889 0.945952 0.500053 -0.105228
C183  C     C_R   0.500118 0.554041 0.499919 -0.105420
C184  C     C_R   0.500086 0.445947 0.500207 -0.105785
N1    N     N_R   0.124951 0.556270 0.398431 0.234958
O53   O     O_R   0.152653 0.599987 0.429052 -0.387634
O54   O     O_R   0.117612 0.542347 0.337606 -0.283369
N2    N     N_R   0.871278 0.444296 0.597028 0.242747
O55   O     O_R   0.815249 0.459331 0.576469 -0.292595
O56   O     O_R   0.892290 0.399595 0.628892 -0.376942
N3    N     N_R   0.876903 0.556264 0.604089 0.241615
O57   O     O_R   0.849422 0.600179 0.574209 -0.387469
O58   O     O_R   0.885127 0.542236 0.665350 -0.270078
N4    N     N_R   0.129123 0.444353 0.403548 0.243335
O59   O     O_R   0.185858 0.458495 0.425672 -0.289073
O60   O     O_R   0.106773 0.400557 0.369214 -0.396801
N5    N     N_R   0.630119 0.055257 0.404570 0.243330
O61   O     O_R   0.609532 0.100073 0.372941 -0.376260
O62   O     O_R   0.686128 0.039966 0.425357 -0.291836
N6    N     N_R   0.368156 0.945039 0.593170 0.243764
O63   O     O_R   0.387995 0.899920 0.623928 -0.399877
O64   O     O_R   0.312327 0.960756 0.572508 -0.286755
N7    N     N_R   0.374600 0.056935 0.600774 0.235454
O65   O     O_R   0.346941 0.100658 0.570158 -0.387019
O66   O     O_R   0.382353 0.043256 0.661893 -0.286266
N8    N     N_R   0.623960 0.943304 0.397218 0.241337
O67   O     O_R   0.651297 0.899372 0.427222 -0.387649
O68   O     O_R   0.616050 0.957260 0.336107 -0.270587
N9    N     N_R   0.123696 0.891695 0.611361 0.168090
O69   O     O_R   0.140136 0.873079 0.570512 -0.397872
O70   O     O_R   0.133735 0.864222 0.666199 -0.367457
N10   N     N_R   0.876254 0.108304 0.387333 0.162090
O71   O     O_R   0.865023 0.135435 0.331642 -0.389001
O72   O     O_R   0.860386 0.127118 0.428640 -0.403113
N11   N     N_R   0.875546 0.891794 0.390067 0.161181
O73   O     O_R   0.860410 0.874484 0.432736 -0.400308
O74   O     O_R   0.863427 0.863421 0.334908 -0.396776
N12   N     N_R   0.123620 0.108341 0.611285 0.168291
O75   O     O_R   0.133479 0.135897 0.666011 -0.367308
O76   O     O_R   0.140127 0.126892 0.570503 -0.398603
N13   N     N_R   0.623739 0.391700 0.612739 0.162282
O77   O     O_R   0.639590 0.372908 0.571405 -0.402990
O78   O     O_R   0.635001 0.364555 0.668434 -0.391202
N14   N     N_R   0.376478 0.608298 0.388111 0.168562
O79   O     O_R   0.366677 0.635590 0.333253 -0.365541
O80   O     O_R   0.359937 0.627153 0.428744 -0.399980
N15   N     N_R   0.376252 0.391661 0.389089 0.168012
O81   O     O_R   0.359849 0.373364 0.430095 -0.397444
O82   O     O_R   0.366146 0.363915 0.334388 -0.368480
N16   N     N_R   0.624448 0.608199 0.609976 0.161045
O83   O     O_R   0.636605 0.636599 0.665131 -0.397641
O84   O     O_R   0.639567 0.625469 0.567275 -0.400375
S1    S     S_3+6 0.211834 0.637478 0.939010 0.135782
O85   O     O_2   0.140817 0.632126 0.894990 -0.177325
O86   O     O_2   0.232417 0.627243 0.889445 -0.269444
O87   O     O_3   0.247000 0.595083 0.009479 -0.447971
H41   H     H_    0.232759 0.560798 0.985487 0.405683
S2    S     S_3+6 0.891260 0.272032 0.060908 0.137169
O88   O     O_2   0.912263 0.321112 0.105129 -0.183232
O89   O     O_2   0.932529 0.228564 0.110898 -0.290828
O90   O     O_3   0.898482 0.278400 0.990854 -0.418242
H42   H     H_    0.916419 0.245289 0.988798 0.393304
S3    S     S_3+6 0.892310 0.734596 0.060884 0.156875
O91   O     O_2   0.929977 0.780504 0.107288 -0.187872
O92   O     O_2   0.917677 0.687147 0.108698 -0.258612
O93   O     O_3   0.899539 0.728656 0.990780 -0.427280
H43   H     H_    0.904390 0.691234 0.986552 0.405017
S4    S     S_3+6 0.209217 0.361985 0.938156 0.141454
O94   O     O_2   0.235553 0.374897 0.895170 -0.171692
O95   O     O_2   0.137816 0.364568 0.886888 -0.263667
O96   O     O_3   0.237015 0.404631 0.007749 -0.439988
H44   H     H_    0.199376 0.416005 0.005338 0.387320
S5    S     S_3+6 0.608572 0.229062 0.939123 0.129339
O97   O     O_2   0.568959 0.274766 0.894267 -0.184231
O98   O     O_2   0.584990 0.182358 0.889747 -0.298506
O99   O     O_3   0.601954 0.219762 0.009219 -0.435222
H45   H     H_    0.597853 0.182011 0.011704 0.390734
S6    S     S_3+6 0.287367 0.862330 0.061414 0.161957
O100  O     O_2   0.262146 0.873626 0.106037 -0.185726
O101  O     O_2   0.358684 0.866665 0.110996 -0.218892
O102  O     O_3   0.256681 0.905050 0.991519 -0.440364
H46   H     H_    0.293050 0.916852 0.991618 0.400333
S7    S     S_3+6 0.291885 0.137910 0.061291 0.135040
O103  O     O_2   0.363002 0.134014 0.104758 -0.173759
O104  O     O_2   0.272177 0.126625 0.111440 -0.273014
O105  O     O_3   0.257626 0.095290 0.991059 -0.449043
H47   H     H_    0.272832 0.061145 0.015226 0.404336
S8    S     S_3+6 0.607677 0.766344 0.938903 0.133564
O106  O     O_2   0.584529 0.815898 0.895879 -0.184325
O107  O     O_2   0.568571 0.722573 0.887759 -0.293039
O108  O     O_3   0.599820 0.769484 0.008753 -0.425866
H48   H     H_    0.583017 0.735429 0.009586 0.389279
S9    S     S_3+6 0.744175 0.143423 0.061179 0.141421
O109  O     O_2   0.809407 0.119773 0.105304 -0.163365
O110  O     O_2   0.723728 0.151568 0.111329 -0.289679
O111  O     O_3   0.693123 0.103474 0.991355 -0.437893
H49   H     H_    0.654246 0.103416 0.989971 0.386070
S10   S     S_3+6 0.125707 0.813110 0.938499 0.136946
O112  O     O_2   0.124592 0.858722 0.896142 -0.198536
O113  O     O_2   0.069115 0.779397 0.887316 -0.249823
O114  O     O_3   0.123443 0.833520 0.008677 -0.448617
H50   H     H_    0.082343 0.851903 0.984462 0.404012
S11   S     S_3+6 0.127904 0.184270 0.938079 0.169221
O115  O     O_2   0.070505 0.218063 0.890811 -0.159452
O116  O     O_2   0.125517 0.141382 0.890996 -0.234414
O117  O     O_3   0.127499 0.159699 0.007790 -0.434214
H51   H     H_    0.142081 0.123596 0.013322 0.402024
S12   S     S_3+6 0.737617 0.854289 0.060936 0.132900
O118  O     O_2   0.709665 0.843969 0.102872 -0.206877
O119  O     O_2   0.802617 0.877582 0.112489 -0.265233
O120  O     O_3   0.690400 0.895177 0.990722 -0.444319
H52   H     H_    0.689988 0.927127 0.014856 0.402452
S13   S     S_3+6 0.374265 0.687183 0.062007 0.165655
O121  O     O_2   0.430499 0.722182 0.108807 -0.167019
O122  O     O_2   0.378275 0.643950 0.109577 -0.233028
O123  O     O_3   0.375278 0.663271 0.992364 -0.438336
H53   H     H_    0.362652 0.626662 0.987764 0.403277
S14   S     S_3+6 0.756727 0.356507 0.939556 0.156955
O124  O     O_2   0.782182 0.348674 0.894433 -0.221014
O125  O     O_2   0.690908 0.378914 0.891179 -0.219584
O126  O     O_3   0.804574 0.396919 0.010239 -0.432590
H54   H     H_    0.803547 0.429510 0.986376 0.395570
S15   S     S_3+6 0.761933 0.645570 0.939099 0.128909
O127  O     O_2   0.698411 0.619024 0.896033 -0.199940
O128  O     O_2   0.781431 0.656294 0.888610 -0.278014
O129  O     O_3   0.816454 0.607644 0.009435 -0.449196
H55   H     H_    0.817231 0.575789 0.985388 0.394789
S16   S     S_3+6 0.372227 0.316290 0.061994 0.150237
O130  O     O_2   0.371940 0.360734 0.105143 -0.162427
O131  O     O_2   0.430086 0.283718 0.113125 -0.258663
O132  O     O_3   0.374029 0.339200 0.992486 -0.433112
H56   H     H_    0.404380 0.316814 0.991317 0.387262
S17   S     S_3+6 0.705678 0.335520 0.059266 0.155996
O133  O     O_2   0.686627 0.310726 0.104603 -0.224324
O134  O     O_2   0.759919 0.372062 0.107218 -0.225033
O135  O     O_3   0.643521 0.367936 0.988057 -0.431007
H57   H     H_    0.632759 0.394145 0.011489 0.401478
S18   S     S_3+6 0.323287 0.799723 0.942964 0.165438
O136  O     O_2   0.330308 0.760420 0.898532 -0.184330
O137  O     O_2   0.286047 0.845051 0.894572 -0.225156
O138  O     O_3   0.395575 0.819369 0.015057 -0.423003
H58   H     H_    0.415925 0.833698 0.992425 0.416844
S19   S     S_3+6 0.324748 0.202702 0.942406 0.171746
O139  O     O_2   0.291540 0.154423 0.899589 -0.134179
O140  O     O_2   0.325181 0.240766 0.891750 -0.261929
O141  O     O_3   0.399783 0.188170 0.013767 -0.404904
H59   H     H_    0.426773 0.215051 0.013544 0.395575
S20   S     S_3+6 0.710906 0.660472 0.059637 0.141158
O142  O     O_2   0.765895 0.623839 0.103106 -0.172940
O143  O     O_2   0.695644 0.682411 0.110139 -0.283579
O144  O     O_3   0.647568 0.628425 0.989191 -0.432441
H60   H     H_    0.610635 0.641301 0.987203 0.386559
S21   S     S_3+6 0.176774 0.699900 0.057663 0.195535
O145  O     O_2   0.212324 0.652850 0.102421 -0.145403
O146  O     O_2   0.173597 0.737954 0.106434 -0.217893
O147  O     O_3   0.102841 0.682739 0.986255 -0.403482
H61   H     H_    0.074314 0.709099 0.984436 0.410049
S22   S     S_3+6 0.793532 0.164228 0.939975 0.144941
O148  O     O_2   0.740418 0.126028 0.896239 -0.167917
O149  O     O_2   0.807680 0.188367 0.889651 -0.287280
O150  O     O_3   0.858422 0.133523 0.010269 -0.428266
H62   H     H_    0.894576 0.147716 0.011704 0.388400
S23   S     S_3+6 0.789786 0.839032 0.940470 0.168149
O151  O     O_2   0.809422 0.816206 0.894599 -0.183842
O152  O     O_2   0.733783 0.874060 0.892339 -0.237366
O153  O     O_3   0.850988 0.872720 0.011063 -0.423919
H63   H     H_    0.831682 0.903894 0.016019 0.404867
S24   S     S_3+6 0.175354 0.296466 0.057338 0.177257
O154  O     O_2   0.171582 0.256829 0.103852 -0.152845
O155  O     O_2   0.210313 0.342952 0.104373 -0.238182
O156  O     O_3   0.101257 0.313132 0.985820 -0.398499
H64   H     H_    0.102430 0.350983 0.981026 0.395470
N17   N     N_R   0.933589 0.682191 0.756375 0.247792
O157  O     O_R   0.938316 0.666696 0.815096 -0.290339
O158  O     O_R   0.984351 0.682139 0.757484 -0.330365
N18   N     N_R   0.322815 0.177854 0.753858 0.242119
O159  O     O_R   0.377374 0.163943 0.813533 -0.280276
O160  O     O_R   0.272060 0.173459 0.752328 -0.288690
N19   N     N_R   0.323367 0.819119 0.755463 0.240061
O161  O     O_R   0.378082 0.832180 0.815607 -0.292053
O162  O     O_R   0.272555 0.823885 0.753752 -0.291996
N20   N     N_R   0.935898 0.307948 0.761591 0.252021
O163  O     O_R   0.941116 0.321181 0.821423 -0.275427
O164  O     O_R   0.986766 0.307695 0.762916 -0.323707
N21   N     N_R   0.176643 0.318996 0.244638 0.241072
O165  O     O_R   0.121896 0.331849 0.184388 -0.266371
O166  O     O_R   0.227490 0.323906 0.246463 -0.290460
N22   N     N_R   0.566466 0.817989 0.243747 0.249103
O167  O     O_R   0.561776 0.833635 0.185107 -0.277940
O168  O     O_R   0.515693 0.817989 0.242614 -0.329382
N23   N     N_R   0.564102 0.192028 0.238407 0.252530
O169  O     O_R   0.558847 0.178980 0.178493 -0.294119
O170  O     O_R   0.513269 0.192118 0.237152 -0.318965
N24   N     N_R   0.177295 0.677522 0.246259 0.241914
O171  O     O_R   0.122788 0.663385 0.186690 -0.277785
O172  O     O_R   0.228032 0.673242 0.247724 -0.290686

loop_
_geom_bond_atom_site_label_1
_geom_bond_atom_site_label_2
_geom_bond_distance
_ccdc_geom_bond_type
C56   C68   1.544782 S    
S11   O117  1.681905 S    
O156  H64   0.990188 S    
C57   C61   1.544566 S    
C122  C130  1.402805 A    
Zn8   O10   1.914997 S    
Zn6   O42   1.937939 S    
C143  C156  1.414971 A    
C60   C64   1.544961 S    
C42   C50   1.415269 A    
N22   O168  1.301810 A    
C46   C47   1.408012 A    
C55   C67   1.544299 S    
C173  C176  1.425498 A    
C59   C63   1.544177 S    
C159  C167  1.389965 A    
C174  C175  1.425709 A    
C61   C82   1.544147 S    
C24   C51   1.455693 S    
C25   H1    1.081375 S    
O42   C14   1.272697 A    
C64   C83   1.543821 S    
Zn4   O30   1.937664 S    
C65   C78   1.544337 S    
C119  C127  1.402745 A    
C38   C39   1.407544 A    
C26   C43   1.415811 A    
C165  C168  1.373512 A    
C117  C125  1.402781 A    
O46   C2    1.279920 A    
C166  C167  1.373657 A    
O24   C18   1.272822 A    
C67   C80   1.544304 S    
C42   C43   1.408013 A    
N24   O172  1.301341 A    
C138  C146  1.409784 A    
S22   O150  1.682090 S    
C27   C35   1.399539 A    
N18   O159  1.301662 A    
C59   C92   1.543736 S    
N12   O75   1.300597 A    
C120  C128  1.402801 A    
Zn16  O28   1.938401 S    
S8    O108  1.682215 S    
Zn4   O2    1.938074 S    
C130  C138  1.418700 A    
C163  C171  1.389859 A    
C176  C182  1.429239 A    
C124  C132  1.402244 A    
Zn4   O40   1.937515 S    
C31   C39   1.401309 A    
O33   C23   1.269498 A    
O11   C7    1.279273 A    
C104  H12   1.081018 S    
Zn7   O43   1.937512 S    
O25   C19   1.273121 A    
S5    O99   1.682209 S    
H33   C167  1.083727 S    
C32   C40   1.401840 A    
C105  C145  1.415794 A    
N11   O73   1.300825 A    
C60   S16   1.784892 S    
C22   C49   1.456058 S    
C25   C33   1.399983 A    
N15   O82   1.300620 A    
S21   O147  1.682300 S    
C136  C144  1.409611 A    
N8    O67   1.301090 A    
S4    O96   1.682315 S    
C77   C85   1.544100 S    
Zn12  O24   1.938401 S    
S10   O113  1.502643 D    
C140  C148  1.409606 A    
C142  C153  1.415414 A    
Zn13  O17   1.935553 S    
O16   C12   1.269800 A    
Zn10  O14   1.935555 S    
Zn16  O4    1.941123 S    
C128  C136  1.419078 A    
C19   C184  1.452074 S    
C58   C89   1.543359 S    
C62   C86   1.543880 S    
N14   O79   1.300600 A    
O30   C22   1.270189 A    
C26   H2    1.081303 S    
N2    O55   1.301367 A    
N19   O162  1.301319 A    
O47   C3    1.279464 A    
C55   S11   1.784989 S    
C28   C36   1.401387 A    
O114  H50   0.990413 S    
C1    C71   1.427258 S    
S14   O125  1.502597 D    
S10   O114  1.680497 S    
C2    C72   1.427027 S    
O23   C17   1.272766 A    
Zn8   O34   1.937664 S    
C137  C153  1.415573 A    
S20   O142  1.502138 D    
C28   C41   1.415952 A    
C113  C121  1.397558 A    
S22   O149  1.503368 D    
C103  C143  1.415794 A    
C101  C141  1.415725 A    
C30   C38   1.400043 A    
C56   S12   1.784820 S    
C146  C149  1.415494 A    
C160  C173  1.443428 A    
Zn10  O22   1.937718 S    
C79   C87   1.544022 S    
S16   O130  1.502119 D    
C56   C87   1.543777 S    
C133  C141  1.409775 A    
C57   C90   1.543363 S    
C61   C85   1.543920 S    
C55   C88   1.543470 S    
Zn10  O2    1.942480 S    
C83   C91   1.544189 S    
Zn3   O1    1.938077 S    
C116  C124  1.397143 A    
C67   S7    1.784468 S    
S21   O146  1.503310 D    
O117  H51   0.990229 S    
C25   C44   1.415760 A    
N15   O81   1.300760 A    
C102  C110  1.392504 A    
C53   C65   1.544584 S    
C40   N6    1.437321 S    
O96   H44   0.990308 S    
Zn5   O35   1.937722 S    
C106  C114  1.392591 A    
Zn6   O36   1.937722 S    
O126  H54   0.990493 S    
N8    O68   1.301333 A    
C108  H16   1.081161 S    
C162  N14   1.430310 S    
O90   H42   0.990228 S    
S3    O91   1.502146 D    
C31   C46   1.415925 A    
S13   O121  1.502263 D    
S3    O93   1.682130 S    
S19   O140  1.503273 D    
O138  H58   0.990457 S    
C17   C182  1.452204 S    
N4    O59   1.301360 A    
O22   C18   1.273074 A    
C84   S23   1.784599 S    
Zn9   O45   1.912607 S    
O14   C10   1.270802 A    
C33   N3    1.436924 S    
Zn11  O47   1.912857 S    
Zn12  O48   1.912856 S    
O120  H52   0.990488 S    
O50   C6    1.279813 A    
O99   H45   0.990215 S    
Zn1   O37   1.937941 S    
O105  H47   0.990475 S    
Zn5   O11   1.914614 S    
Zn3   O39   1.937512 S    
C174  C182  1.429194 A    
Zn6   O12   1.914614 S    
S24   O154  1.502091 D    
N5    O62   1.301367 A    
S9    O111  1.682113 S    
O153  H63   0.990281 S    
S20   O144  1.682083 S    
S23   O153  1.681924 S    
H36   C166  1.083737 S    
C84   C92   1.543784 S    
C164  C172  1.389985 A    
O32   C22   1.270246 A    
C134  C150  1.414971 A    
C127  C135  1.417744 A    
C137  C145  1.409844 A    
C16   C149  1.454248 S    
C125  C133  1.418686 A    
N6    O64   1.301368 A    
S1    O86   1.502467 D    
Zn14  O50   1.912609 S    
N4    O60   1.300366 A    
S15   O128  1.502601 D    
C114  H22   1.082674 S    
C120  N23   1.441399 S    
S16   O132  1.682054 S    
O123  H53   0.990236 S    
C81   C89   1.544305 S    
C102  H10   1.081168 S    
N20   O163  1.301647 A    
C159  C174  1.443399 A    
C61   S1    1.784244 S    
C164  C177  1.443407 A    
C48   C52   1.415451 A    
O5    C1    1.279720 A    
O147  H61   0.990317 S    
N11   O74   1.300854 A    
N10   O72   1.300874 A    
N1    O53   1.301116 A    
C141  C154  1.415492 A    
C66   C90   1.543378 S    
C123  N20   1.441404 S    
Zn4   O6    1.914997 S    
S2    O89   1.503304 D    
S19   O139  1.502031 D    
C8    C74   1.426946 S    
S7    O105  1.680586 S    
Zn15  O51   1.912857 S    
C160  C168  1.389858 A    
C164  N16   1.431243 S    
C161  C169  1.390203 A    
C72   C96   1.200529 T    
C55   C83   1.543990 S    
S6    O102  1.682267 S    
C67   C91   1.543651 S    
C127  H27   1.080267 S    
C157  C165  1.389852 A    
O135  H57   0.990437 S    
C3    C69   1.427140 S    
C161  N13   1.431194 S    
N24   O171  1.301660 A    
S17   O135  1.680506 S    
C125  H25   1.080401 S    
N7    O66   1.301352 A    
C88   C96   1.460250 S    
O51   C7    1.279375 A    
C58   S14   1.784645 S    
S13   O123  1.681942 S    
O29   C21   1.269872 A    
O8    C4    1.279229 A    
S2    O90   1.682190 S    
C91   C99   1.460578 S    
C27   H3    1.081230 S    
S11   O116  1.503319 D    
C57   C77   1.543992 S    
C144  C155  1.415773 A    
C126  H26   1.080246 S    
C32   H8    1.081098 S    
C110  C118  1.397093 A    
Zn14  O18   1.935555 S    
Zn1   O7    1.914614 S    
C129  H29   1.080289 S    
N21   O166  1.301292 A    
C135  C143  1.409862 A    
C177  C183  1.429199 A    
Zn1   O1    1.937958 S    
O40   C12   1.272157 A    
C178  C184  1.429385 A    
C43   C49   1.416473 A    
C63   C87   1.543888 S    
C29   C37   1.399297 A    
Zn16  O20   1.935868 S    
C30   C47   1.415937 A    
C7    C73   1.427165 S    
S24   O156  1.682155 S    
O9    C5    1.279825 A    
C34   C35   1.406904 A    
C54   C66   1.544610 S    
O41   C13   1.271820 A    
C46   C52   1.415974 A    
Zn3   O5    1.914997 S    
S23   O151  1.502177 D    
O13   C9    1.270570 A    
O87   H41   0.990470 S    
C107  C147  1.416324 A    
O150  H62   0.990239 S    
C169  C172  1.373673 A    
C66   S6    1.784872 S    
C170  C171  1.373507 A    
N12   O76   1.300736 A    
O18   C14   1.270064 A    
O38   C10   1.271837 A    
O6    C2    1.279544 A    
C15   C150  1.453917 S    
C13   C152  1.454318 S    
C161  C180  1.443743 A    
C121  C129  1.402742 A    
N23   O169  1.301652 A    
C162  C179  1.443411 A    
Zn13  O25   1.937719 S    
O141  H59   0.990256 S    
C41   C49   1.416426 A    
O108  H48   0.990219 S    
N6    O63   1.300326 A    
C57   S13   1.785017 S    
Zn15  O3    1.941120 S    
S5    O98   1.503320 D    
C38   N8    1.436876 S    
S17   O133  1.502596 D    
C163  C178  1.443487 A    
C180  C184  1.429463 A    
C65   S5    1.785499 S    
O43   C15   1.271362 A    
C64   S4    1.785003 S    
C103  C111  1.392279 A    
S18   O136  1.502464 D    
C105  H13   1.081386 S    
S7    O103  1.502564 D    
C118  C126  1.402154 A    
C82   S21   1.783968 S    
C101  C109  1.392591 A    
C79   S20   1.784605 S    
C62   S2    1.785507 S    
C92   C100  1.460406 S    
N9    O70   1.300626 A    
S6    O100  1.502144 D    
C104  C112  1.392247 A    
C119  N24   1.440252 S    
O35   C23   1.270268 A    
C45   C51   1.416507 A    
C105  C113  1.392284 A    
C163  N15   1.430471 S    
O132  H56   0.990217 S    
C108  C116  1.392513 A    
C87   C95   1.460445 S    
C111  C119  1.397558 A    
N2    O56   1.300788 A    
C129  C137  1.417764 A    
C18   C181  1.452178 S    
S15   O129  1.680541 S    
Zn9   O1    1.942481 S    
Zn10  O46   1.912609 S    
C133  C149  1.415720 A    
N22   O167  1.301638 A    
S20   O143  1.503345 D    
C35   N1    1.437019 S    
C69   C93   1.200589 T    
C106  C146  1.415727 A    
C75   C99   1.200744 T    
Zn13  O3    1.942481 S    
Zn14  O4    1.942480 S    
S12   O118  1.502567 D    
C111  H19   1.082724 S    
C123  C131  1.402787 A    
Zn2   O38   1.937939 S    
O19   C15   1.270170 A    
Zn1   O31   1.937722 S    
C121  N18   1.440245 S    
C109  H17   1.082667 S    
Zn2   O32   1.937722 S    
N17   O157  1.301642 A    
H34   C168  1.083803 S    
C145  C150  1.414959 A    
Zn3   O29   1.937664 S    
C175  C181  1.429467 A    
C47   C51   1.416051 A    
C107  C115  1.392248 A    
S16   O131  1.503345 D    
C117  N22   1.441244 S    
O37   C9    1.271719 A    
N3    O57   1.301102 A    
C80   S19   1.783919 S    
O7    C3    1.279193 A    
O39   C11   1.271063 A    
H37   C171  1.083800 S    
H38   C172  1.083735 S    
C131  C139  1.419061 A    
Zn8   O4    1.938074 S    
S12   O119  1.502558 D    
C29   C48   1.415925 A    
C29   H5    1.081237 S    
C60   C91   1.543969 S    
C63   C84   1.544379 S    
C33   C36   1.407576 A    
O129  H55   0.990498 S    
C157  N9    1.430457 S    
C112  H20   1.082692 S    
C64   C88   1.543765 S    
O12   C8    1.279005 A    
C148  C151  1.415515 A    
C82   C90   1.543752 S    
C110  H18   1.082763 S    
C160  N12   1.430335 S    
Zn11  O1    1.941120 S    
C65   C89   1.543871 S    
C102  C142  1.415712 A    
C115  C123  1.397334 A    
C27   C42   1.415986 A    
C116  H24   1.082755 S    
C78   C86   1.543376 S    
C31   H7    1.081188 S    
S3    O92   1.503391 D    
Zn5   O3    1.937958 S    
C36   N2    1.437427 S    
Zn6   O4    1.937959 S    
C14   C151  1.454719 S    
C90   C98   1.460136 S    
Zn7   O9    1.914997 S    
Zn5   O41   1.937941 S    
C54   C82   1.543937 S    
C162  C170  1.389867 A    
S10   O112  1.502461 D    
C10   C155  1.454340 S    
Zn8   O44   1.937515 S    
C58   C78   1.543743 S    
C158  C166  1.390184 A    
C4    C70   1.427134 S    
H35   C165  1.083805 S    
C115  H23   1.082687 S    
C124  N19   1.440107 S    
Zn15  O27   1.938400 S    
C136  C152  1.416471 A    
C30   H6    1.081285 S    
S24   O155  1.503032 D    
N5    O61   1.300828 A    
C63   S3    1.785524 S    
S15   O127  1.502531 D    
S9    O110  1.503417 D    
S14   O124  1.502624 D    
C37   N7    1.436704 S    
C157  C176  1.443477 A    
S23   O152  1.503326 D    
C158  C175  1.443760 A    
N7    O65   1.301096 A    
S22   O148  1.502120 D    
Zn2   O2    1.937959 S    
C20   C183  1.452317 S    
N13   O77   1.300876 A    
S12   O120  1.680535 S    
C12   C153  1.454589 S    
O144  H60   0.990224 S    
O111  H49   0.990236 S    
C53   C81   1.545005 S    
S21   O145  1.502073 D    
C59   C79   1.544771 S    
S11   O115  1.502166 D    
Zn13  O49   1.912607 S    
S1    O85   1.502559 D    
C39   N5    1.437544 S    
C56   C84   1.544217 S    
C68   C92   1.544089 S    
C139  C155  1.416469 A    
N16   O84   1.300830 A    
O21   C17   1.273052 A    
C83   S24   1.783544 S    
N14   O80   1.300729 A    
C177  C180  1.425700 A    
C178  C179  1.425487 A    
C60   C80   1.544036 S    
N20   O164  1.301829 A    
C34   N4    1.436329 S    
C89   C97   1.460334 S    
O49   C5    1.279834 A    
C131  H31   1.079945 S    
C107  H15   1.081021 S    
S7    O104  1.502489 D    
S14   O126  1.680547 S    
C86   C94   1.460305 S    
H40   C170  1.083814 S    
Zn16  O52   1.912856 S    
C114  C122  1.397905 A    
Zn9   O13   1.935553 S    
Zn14  O26   1.937718 S    
C45   C48   1.407926 A    
Zn11  O15   1.935870 S    
C132  C140  1.417814 A    
C135  C151  1.415557 A    
Zn12  O16   1.935868 S    
O31   C21   1.269616 A    
C6    C76   1.427211 S    
C126  C134  1.417733 A    
Zn15  O19   1.935870 S    
S13   O122  1.503348 D    
C71   C95   1.200659 T    
S19   O141  1.682392 S    
N17   O158  1.301811 A    
C37   C40   1.407128 A    
C53   S9    1.785255 S    
C28   H4    1.081181 S    
C113  H21   1.082722 S    
Zn7   O33   1.937664 S    
C103  H11   1.081403 S    
C41   C44   1.408038 A    
C147  C152  1.415766 A    
C101  H9    1.081278 S    
N21   O165  1.301663 A    
H39   C169  1.083737 S    
S8    O107  1.503331 D    
C128  H28   1.079952 S    
S4    O95   1.503434 D    
C11   C154  1.454248 S    
N19   O161  1.301667 A    
Zn9   O21   1.937719 S    
N13   O78   1.300799 A    
O52   C8    1.279547 A    
Zn11  O23   1.938400 S    
N3    O58   1.301333 A    
C80   C88   1.543894 S    
C54   C85   1.543691 S    
N18   O160  1.301345 A    
C74   C98   1.200478 T    
O93   H43   0.990277 S    
C70   C94   1.200585 T    
Zn2   O8    1.914614 S    
C179  C183  1.429353 A    
C104  C144  1.416318 A    
O26   C20   1.273175 A    
C130  H30   1.080400 S    
S8    O106  1.502169 D    
C106  H14   1.081282 S    
O102  H46   0.990313 S    
S1    O87   1.680597 S    
O45   C1    1.279838 A    
C108  C148  1.415721 A    
C81   S22   1.784574 S    
O34   C24   1.269929 A    
C9    C156  1.453964 S    
C54   S10   1.784195 S    
C158  N10   1.431181 S    
C32   C45   1.415934 A    
C109  C117  1.397901 A    
C139  C147  1.409599 A    
C77   S18   1.782974 S    
C58   C62   1.544472 S    
N23   O170  1.301824 A    
C78   S17   1.783910 S    
O15   C11   1.270722 A    
S5    O97   1.502115 D    
Zn7   O3    1.938077 S    
C134  C142  1.409558 A    
O27   C19   1.272709 A    
N10   O71   1.300800 A    
C68   C79   1.544540 S    
C85   C93   1.460185 S    
N1    O54   1.301332 A    
C122  N17   1.441252 S    
C44   C50   1.415476 A    
O44   C16   1.271046 A    
C62   C81   1.544497 S    
S2    O88   1.502134 D    
S9    O109  1.502138 D    
C68   S8    1.785623 S    
S18   O137  1.502285 D    
O20   C16   1.270732 A    
S4    O94   1.502106 D    
O10   C6    1.279722 A    
C53   C86   1.544246 S    
C118  N21   1.440002 S    
C73   C97   1.200606 T    
O48   C4    1.279400 A    
C66   C77   1.543701 S    
N9    O69   1.300756 A    
C59   S15   1.784804 S    
S6    O101  1.503508 D    
O36   C24   1.270293 A    
C76   C100  1.200634 T    
C21   C50   1.454555 S    
C112  C120  1.397341 A    
S17   O134  1.502566 D    
N16   O83   1.300853 A    
Zn12  O2    1.941123 S    
C23   C52   1.454972 S    
C140  C156  1.415021 A    
C132  H32   1.080238 S    
O28   C20   1.272712 A    
O17   C13   1.270809 A    
C5    C75   1.427398 S    
C26   C34   1.401281 A    
C173  C181  1.429500 A    
C159  N11   1.431217 S    
S18   O138  1.680608 S    
C138  C154  1.415745 A    
