data_mof_unit_47369.cif
_audit_creation_date              2013-03-05T15:58:21-0500
_audit_creation_method            fapswitch 2.2
_symmetry_space_group_name_H-M    P1
_symmetry_Int_Tables_number       1
_space_group_crystal_system       triclinic
_cell_length_a                    15.042007
_cell_length_b                    13.807568
_cell_length_c                    15.884681
_cell_angle_alpha                 90.614573
_cell_angle_beta                  88.350474
_cell_angle_gamma                 90.613877
_cell_volume                      3297.41000127

loop_
_atom_site_label
_atom_site_type_symbol
_atom_site_description
_atom_site_fract_x
_atom_site_fract_y
_atom_site_fract_z
_atom_type_partial_charge
O1    O     O_R   0.370250 0.582280 0.500020 -0.572782
O2    O     O_R   0.370250 0.417720 0.500020 -0.591879
C1    C     C_R   0.329171 0.499528 0.501678 0.881297
O3    O     O_R   0.499990 0.582310 0.379440 -0.537511
O4    O     O_R   0.499990 0.417690 0.379440 -0.527100
C2    C     C_R   0.500243 0.499586 0.340400 0.945402
Cu1   Cu    Cu3+1 0.499990 0.597420 0.500010 1.031222
Cu2   Cu    Cu3+1 0.499990 0.402580 0.500010 1.027038
O5    O     O_R   0.629730 0.582260 0.499990 -0.533159
O6    O     O_R   0.629730 0.417740 0.499990 -0.541288
O7    O     O_R   0.499980 0.582240 0.620570 -0.586782
O8    O     O_R   0.499980 0.417760 0.620570 -0.577655
C3    C     C_R   0.670682 0.500480 0.500649 0.928494
C4    C     C_R   0.499853 0.500442 0.659687 0.767936
C5    C     C_3   0.458048 0.602900 0.050778 0.193396
C6    C     C_3   0.434662 0.410442 0.049565 0.174022
C7    C     C_3   0.425540 0.425949 0.951245 0.171760
C8    C     C_3   0.471896 0.603786 0.951381 0.174829
H1    H     H_    0.408581 0.624201 0.921811 0.125112
H2    H     H_    0.359898 0.457718 0.938514 0.114446
C9    C     C_1   0.499413 0.501315 0.749192 -0.103453
C10   C     C_3   0.495990 0.500021 0.083485 0.011173
C11   C     C_3   0.497087 0.500547 0.917148 -0.058804
C12   C     C_3   0.590438 0.472681 0.948464 -0.417638
C13   C     C_3   0.595355 0.486164 0.045617 0.625386
C14   C     C_1   0.498624 0.501274 0.824674 0.118553
C15   C     C_1   0.498294 0.499152 0.175732 0.057223
C16   C     C_1   0.499551 0.498846 0.251068 -0.038425
H3    H     H_    0.643062 0.516477 0.915554 0.244556
H4    H     H_    0.604346 0.396399 0.929896 0.210877
C17   C     C_R   0.815739 0.499005 0.426543 0.308782
C18   C     C_R   0.766960 0.501621 0.502736 -0.139530
C19   C     C_R   0.809173 0.507665 0.580624 0.047893
C20   C     C_R   0.902658 0.494952 0.582466 0.064392
C21   C     C_R   0.952643 0.500441 0.505417 -0.040908
C22   C     C_R   0.908760 0.503913 0.427547 0.038856
C23   C     C_R   0.948383 0.480854 0.658298 0.151011
C24   C     C_R   0.040895 0.495755 0.659382 0.160367
C25   C     C_R   0.091540 0.493200 0.582599 0.059318
C26   C     C_R   0.046694 0.500967 0.505606 -0.042386
C27   C     C_R   0.095782 0.510818 0.428424 0.063589
C28   C     C_R   0.050719 0.516477 0.352659 -0.143707
C29   C     C_R   0.958869 0.511608 0.352120 -0.129527
C30   C     C_R   0.185019 0.479581 0.579248 0.049651
C31   C     C_R   0.232623 0.498578 0.503405 -0.129810
C32   C     C_R   0.188874 0.515358 0.428522 0.274255
H5    H     H_    0.085752 0.523319 0.292572 0.206850
H6    H     H_    0.927852 0.515270 0.291673 0.216148
C33   C     C_R   0.444446 0.794302 0.553706 -0.035221
C34   C     C_R   0.444657 0.205662 0.553777 -0.037743
N1    N     N_R   0.499930 0.743810 0.499960 -0.216414
N2    N     N_R   0.499930 0.256190 0.499960 -0.219338
C35   C     C_R   0.554212 0.792748 0.443024 0.515505
C36   C     C_R   0.558353 0.207206 0.446581 0.512947
C37   C     C_R   0.552691 0.896050 0.437867 -0.112302
C38   C     C_R   0.562377 0.103556 0.446040 -0.113794
C39   C     C_R   0.499960 0.948163 0.497262 0.022018
C40   C     C_R   0.501622 0.051723 0.498549 0.020529
C41   C     C_R   0.443732 0.896885 0.554165 0.016261
C42   C     C_R   0.444046 0.103124 0.554239 0.015064
C43   C     C_R   0.604655 0.949757 0.378111 0.151848
C44   C     C_R   0.621727 0.049005 0.392758 0.148938
C45   C     C_R   0.387275 0.050973 0.609569 -0.149456
C46   C     C_R   0.387636 0.949180 0.610002 -0.155444
H7    H     H_    0.401226 0.754602 0.597070 0.145125
H8    H     H_    0.400429 0.245326 0.596250 0.148591
H9    H     H_    0.342821 0.089021 0.653074 0.152386
H10   H     H_    0.343562 0.911270 0.653909 0.144573
C47   C     C_3   0.079917 0.529877 0.741713 -0.831420
H11   H     H_    0.034955 0.583511 0.772861 0.242436
H12   H     H_    0.087580 0.468399 0.785258 0.238170
H13   H     H_    0.144215 0.568601 0.731800 0.241975
C48   C     C_3   0.233859 0.433157 0.650693 -0.816342
H14   H     H_    0.188422 0.395644 0.695861 0.251152
H15   H     H_    0.277471 0.374536 0.626082 0.235492
H16   H     H_    0.275367 0.487891 0.683511 0.216899
Cl1   Cl    Cl    0.252472 0.536363 0.334275 -0.693292
Cl2   Cl    Cl    0.635341 0.726932 0.384615 -0.562881
Cl3   Cl    Cl    0.620779 0.274255 0.371228 -0.548815
C49   C     C_3   0.631449 0.909224 0.292081 -0.713766
H17   H     H_    0.631571 0.966959 0.243886 0.224485
H18   H     H_    0.699313 0.878535 0.292769 0.272285
H19   H     H_    0.582316 0.854375 0.270603 0.247796
C50   C     C_3   0.710148 0.088466 0.359330 -0.706285
H20   H     H_    0.759747 0.029802 0.351366 0.219821
H21   H     H_    0.702496 0.122321 0.296934 0.275538
H22   H     H_    0.739578 0.139857 0.405253 0.253377
C51   C     C_3   0.356737 0.616523 0.071221 -0.858026
H23   H     H_    0.313610 0.570620 0.032430 0.214236
H24   H     H_    0.341060 0.607122 0.139360 0.275142
H25   H     H_    0.334799 0.690508 0.055011 0.242707
C52   C     C_3   0.340136 0.403141 0.095163 -0.752581
H26   H     H_    0.335373 0.447347 0.153483 0.252026
H27   H     H_    0.284536 0.421187 0.054118 0.220314
H28   H     H_    0.322010 0.329091 0.116868 0.239108
C53   C     C_3   0.476307 0.309265 0.066031 -0.602314
H29   H     H_    0.428687 0.248926 0.053808 0.244192
H30   H     H_    0.533018 0.292556 0.022770 0.265059
H31   H     H_    0.495660 0.302926 0.132689 0.245887
C54   C     C_3   0.499367 0.694817 0.095045 -0.572248
H32   H     H_    0.461662 0.761324 0.081199 0.214847
H33   H     H_    0.497878 0.687585 0.164572 0.214228
H34   H     H_    0.566926 0.715853 0.074454 0.295279
Cl4   Cl    Cl    0.422804 0.315100 0.889452 -0.632555
Cl5   Cl    Cl    0.549360 0.694215 0.911367 -0.586922
Cl6   Cl    Cl    0.672225 0.582234 0.067984 -0.489358
Cl7   Cl    Cl    0.656632 0.389156 0.091057 -0.520650
Cl8   Cl    Cl    0.758497 0.494124 0.330203 -0.476364
C55   C     C_3   0.754803 0.541435 0.657414 -0.805324
H35   H     H_    0.709182 0.600226 0.640340 0.243778
H36   H     H_    0.714415 0.480613 0.683834 0.219574
H37   H     H_    0.796646 0.575003 0.706119 0.255520
C56   C     C_3   0.904231 0.435218 0.735460 -0.807523
H38   H     H_    0.841719 0.396566 0.720196 0.246490
H39   H     H_    0.948061 0.378798 0.760619 0.238772
H40   H     H_    0.892027 0.490248 0.785785 0.244515

loop_
_geom_bond_atom_site_label_1
_geom_bond_atom_site_label_2
_geom_bond_distance
_ccdc_geom_bond_type
C5    C8    1.586772 S    
C9    C14   1.198739 T    
C27   C28   1.401463 A    
C20   C23   1.420394 A    
C17   Cl8   1.777711 S    
C3    C18   1.449450 S    
C21   C22   1.420215 A    
C50   H22   1.110113 S    
C5    C54   1.574973 S    
Cu1   Cu2   2.690265 S    
C31   C32   1.398531 A    
Cu1   O7    1.928722 S    
C41   C46   1.405807 A    
C7    C11   1.570722 S    
C33   H7    1.082730 S    
C42   C45   1.406195 A    
C46   H10   1.083386 S    
C4    C9    1.421500 S    
C7    Cl4   1.810123 S    
C50   H21   1.109865 S    
C8    H1    1.114219 S    
C47   H11   1.110970 S    
C55   H36   1.110146 S    
C24   C25   1.419627 A    
O7    C4    1.294854 A    
C39   C41   1.410856 A    
C23   C56   1.516971 S    
C43   C49   1.516523 S    
C40   C42   1.411357 A    
C53   H31   1.110769 S    
C7    H2    1.109466 S    
C20   C21   1.420140 A    
C48   H14   1.105589 S    
C11   C14   1.468569 S    
C47   H12   1.109768 S    
O5    C3    1.292347 A    
C12   H3    1.112758 S    
C52   H26   1.104932 S    
C5    C10   1.632106 S    
C2    C16   1.419278 S    
C6    C7    1.588712 S    
C33   N1    1.367532 A    
C10   C13   1.607582 S    
C53   H30   1.104636 S    
C34   N2    1.366836 A    
C27   C32   1.401070 A    
C29   H6    1.081441 S    
Cu2   N2    2.021272 S    
C56   H40   1.109767 S    
C24   C47   1.517205 S    
C48   H15   1.108226 S    
C30   C48   1.520612 S    
O3    Cu1   1.924319 S    
C52   H27   1.107229 S    
N2    C36   1.380659 A    
C13   Cl6   1.789821 S    
C45   H9    1.083437 S    
C35   C37   1.430038 A    
C36   C38   1.433010 A    
C6    C53   1.564755 S    
C21   C26   1.414751 A    
C8    C11   1.566643 S    
C50   H20   1.110874 S    
O3    C2    1.293836 A    
C55   H37   1.106173 S    
C25   C26   1.419196 A    
C1    C31   1.451662 S    
C54   H34   1.095731 S    
N1    C35   1.378404 A    
C47   H13   1.108178 S    
C23   C24   1.405078 A    
O4    Cu2   1.928768 S    
C17   C18   1.397506 A    
C51   H25   1.111990 S    
Cu2   O8    1.924253 S    
C53   H29   1.112054 S    
C54   H33   1.109552 S    
C19   C20   1.420147 A    
C12   C13   1.556225 S    
C34   H8    1.082479 S    
C49   H18   1.109841 S    
C26   C27   1.419900 A    
C51   H24   1.109797 S    
C6    C52   1.579779 S    
C10   C15   1.466900 S    
C37   C39   1.411251 A    
C48   H16   1.110370 S    
C38   C44   1.427547 A    
C19   C55   1.520745 S    
C28   C29   1.382793 A    
C30   C31   1.409263 A    
C13   Cl7   1.802832 S    
C49   H19   1.110475 S    
C56   H38   1.107865 S    
Cu1   O5    1.964965 S    
C44   C50   1.515853 S    
C6    C10   1.631266 S    
O1    Cu1   1.960480 S    
O2    Cu2   1.964934 S    
O8    C4    1.293910 A    
C49   H17   1.111114 S    
O6    C3    1.292192 A    
C32   Cl1   1.778045 S    
C25   C30   1.420033 A    
C33   C41   1.416512 A    
C34   C42   1.415830 A    
C18   C19   1.408109 A    
O2    C1    1.292987 A    
C8    Cl5   1.806635 S    
Cu1   N1    2.021308 S    
C55   H35   1.109414 S    
C39   C40   1.429793 A    
O4    C2    1.295403 A    
C37   C43   1.421910 A    
C54   H32   1.111750 S    
C38   C40   1.413498 A    
C35   Cl2   1.765336 S    
C28   H5    1.081448 S    
C52   H28   1.111212 S    
C43   C44   1.409639 A    
C12   H4    1.111143 S    
C36   Cl3   1.764075 S    
C11   C12   1.556637 S    
C45   C46   1.405674 A    
C51   H23   1.099123 S    
Cu2   O6    1.960506 S    
C15   C16   1.197432 T    
C17   C22   1.400683 A    
C22   C29   1.401406 A    
O1    C1    1.293303 A    
C5    C51   1.561889 S    
C56   H39   1.110921 S    
