data_mof_unit_17493.cif
_audit_creation_date              2013-03-05T15:54:21-0500
_audit_creation_method            fapswitch 2.2
_symmetry_space_group_name_H-M    P1
_symmetry_Int_Tables_number       1
_space_group_crystal_system       triclinic
_cell_length_a                    15.067152
_cell_length_b                    14.960411
_cell_length_c                    14.823725
_cell_angle_alpha                 109.674663
_cell_angle_beta                  108.467372
_cell_angle_gamma                 109.968425
_cell_volume                      2581.4397782

loop_
_atom_site_label
_atom_site_type_symbol
_atom_site_description
_atom_site_fract_x
_atom_site_fract_y
_atom_site_fract_z
_atom_type_partial_charge
C1    C     C_R   0.003016 0.803111 0.098306 -0.109189
H1    H     H_    0.982839 0.828551 0.162340 0.138778
N1    N     N_R   0.995640 0.706130 0.053910 -0.045946
C2    C     C_R   0.790599 0.195003 0.699694 -0.010679
N2    N     N_R   0.848310 0.293860 0.791110 -0.050850
C3    C     C_R   0.021903 0.593838 0.781395 -0.131684
H2    H     H_    0.047636 0.678639 0.807418 0.138215
N3    N     N_R   0.054010 0.556790 0.847890 -0.046648
C4    C     C_R   0.699096 0.410616 0.002744 -0.119532
H3    H     H_    0.642069 0.325807 0.970777 0.111849
N4    N     N_R   0.789940 0.443190 0.997130 -0.041210
C5    C     C_R   0.934086 0.411891 0.686086 0.039598
H4    H     H_    0.881298 0.329159 0.619736 0.126615
N5    N     N_R   0.997630 0.443170 0.791110 -0.038380
C6    C     C_R   0.792826 0.593465 0.095406 -0.078406
H5    H     H_    0.829130 0.678364 0.154069 0.113793
N6    N     N_R   0.846320 0.556810 0.053910 -0.046925
C7    C     C_R   0.697116 0.201512 0.789798 -0.057150
H6    H     H_    0.642409 0.180059 0.821218 0.116516
N7    N     N_R   0.791080 0.293860 0.847890 -0.050364
C8    C     C_R   0.094969 0.806141 0.007607 -0.088202
H7    H     H_    0.155370 0.835795 0.984468 0.131545
N8    N     N_R   0.052880 0.706130 0.997130 -0.050592
C9    C     C_R   0.064857 0.868733 0.070936 0.072276
C10   C     C_R   0.694833 0.134581 0.697348 -0.025267
C11   C     C_R   0.946761 0.505220 0.678161 0.029125
C12   C     C_R   0.699426 0.503938 0.065707 0.029852
C13   C     C_R   0.999386 0.591000 0.302256 -0.089263
H8    H     H_    0.014808 0.671930 0.349788 0.149558
N9    N     N_R   0.002370 0.556830 0.208890 -0.042448
C14   C     C_R   0.223077 0.408562 0.973631 -0.079494
H9    H     H_    0.204776 0.324945 0.938390 0.060575
N10   N     N_R   0.153680 0.443190 0.946090 -0.038446
C15   C     C_R   0.307011 0.795901 0.219038 0.139905
N11   N     N_R   0.208920 0.706140 0.152110 -0.070006
C16   C     C_R   0.918465 0.204831 0.012876 0.103023
N12   N     N_R   0.947120 0.293870 0.002870 -0.062840
C17   C     C_R   0.010107 0.201885 0.921381 -0.149699
N13   N     N_R   0.004360 0.293870 0.946090 -0.075930
C18   C     C_R   0.213539 0.793001 0.309393 0.159553
N14   N     N_R   0.151690 0.706140 0.208890 -0.069573
C19   C     C_R   0.911413 0.409130 0.213754 -0.113764
H10   H     H_    0.853448 0.325775 0.184946 0.144503
N15   N     N_R   0.945990 0.443210 0.152110 -0.042545
C20   C     C_R   0.312379 0.591223 0.067029 -0.086500
H11   H     H_    0.374439 0.675410 0.116228 0.119180
N16   N     N_R   0.210060 0.556810 0.002870 -0.036009
Ni1   Ni    Ni4+2 0.999010 0.630300 0.130220 0.243761
Ni2   Ni    Ni4+2 0.000990 0.369700 0.869780 0.292967
Ni3   Ni    Ni4+2 0.130280 0.630280 0.000000 0.267641
Ni4   Ni    Ni4+2 0.869720 0.369720 0.000000 0.244087
C21   C     C_R   0.943599 0.501009 0.308543 0.057745
C22   C     C_R   0.324122 0.499983 0.048897 0.071068
C23   C     C_R   0.314920 0.845011 0.321405 0.007845
C24   C     C_R   0.969103 0.151840 0.974363 0.125720
C25   C     C_3   0.534261 0.404873 0.075015 -0.442354
H12   H     H_    0.580806 0.404790 0.149783 0.224418
H13   H     H_    0.511066 0.327367 0.004642 0.150362
C26   C     C_3   0.428421 0.400745 0.067584 0.118131
H14   H     H_    0.360489 0.323691 0.991528 0.089284
H15   H     H_    0.520992 0.610228 0.238354 0.232741
C27   C     C_3   0.632513 0.614884 0.172055 0.104851
C28   C     C_3   0.535086 0.495819 0.960467 -0.445769
C29   C     C_3   0.604148 0.507001 0.070857 0.239937
H16   H     H_    0.582613 0.561136 0.947726 0.217984
H17   H     H_    0.512547 0.417545 0.890913 0.176145
C30   C     C_3   0.425643 0.501341 0.060024 0.120204
C31   C     C_3   0.525450 0.607296 0.164363 -0.432946
C32   C     C_3   0.430930 0.494002 0.953730 -0.258794
H18   H     H_    0.362003 0.412972 0.882593 0.168199
H19   H     H_    0.523658 0.680058 0.163279 0.143916
C33   C     C_R   0.605950 0.965943 0.520564 -0.023614
C34   C     C_R   0.608471 0.021139 0.619019 0.176540
C35   C     C_R   0.510999 0.987528 0.622293 -0.117846
H20   H     H_    0.508581 0.016913 0.698260 0.140643
C36   C     C_R   0.414284 0.930010 0.525504 -0.150534
H21   H     H_    0.341867 0.912115 0.531737 0.172816
C37   C     C_R   0.414132 0.900002 0.424913 0.097170
C38   C     C_R   0.507571 0.904003 0.423500 0.120597
C39   C     C_3   0.523246 0.807305 0.384478 -0.084900
C40   C     C_3   0.631969 0.874718 0.488056 -0.374565
H22   H     H_    0.531657 0.794476 0.310456 0.137608
H23   H     H_    0.699407 0.896555 0.469047 0.146019
C41   C     C_R   0.960172 0.606704 0.487206 0.159122
C42   C     C_R   0.909803 0.506704 0.391334 0.070124
C43   C     C_R   0.830933 0.414003 0.381069 -0.252644
H24   H     H_    0.779881 0.338161 0.303113 0.156438
C44   C     C_R   0.822950 0.417576 0.474349 -0.045664
C45   C     C_R   0.901894 0.512519 0.578755 0.024371
C46   C     C_R   0.956513 0.610501 0.579796 0.123076
C47   C     C_3   0.070332 0.706838 0.652071 0.024540
C48   C     C_3   0.072956 0.701053 0.549522 -0.548714
H25   H     H_    0.130034 0.688643 0.696953 0.138009
H26   H     H_    0.076966 0.772922 0.540580 0.253194
H27   H     H_    0.131398 0.676825 0.535104 0.201933
C49   C     C_R   0.044225 0.031714 0.152771 0.122129
C50   C     C_R   0.093053 0.982430 0.103056 0.044048
C51   C     C_R   0.144004 0.032784 0.055114 -0.120184
H28   H     H_    0.195098 0.009065 0.027858 0.153803
C52   C     C_R   0.111327 0.098137 0.021484 -0.058937
H29   H     H_    0.143787 0.126494 0.974952 0.140041
C53   C     C_R   0.028683 0.113539 0.036961 0.061490
C54   C     C_R   0.011190 0.095397 0.118318 -0.059006
C55   C     C_3   0.916240 0.062446 0.136876 -0.321418
C56   C     C_3   0.951370 0.991726 0.174564 -0.018620
H30   H     H_    0.837586 0.009656 0.060161 0.206915
H31   H     H_    0.889186 0.903848 0.116520 0.141809
I1    I     I_    0.400678 0.883122 0.164779 -0.419037
I2    I     I_    0.755705 0.119429 0.977320 -0.406692
C57   C     C_2   0.018512 0.143692 0.824666 0.533950
H32   H     H_    0.056470 0.187589 0.790524 0.083478
O1    O     O_2   0.980815 0.044426 0.780463 -0.522594
I3    I     I_    0.149428 0.877840 0.389029 -0.428460
C58   C     C_2   0.834936 0.154764 0.629241 0.449843
H33   H     H_    0.783910 0.084197 0.548196 0.054267
O2    O     O_2   0.931270 0.204264 0.659772 -0.603293
I4    I     I_    0.404401 0.382273 0.197741 -0.341873
I5    I     I_    0.726685 0.628342 0.326636 -0.452507
C59   C     C_2   0.419726 0.580910 0.928464 0.600410
H34   H     H_    0.475501 0.667286 0.987276 0.096044
O3    O     O_2   0.346597 0.554368 0.841479 -0.556432
C60   C     C_2   0.699205 0.724068 0.181536 0.416435
H35   H     H_    0.770401 0.790275 0.258977 0.103789
O4    O     O_2   0.673105 0.741579 0.105333 -0.596016
I6    I     I_    0.402783 0.660335 0.365141 -0.377093
C61   C     C_2   0.648854 0.826641 0.562679 0.754016
H36   H     H_    0.642547 0.746657 0.530741 0.059789
O5    O     O_2   0.673613 0.877068 0.658945 -0.547366
C62   C     C_2   0.734431 0.321190 0.459377 0.531591
H37   H     H_    0.691675 0.242794 0.384394 0.055092
O6    O     O_2   0.705037 0.329352 0.528205 -0.568033
I7    I     I_    0.074875 0.853899 0.748725 -0.333006
C63   C     C_2   0.924248 0.158157 0.223989 0.700553
H38   H     H_    0.998479 0.237185 0.274206 0.011283
O7    O     O_2   0.847605 0.146800 0.240208 -0.557643
I8    I     I_    0.005212 0.037956 0.344817 -0.270345

loop_
_geom_bond_atom_site_label_1
_geom_bond_atom_site_label_2
_geom_bond_distance
_ccdc_geom_bond_type
C49   C56   1.504810 S    
C28   H16   1.111465 S    
C61   H36   1.085074 S    
N3    Ni3   1.854676 S    
C40   C61   1.512658 S    
C34   C35   1.403317 A    
N1    N8    1.382801 A    
N6    Ni1   1.888761 S    
N2    Ni2   1.888418 S    
C55   H30   1.106161 S    
C58   H33   1.074896 S    
N2    N7    1.382679 A    
C42   C43   1.405841 A    
C11   C45   1.472416 S    
C5    H4    1.069682 S    
C56   H31   1.110337 S    
C24   C53   1.475425 S    
C13   H8    1.070524 S    
C19   N15   1.341743 A    
N9    Ni1   1.853205 S    
C21   C42   1.458732 S    
C36   C37   1.404067 A    
C7    H6    1.078221 S    
C33   C38   1.392492 A    
C17   N13   1.340696 A    
N12   Ni4   1.885310 S    
C43   C44   1.410434 A    
N5    Ni2   1.853205 S    
C39   I6    2.175137 S    
N10   Ni2   1.888759 S    
C6    H5    1.071931 S    
N1    Ni1   1.853707 S    
C23   C37   1.456930 S    
C25   H12   1.108749 S    
C15   N11   1.338026 A    
C57   H32   1.079431 S    
C27   C29   1.590710 S    
C54   C55   1.491418 S    
C26   C30   1.559753 S    
C17   C24   1.395174 A    
C28   C32   1.530769 S    
N3    N5    1.384489 A    
C25   C29   1.566118 S    
C17   C57   1.476226 S    
C4    H3    1.079458 S    
C10   C34   1.459198 S    
C33   C40   1.513522 S    
C20   N16   1.321214 A    
C28   H17   1.114997 S    
C20   C22   1.383762 A    
C26   H14   1.111535 S    
C26   I4    2.159420 S    
C8    H7    1.080351 S    
N9    N15   1.384490 A    
C53   C54   1.403763 A    
C7    C10   1.380051 A    
C41   C46   1.373932 A    
C44   C62   1.480142 S    
N11   N14   1.382678 A    
C48   H26   1.110830 S    
C55   C56   1.518156 S    
C40   H23   1.111417 S    
C50   C51   1.404637 A    
N16   Ni3   1.885831 S    
C59   O3    1.220948 D    
C55   C63   1.506853 S    
C28   C29   1.551310 S    
C30   C31   1.553646 S    
C36   H21   1.073196 S    
C39   H22   1.104461 S    
C35   H20   1.079950 S    
C47   C48   1.507231 S    
C43   H24   1.082749 S    
C33   C34   1.394746 A    
N8    Ni3   1.885312 S    
C3    N3    1.327313 A    
C47   I7    2.147190 S    
C20   H11   1.066575 S    
C32   C59   1.515585 S    
C48   H27   1.112423 S    
C14   C22   1.381104 A    
C9    C50   1.460616 S    
C5    C11   1.393654 A    
C1    N1    1.323287 A    
C47   H25   1.111722 S    
C6    C12   1.375224 A    
C18   I3    2.118611 S    
C49   C50   1.405736 A    
N11   Ni3   1.855272 S    
C52   C53   1.413376 A    
C41   C42   1.394070 A    
C4    N4    1.327333 A    
C35   C36   1.382088 A    
C56   I8    2.156448 S    
N15   Ni4   1.854675 S    
C18   N14   1.329052 A    
N13   Ni2   1.853706 S    
C5    N5    1.348534 A    
C15   C23   1.389826 A    
C18   C23   1.375881 A    
C8    N8    1.340892 A    
C63   H38   1.086106 S    
N10   N16   1.384489 A    
C49   C54   1.380846 A    
C19   H10   1.077720 S    
C60   O4    1.219643 D    
C2    C10   1.398759 A    
C27   C60   1.527251 S    
C4    C12   1.391128 A    
C62   H37   1.085605 S    
C2    C58   1.480786 S    
C6    N6    1.310560 A    
N4    N6    1.384489 A    
C14   N10   1.330524 A    
C61   O5    1.220779 D    
C37   C38   1.395729 A    
C14   H9    1.070946 S    
C39   C40   1.514451 S    
C58   O2    1.218207 D    
C59   H34   1.082445 S    
C3    H2    1.071612 S    
N7    Ni4   1.855273 S    
C51   C52   1.395816 A    
C25   C26   1.541393 S    
C27   C31   1.541993 S    
C15   I1    2.123535 S    
C13   N9    1.325752 A    
C45   C46   1.406766 A    
N12   N13   1.382802 A    
C16   C24   1.385946 A    
C13   C21   1.374377 A    
H15   C31   1.107131 S    
C46   C47   1.508027 S    
C3    C11   1.375637 A    
C31   H19   1.103407 S    
C1    H1    1.075601 S    
C52   H29   1.078901 S    
N14   Ni1   1.888418 S    
C25   H13   1.110248 S    
C7    N7    1.321074 A    
C32   H18   1.116081 S    
C22   C30   1.477860 S    
C57   O1    1.220760 D    
C27   I5    2.176927 S    
N4    Ni4   1.885831 S    
C12   C29   1.476740 S    
C38   C39   1.496538 S    
C2    N2    1.343635 A    
C44   C45   1.423794 A    
C1    C9    1.370955 A    
C16   N12   1.328009 A    
C51   H28   1.081174 S    
C8    C9    1.389982 A    
C16   I2    2.124106 S    
C63   O7    1.220503 D    
C41   C48   1.490860 S    
C30   C32   1.571664 S    
C60   H35   1.085411 S    
C19   C21   1.382546 A    
C62   O6    1.221208 D    
