data_mof_unit_65653.cif
_audit_creation_date              2012-12-10T18:07:03-0500
_audit_creation_method            fapswitch 2.2
_symmetry_space_group_name_H-M    P1
_symmetry_Int_Tables_number       1
_space_group_crystal_system       triclinic
_cell_length_a                    21.621173
_cell_length_b                    21.62116
_cell_length_c                    38.885123
_cell_angle_alpha                 90.000131
_cell_angle_beta                  90.000113
_cell_angle_gamma                 89.999981
_cell_volume                      18177.8166846

loop_
_atom_site_label
_atom_site_type_symbol
_atom_type_description
_atom_site_fract_x
_atom_site_fract_y
_atom_site_fract_z
_atom_type_partial_charge
C1    C     C_R   0.619768 0.000000 0.500000 0.887753
C2    C     C_R   0.982239 0.781210 0.470263 -0.220813
C3    C     C_R   0.000000 0.500000 0.104729 -0.011020
C4    C     C_R   1.000000 0.500001 0.395272 -0.010997
C5    C     C_R   0.500000 1.000000 0.395272 -0.010994
C6    C     C_R   0.000000 0.500000 0.604729 -0.011003
C7    C     C_R   0.499999 0.000000 0.604729 -0.011004
C8    C     C_R   0.460094 0.040457 0.768076 -0.052256
C9    C     C_R   0.959534 0.460105 0.768076 -0.052256
C10   C     C_R   0.539905 0.959545 0.768076 -0.052256
C11   C     C_R   0.040466 0.539895 0.768077 -0.052256
C12   C     C_R   0.460116 0.959522 0.231924 -0.052255
C13   C     C_R   0.218789 0.982233 0.470264 -0.220815
C14   C     C_R   0.959524 0.539885 0.231924 -0.052255
C15   C     C_R   0.539884 0.040476 0.231924 -0.052256
C16   C     C_R   0.040478 0.460118 0.231924 -0.052254
C17   C     C_R   0.960075 0.540438 0.268076 -0.052257
C18   C     C_R   0.459564 0.960073 0.268077 -0.052255
C19   C     C_R   0.039927 0.459567 0.268077 -0.052255
C20   C     C_R   0.540436 0.039925 0.268077 -0.052255
C21   C     C_R   0.960086 0.459553 0.731923 -0.052256
C22   C     C_R   0.459541 0.039905 0.731924 -0.052256
C23   C     C_R   0.039915 0.540447 0.731924 -0.052256
C24   C     C_R   0.017801 0.218788 0.470271 -0.220823
C25   C     C_R   0.540456 0.960097 0.731923 -0.052255
C26   C     C_R   0.499999 0.000001 0.714035 -0.045570
C27   C     C_R   0.000000 0.500000 0.714035 -0.045569
C28   C     C_R   0.500000 0.999999 0.285965 -0.045567
C29   C     C_R   0.000001 0.500002 0.285965 -0.045568
C30   C     C_R   0.000001 0.500001 0.214035 -0.045572
C31   C     C_R   0.500000 0.999999 0.214035 -0.045571
C32   C     C_R   1.000000 0.500000 0.785965 -0.045571
C33   C     C_R   0.499999 0.000001 0.785965 -0.045570
C34   C     C_R   0.717313 0.018134 0.470124 -0.010438
C35   C     C_R   0.781211 0.982217 0.529733 -0.220820
C36   C     C_R   0.981887 0.717312 0.470120 -0.010440
C37   C     C_R   0.282687 0.981882 0.470122 -0.010439
C38   C     C_R   0.018153 0.282686 0.470128 -0.010438
C39   C     C_R   0.717313 0.981865 0.529875 -0.010438
C40   C     C_R   0.981847 0.282687 0.529872 -0.010437
C41   C     C_R   0.282687 0.018119 0.529878 -0.010440
C42   C     C_R   0.018113 0.717312 0.529879 -0.010441
C43   C     C_R   0.217313 0.518143 0.970126 -0.010438
C44   C     C_R   0.481856 0.217313 0.970126 -0.010439
C45   C     C_R   0.782686 0.481867 0.970124 -0.010439
C46   C     C_R   0.982200 0.218789 0.529730 -0.220824
C47   C     C_R   0.518136 0.782686 0.970125 -0.010439
C48   C     C_R   0.217313 0.481856 0.029874 -0.010438
C49   C     C_R   0.481865 0.782687 0.029875 -0.010438
C50   C     C_R   0.782687 0.518133 0.029876 -0.010438
C51   C     C_R   0.518145 0.217314 0.029873 -0.010439
C52   C     C_R   0.419022 0.083440 0.787282 0.132275
C53   C     C_R   0.444420 0.132461 0.806315 -0.145480
C54   C     C_R   0.405837 0.172478 0.824667 -0.113547
C55   C     C_R   0.341776 0.163883 0.824092 -0.105153
C56   C     C_R   0.316193 0.115244 0.805156 -0.137679
C57   C     C_R   0.218790 0.017767 0.529736 -0.220816
C58   C     C_R   0.354622 0.075053 0.786813 -0.146339
C59   C     C_R   0.916541 0.419044 0.787282 0.132274
C60   C     C_R   0.867528 0.444453 0.806315 -0.145479
C61   C     C_R   0.827501 0.405880 0.824667 -0.113544
C62   C     C_R   0.836079 0.341816 0.824091 -0.105154
C63   C     C_R   0.884710 0.316221 0.805154 -0.137679
C64   C     C_R   0.924911 0.354641 0.786811 -0.146336
C65   C     C_R   0.580977 0.916562 0.787282 0.132272
C66   C     C_R   0.555580 0.867543 0.806315 -0.145477
C67   C     C_R   0.594163 0.827525 0.824668 -0.113546
C68   C     C_R   0.017761 0.781210 0.529737 -0.220813
C69   C     C_R   0.658224 0.836120 0.824092 -0.105159
C70   C     C_R   0.683807 0.884757 0.805154 -0.137678
C71   C     C_R   0.645378 0.924948 0.786811 -0.146338
C72   C     C_R   0.083459 0.580956 0.787283 0.132277
C73   C     C_R   0.132472 0.555547 0.806316 -0.145482
C74   C     C_R   0.172498 0.594119 0.824669 -0.113544
C75   C     C_R   0.163920 0.658182 0.824094 -0.105148
C76   C     C_R   0.115289 0.683778 0.805157 -0.137680
C77   C     C_R   0.075088 0.645359 0.786813 -0.146338
C78   C     C_R   0.419066 0.916519 0.212718 0.132275
C79   C     C_R   0.281211 0.517791 0.970269 -0.220824
C80   C     C_R   0.444487 0.867512 0.193684 -0.145482
C81   C     C_R   0.405925 0.827476 0.175331 -0.113542
C82   C     C_R   0.341859 0.836038 0.175907 -0.105145
C83   C     C_R   0.316251 0.884662 0.194845 -0.137681
C84   C     C_R   0.354661 0.924872 0.213188 -0.146336
C85   C     C_R   0.916521 0.580935 0.212718 0.132278
C86   C     C_R   0.867514 0.555513 0.193685 -0.145481
C87   C     C_R   0.827477 0.594075 0.175332 -0.113541
C88   C     C_R   0.836039 0.658140 0.175907 -0.105146
C89   C     C_R   0.884664 0.683749 0.194844 -0.137679
C90   C     C_R   0.482208 0.281211 0.970269 -0.220824
C91   C     C_R   0.924874 0.645340 0.213187 -0.146336
C92   C     C_R   0.580934 0.083479 0.212718 0.132278
C93   C     C_R   0.555512 0.132486 0.193685 -0.145486
C94   C     C_R   0.594074 0.172523 0.175333 -0.113543
C95   C     C_R   0.658140 0.163962 0.175909 -0.105140
C96   C     C_R   0.683748 0.115337 0.194845 -0.137681
C97   C     C_R   0.645339 0.075126 0.213189 -0.146337
C98   C     C_R   0.083482 0.419068 0.212718 0.132271
C99   C     C_R   0.132485 0.444491 0.193682 -0.145483
C100  C     C_R   0.172522 0.405929 0.175329 -0.113542
C101  C     C_R   0.718788 0.482219 0.970267 -0.220822
C102  C     C_R   0.163965 0.341862 0.175909 -0.105145
C103  C     C_R   0.115346 0.316253 0.194849 -0.137683
C104  C     C_R   0.075134 0.354662 0.213192 -0.146332
C105  C     C_R   0.918980 0.583399 0.287282 0.132265
C106  C     C_R   0.944352 0.632432 0.306315 -0.145458
C107  C     C_R   0.905748 0.672431 0.324667 -0.113550
C108  C     C_R   0.841691 0.663804 0.324090 -0.105185
C109  C     C_R   0.816133 0.615153 0.305153 -0.137676
C110  C     C_R   0.854584 0.574981 0.286810 -0.146341
C111  C     C_R   0.416602 0.918979 0.287282 0.132263
C112  C     C_R   1.000000 0.619768 0.500000 0.887764
C113  C     C_R   0.517784 0.718789 0.970267 -0.220821
C114  C     C_R   0.367570 0.944351 0.306316 -0.145461
C115  C     C_R   0.327573 0.905747 0.324669 -0.113549
C116  C     C_R   0.336198 0.841690 0.324091 -0.105182
C117  C     C_R   0.384848 0.816132 0.305153 -0.137677
C118  C     C_R   0.425019 0.854582 0.286810 -0.146341
C119  C     C_R   0.081023 0.416607 0.287283 0.132267
C120  C     C_R   0.055653 0.367575 0.306317 -0.145480
C121  C     C_R   0.094257 0.327579 0.324670 -0.113553
C122  C     C_R   0.158314 0.336207 0.324093 -0.105166
C123  C     C_R   0.183871 0.384857 0.305154 -0.137681
C124  C     C_R   0.281211 0.482208 0.029731 -0.220824
C125  C     C_R   0.145419 0.425027 0.286811 -0.146342
C126  C     C_R   0.583398 0.081019 0.287282 0.132267
C127  C     C_R   0.632430 0.055647 0.306317 -0.145469
C128  C     C_R   0.672427 0.094251 0.324669 -0.113550
C129  C     C_R   0.663800 0.158308 0.324092 -0.105174
C130  C     C_R   0.615151 0.183866 0.305154 -0.137678
C131  C     C_R   0.574979 0.145416 0.286811 -0.146342
C132  C     C_R   0.919004 0.416580 0.712717 0.132272
C133  C     C_R   0.944390 0.367555 0.693684 -0.145480
C134  C     C_R   0.905797 0.327546 0.675331 -0.113551
C135  C     C_R   0.482217 0.718789 0.029733 -0.220823
C136  C     C_R   0.841738 0.336155 0.675908 -0.105155
C137  C     C_R   0.816166 0.384798 0.694845 -0.137681
C138  C     C_R   0.854605 0.424981 0.713188 -0.146340
C139  C     C_R   0.416557 0.080974 0.712718 0.132270
C140  C     C_R   0.367537 0.055575 0.693685 -0.145470
C141  C     C_R   0.327517 0.094156 0.675333 -0.113545
C142  C     C_R   0.336108 0.158217 0.675909 -0.105166
C143  C     C_R   0.384746 0.183803 0.694845 -0.137678
C144  C     C_R   0.424940 0.145376 0.713188 -0.146337
C145  C     C_R   0.080997 0.583421 0.712719 0.132270
C146  C     C_R   0.718789 0.517780 0.029733 -0.220823
C147  C     C_R   0.055611 0.632448 0.693686 -0.145464
C148  C     C_R   0.094203 0.672458 0.675335 -0.113548
C149  C     C_R   0.158263 0.663848 0.675911 -0.105176
C150  C     C_R   0.183834 0.615203 0.694847 -0.137675
C151  C     C_R   0.145395 0.575020 0.713189 -0.146341
C152  C     C_R   0.583440 0.919026 0.712718 0.132271
C153  C     C_R   0.632459 0.944424 0.693684 -0.145477
C154  C     C_R   0.672477 0.905843 0.675331 -0.113546
C155  C     C_R   0.663885 0.841781 0.675908 -0.105159
C156  C     C_R   0.615249 0.816196 0.694845 -0.137679
C157  C     C_R   0.517792 0.281212 0.029731 -0.220824
C158  C     C_R   0.575057 0.854625 0.713188 -0.146338
C159  C     C_1   0.685191 0.036129 0.439040 0.137266
C160  C     C_1   0.963914 0.685189 0.439032 0.137250
C161  C     C_1   0.314810 0.963902 0.439034 0.137254
C162  C     C_1   0.036166 0.314808 0.439046 0.137280
C163  C     C_1   0.685191 0.963870 0.560960 0.137262
C164  C     C_1   0.963834 0.314809 0.560953 0.137278
C165  C     C_1   0.314810 0.036099 0.560966 0.137251
C166  C     C_1   0.036087 0.685190 0.560968 0.137249
C167  C     C_1   0.185191 0.536148 0.939043 0.137267
C168  C     C_R   0.812956 1.000000 0.500000 -0.061600
C169  C     C_1   0.463850 0.185191 0.939043 0.137270
C170  C     C_1   0.814809 0.463873 0.939039 0.137259
C171  C     C_1   0.536132 0.814809 0.939040 0.137263
C172  C     C_1   0.185191 0.463851 0.060956 0.137265
C173  C     C_1   0.463868 0.814809 0.060959 0.137260
C174  C     C_1   0.814809 0.536127 0.060960 0.137257
C175  C     C_1   0.536151 0.185192 0.060956 0.137267
C176  C     C_R   1.000000 0.812955 0.500000 -0.061613
C177  C     C_R   0.187044 1.000000 0.500000 -0.061608
C178  C     C_R   0.000000 0.187043 0.500000 -0.061591
C179  C     C_R   0.312957 0.500000 1.000000 -0.061593
C180  C     C_R   0.380232 0.000000 0.500000 0.887761
C181  C     C_R   0.500000 0.312957 1.000000 -0.061593
C182  C     C_R   0.687043 0.500000 0.000000 -0.061597
C183  C     C_R   0.500000 0.687043 0.000000 -0.061597
C184  C     C_R   0.685640 1.000000 0.500000 -0.096260
C185  C     C_R   1.000000 0.685639 0.500000 -0.096246
C186  C     C_R   0.314360 0.000000 0.500000 -0.096251
C187  C     C_R   1.000000 0.314360 0.500000 -0.096269
C188  C     C_R   0.185640 0.500000 1.000000 -0.096264
C189  C     C_R   0.500000 0.185640 1.000000 -0.096264
C190  C     C_R   0.814360 0.500000 0.000000 -0.096259
C191  C     C_R   1.000000 0.380232 0.500000 0.887744
C192  C     C_R   0.500000 0.814360 0.000000 -0.096260
C193  C     C_R   0.000000 0.120629 0.500000 0.893679
C194  C     C_R   0.879371 0.000000 0.500000 0.893682
C195  C     C_R   1.000000 0.879371 0.500000 0.893686
C196  C     C_R   0.120629 1.000000 0.500000 0.893684
C197  C     C_R   0.500000 0.620629 0.000000 0.893682
C198  C     C_R   0.379371 0.500000 1.000000 0.893680
C199  C     C_R   0.500000 0.379371 1.000000 0.893680
C200  C     C_R   0.620629 0.500000 0.000000 0.893682
C201  C     C_R   0.500000 0.000000 0.567257 0.878602
C202  C     C_R   0.119768 0.500000 1.000000 0.887753
C203  C     C_R   1.000000 0.500000 0.567257 0.878595
C204  C     C_R   0.500000 1.000000 0.432743 0.878600
C205  C     C_R   1.000000 0.500000 0.432743 0.878595
C206  C     C_R   0.000000 0.500000 0.067257 0.878600
C207  C     C_R   0.500000 1.000000 0.067257 0.878599
C208  C     C_R   1.000000 0.500000 0.932743 0.878599
C209  C     C_R   0.500000 0.000000 0.932743 0.878595
C210  C     C_R   0.552592 0.019785 0.877252 -0.174408
C211  C     C_R   0.980227 0.552596 0.877252 -0.174398
C212  C     C_R   0.447408 0.980216 0.877252 -0.174400
C213  C     C_R   0.500000 0.119768 1.000000 0.887750
C214  C     C_R   0.019773 0.447403 0.877252 -0.174410
C215  C     C_R   0.552601 0.980240 0.122748 -0.174400
C216  C     C_R   0.980240 0.447399 0.122748 -0.174399
C217  C     C_R   0.447399 0.019759 0.122748 -0.174410
C218  C     C_R   0.019761 0.552601 0.122748 -0.174409
C219  C     C_R   0.052584 0.519808 0.377253 -0.174379
C220  C     C_R   0.480195 0.052584 0.377253 -0.174390
C221  C     C_R   0.947416 0.480195 0.377252 -0.174422
C222  C     C_R   0.519805 0.947415 0.377253 -0.174407
C223  C     C_R   0.052589 0.480207 0.622747 -0.174423
C224  C     C_R   0.880232 0.500000 0.000000 0.887757
C225  C     C_R   0.480217 0.947408 0.622748 -0.174391
C226  C     C_R   0.947412 0.519794 0.622747 -0.174381
C227  C     C_R   0.519782 0.052593 0.622748 -0.174407
C228  C     C_R   0.552371 0.020265 0.841543 -0.158868
C229  C     C_R   0.979747 0.552375 0.841543 -0.158871
C230  C     C_R   0.447628 0.979737 0.841543 -0.158869
C231  C     C_R   0.020253 0.447624 0.841542 -0.158871
C232  C     C_R   0.552381 0.979760 0.158458 -0.158874
C233  C     C_R   0.979761 0.447620 0.158458 -0.158873
C234  C     C_R   0.447619 0.020238 0.158458 -0.158874
C235  C     C_R   0.500000 0.880232 1.000000 0.887756
C236  C     C_R   0.020241 0.552381 0.158458 -0.158880
C237  C     C_R   0.052363 0.520289 0.341543 -0.158861
C238  C     C_R   0.479714 0.052362 0.341543 -0.158862
C239  C     C_R   0.947638 0.479716 0.341543 -0.158863
C240  C     C_R   0.520285 0.947636 0.341543 -0.158862
C241  C     C_R   0.052368 0.479727 0.658457 -0.158867
C242  C     C_R   0.479736 0.947628 0.658457 -0.158867
C243  C     C_R   0.947633 0.520275 0.658457 -0.158864
C244  C     C_R   0.520261 0.052373 0.658457 -0.158869
C245  C     C_R   0.500000 0.000001 0.823668 0.144065
C246  C     C_R   0.781211 0.017782 0.470267 -0.220820
C247  C     C_R   1.000000 0.500000 0.823668 0.144069
C248  C     C_R   0.500000 0.999999 0.176332 0.144071
C249  C     C_R   0.000001 0.500001 0.176332 0.144070
C250  C     C_R   0.000000 0.500003 0.323669 0.144053
C251  C     C_R   0.500000 0.999999 0.323669 0.144052
C252  C     C_R   0.000000 0.500001 0.676331 0.144060
C253  C     C_R   0.499999 0.000001 0.676331 0.144064
C254  C     C_R   0.500000 0.000000 0.895271 -0.011011
C255  C     C_R   1.000000 0.500000 0.895271 -0.011014
C256  C     C_R   0.500000 1.000000 0.104729 -0.011022
H1    H     H_    0.593470 0.035584 0.890743 0.151290
H2    H     H_    0.464379 0.093456 0.390743 0.151282
H3    H     H_    0.074520 0.289896 0.339341 0.134773
H4    H     H_    0.188140 0.305208 0.338324 0.124194
H5    H     H_    0.233475 0.391519 0.304750 0.125984
H6    H     H_    0.165659 0.462809 0.272397 0.120631
H7    H     H_    0.639578 0.006078 0.306893 0.122256
H8    H     H_    0.710109 0.074513 0.339340 0.134774
H9    H     H_    0.694800 0.188133 0.338324 0.124192
H10   H     H_    0.608489 0.233470 0.304751 0.125983
H11   H     H_    0.537197 0.165656 0.272398 0.120629
H12   H     H_    0.993960 0.360420 0.693108 0.122252
H13   H     H_    0.906545 0.464378 0.390743 0.151281
H14   H     H_    0.925547 0.289869 0.660661 0.134766
H15   H     H_    0.811922 0.305146 0.661676 0.124192
H16   H     H_    0.766560 0.391446 0.695248 0.125984
H17   H     H_    0.834353 0.462758 0.727601 0.120629
H18   H     H_    0.360415 0.006002 0.693110 0.122252
H19   H     H_    0.289844 0.074396 0.660664 0.134766
H20   H     H_    0.305091 0.188025 0.661678 0.124191
H21   H     H_    0.391380 0.233411 0.695248 0.125983
H22   H     H_    0.462712 0.165638 0.727600 0.120628
H23   H     H_    0.006040 0.639584 0.693111 0.122254
H24   H     H_    0.535621 0.906544 0.390743 0.151282
H25   H     H_    0.074454 0.710137 0.660666 0.134770
H26   H     H_    0.188079 0.694858 0.661680 0.124191
H27   H     H_    0.233440 0.608555 0.695250 0.125983
H28   H     H_    0.165647 0.537242 0.727601 0.120628
H29   H     H_    0.639581 0.993997 0.693108 0.122252
H30   H     H_    0.710149 0.925602 0.660661 0.134767
H31   H     H_    0.694901 0.811973 0.661676 0.124193
H32   H     H_    0.608615 0.766589 0.695249 0.125984
H33   H     H_    0.537286 0.834363 0.727602 0.120629
H34   H     H_    0.093464 0.464400 0.609257 0.151286
H35   H     H_    0.464419 0.906529 0.609257 0.151290
H36   H     H_    0.906537 0.535601 0.609257 0.151286
H37   H     H_    0.535579 0.093472 0.609258 0.151290
H38   H     H_    0.592864 0.036338 0.827785 0.127802
H39   H     H_    0.963682 0.592872 0.827784 0.127801
H40   H     H_    0.407135 0.963664 0.827784 0.127802
H41   H     H_    0.964436 0.593478 0.890742 0.151294
H42   H     H_    0.036317 0.407127 0.827784 0.127801
H43   H     H_    0.592882 0.963706 0.172216 0.127801
H44   H     H_    0.963707 0.407119 0.172216 0.127802
H45   H     H_    0.407118 0.036292 0.172216 0.127801
H46   H     H_    0.036296 0.592882 0.172216 0.127801
H47   H     H_    0.092849 0.536381 0.327786 0.127804
H48   H     H_    0.463624 0.092849 0.327785 0.127804
H49   H     H_    0.907151 0.463625 0.327784 0.127805
H50   H     H_    0.536375 0.907149 0.327785 0.127805
H51   H     H_    0.092858 0.463646 0.672215 0.127803
H52   H     H_    0.406529 0.964417 0.890742 0.151290
H53   H     H_    0.463665 0.907135 0.672215 0.127802
H54   H     H_    0.907143 0.536356 0.672215 0.127802
H55   H     H_    0.536332 0.092867 0.672216 0.127802
H56   H     H_    0.806112 0.031766 0.447330 0.159312
H57   H     H_    0.968272 0.806110 0.447323 0.159319
H58   H     H_    0.193889 0.968262 0.447325 0.159317
H59   H     H_    0.031799 0.193887 0.447336 0.159305
H60   H     H_    0.806112 0.968234 0.552670 0.159310
H61   H     H_    0.968202 0.193887 0.552664 0.159304
H62   H     H_    0.193889 0.031738 0.552675 0.159315
H63   H     H_    0.035564 0.406522 0.890742 0.151294
H64   H     H_    0.031728 0.806110 0.552677 0.159317
H65   H     H_    0.306112 0.531782 0.947333 0.159306
H66   H     H_    0.468217 0.306112 0.947333 0.159307
H67   H     H_    0.693888 0.468237 0.947329 0.159310
H68   H     H_    0.531768 0.693887 0.947330 0.159309
H69   H     H_    0.306113 0.468217 0.052667 0.159305
H70   H     H_    0.468232 0.693888 0.052670 0.159308
H71   H     H_    0.693888 0.531763 0.052671 0.159309
H72   H     H_    0.531784 0.306113 0.052667 0.159305
H73   H     H_    0.493992 0.139585 0.806890 0.122250
H74   H     H_    0.593487 0.964460 0.109258 0.151299
H75   H     H_    0.425595 0.210152 0.839337 0.134762
H76   H     H_    0.311968 0.194899 0.838324 0.124192
H77   H     H_    0.266585 0.108608 0.804754 0.125984
H78   H     H_    0.334361 0.037280 0.772401 0.120628
H79   H     H_    0.860416 0.494027 0.806891 0.122250
H80   H     H_    0.789833 0.425647 0.839338 0.134763
H81   H     H_    0.805057 0.312015 0.838323 0.124192
H82   H     H_    0.891335 0.266612 0.804751 0.125984
H83   H     H_    0.962678 0.334371 0.772398 0.120628
H84   H     H_    0.506008 0.860419 0.806891 0.122251
H85   H     H_    0.964459 0.406514 0.109258 0.151299
H86   H     H_    0.574405 0.789852 0.839338 0.134766
H87   H     H_    0.688034 0.805104 0.838323 0.124192
H88   H     H_    0.733415 0.891393 0.804751 0.125984
H89   H     H_    0.665638 0.962720 0.772398 0.120629
H90   H     H_    0.139584 0.505972 0.806891 0.122248
H91   H     H_    0.210167 0.574351 0.839339 0.134761
H92   H     H_    0.194942 0.687983 0.838326 0.124193
H93   H     H_    0.108664 0.733387 0.804754 0.125984
H94   H     H_    0.037321 0.665629 0.772400 0.120628
H95   H     H_    0.494063 0.860413 0.193108 0.122248
H96   H     H_    0.406513 0.035539 0.109258 0.151299
H97   H     H_    0.425701 0.789813 0.160661 0.134758
H98   H     H_    0.312066 0.805008 0.161675 0.124192
H99   H     H_    0.266640 0.891274 0.195248 0.125984
H100  H     H_    0.334381 0.962634 0.227601 0.120628
H101  H     H_    0.860414 0.505937 0.193109 0.122248
H102  H     H_    0.789813 0.574298 0.160662 0.134758
H103  H     H_    0.805009 0.687933 0.161675 0.124192
H104  H     H_    0.891275 0.733360 0.195246 0.125984
H105  H     H_    0.962636 0.665620 0.227600 0.120627
H106  H     H_    0.505936 0.139585 0.193110 0.122247
H107  H     H_    0.035542 0.593487 0.109258 0.151299
H108  H     H_    0.574297 0.210187 0.160663 0.134756
H109  H     H_    0.687933 0.194992 0.161677 0.124193
H110  H     H_    0.733359 0.108726 0.195248 0.125984
H111  H     H_    0.665619 0.037364 0.227601 0.120629
H112  H     H_    0.139580 0.494067 0.193104 0.122250
H113  H     H_    0.210181 0.425706 0.160657 0.134761
H114  H     H_    0.194996 0.312069 0.161677 0.124194
H115  H     H_    0.108739 0.266642 0.195255 0.125985
H116  H     H_    0.037376 0.334382 0.227607 0.120631
H117  H     H_    0.993920 0.639582 0.306892 0.122256
H118  H     H_    0.093455 0.535624 0.390744 0.151282
H119  H     H_    0.925486 0.710114 0.339337 0.134777
H120  H     H_    0.811865 0.694804 0.338321 0.124191
H121  H     H_    0.766529 0.608492 0.304749 0.125983
H122  H     H_    0.834343 0.537198 0.272397 0.120628
H123  H     H_    0.360422 0.993920 0.306893 0.122257
H124  H     H_    0.289890 0.925486 0.339339 0.134777
H125  H     H_    0.305198 0.811865 0.338322 0.124192
H126  H     H_    0.391508 0.766528 0.304749 0.125983
H127  H     H_    0.462801 0.834341 0.272396 0.120629
H128  H     H_    0.006084 0.360425 0.306894 0.122255
N1    N     N_1   0.659448 0.050479 0.414192 -0.212810
N2    N     N_1   0.449492 0.159448 0.914197 -0.212792
N3    N     N_1   0.840552 0.449525 0.914192 -0.212795
N4    N     N_1   0.550483 0.840552 0.914193 -0.212799
N5    N     N_1   0.159449 0.449493 0.085802 -0.212789
N6    N     N_1   0.449517 0.840553 0.085807 -0.212788
N7    N     N_1   0.840553 0.550476 0.085808 -0.212790
N8    N     N_1   0.550509 0.159449 0.085802 -0.212784
N9    N     N_1   0.949582 0.659447 0.414181 -0.212819
N10   N     N_1   0.340553 0.949565 0.414184 -0.212819
N11   N     N_1   0.050529 0.340550 0.414201 -0.212803
N12   N     N_1   0.659448 0.949520 0.585807 -0.212801
N13   N     N_1   0.949470 0.340552 0.585798 -0.212794
N14   N     N_1   0.340553 0.050436 0.585815 -0.212805
N15   N     N_1   0.050420 0.659447 0.585819 -0.212812
N16   N     N_1   0.159448 0.550504 0.914197 -0.212790
O1    O     O_R   0.591570 0.051800 0.500070 -0.618775
O2    O     O_R   0.448200 0.091570 0.000070 -0.618772
O3    O     O_R   0.908430 0.448200 0.000070 -0.618773
O4    O     O_R   0.551800 0.908430 0.000070 -0.618773
O5    O     O_R   0.091570 0.448200 0.999930 -0.618774
O6    O     O_R   0.448200 0.908430 0.999930 -0.618775
O7    O     O_R   0.908430 0.551800 0.999930 -0.618774
O8    O     O_R   0.551800 0.091570 0.999930 -0.618774
O9    O     O_R   0.499930 0.051800 0.550990 -0.623878
O10   O     O_R   0.948200 0.499930 0.550990 -0.623869
O11   O     O_R   0.500070 0.948200 0.550990 -0.623875
O12   O     O_R   0.948200 0.591570 0.500070 -0.618778
O13   O     O_R   0.051800 0.500070 0.550990 -0.623876
O14   O     O_R   0.499930 0.948200 0.449010 -0.623873
O15   O     O_R   0.948200 0.500070 0.449010 -0.623874
O16   O     O_R   0.500070 0.051800 0.449010 -0.623870
O17   O     O_R   0.051800 0.499930 0.449010 -0.623867
O18   O     O_R   0.999930 0.551800 0.050990 -0.623879
O19   O     O_R   0.448200 0.999930 0.050990 -0.623879
O20   O     O_R   0.000070 0.448200 0.050990 -0.623877
O21   O     O_R   0.551800 0.000070 0.050990 -0.623877
O22   O     O_R   0.999930 0.448200 0.949010 -0.623877
O23   O     O_R   0.408430 0.948200 0.500070 -0.618776
O24   O     O_R   0.448200 0.000070 0.949010 -0.623872
O25   O     O_R   0.000070 0.551800 0.949010 -0.623875
O26   O     O_R   0.551800 0.999930 0.949010 -0.623874
O27   O     O_R   0.999990 0.091790 0.471350 -0.629529
O28   O     O_R   0.908210 0.999990 0.471350 -0.629529
O29   O     O_R   0.000010 0.908210 0.471350 -0.629533
O30   O     O_R   0.091790 0.000010 0.471350 -0.629535
O31   O     O_R   0.999990 0.908210 0.528650 -0.629535
O32   O     O_R   0.908210 0.000010 0.528650 -0.629533
O33   O     O_R   0.000010 0.091790 0.528650 -0.629529
O34   O     O_R   0.051800 0.408430 0.500070 -0.618773
O35   O     O_R   0.091790 0.999990 0.528650 -0.629533
O36   O     O_R   0.499990 0.591790 0.971350 -0.629533
O37   O     O_R   0.408210 0.499990 0.971350 -0.629531
O38   O     O_R   0.500010 0.408210 0.971350 -0.629530
O39   O     O_R   0.591790 0.500010 0.971350 -0.629532
O40   O     O_R   0.499990 0.408210 0.028650 -0.629532
O41   O     O_R   0.408210 0.500010 0.028650 -0.629531
O42   O     O_R   0.500010 0.591790 0.028650 -0.629533
O43   O     O_R   0.591790 0.499990 0.028650 -0.629534
O44   O     O_R   0.591570 0.948200 0.499930 -0.618776
O45   O     O_R   0.948200 0.408430 0.499930 -0.618774
O46   O     O_R   0.408430 0.051800 0.499930 -0.618778
O47   O     O_R   0.051800 0.591570 0.499930 -0.618779
O48   O     O_R   0.091570 0.551800 0.000070 -0.618773
Zn1   Zn    Zn3+2 0.500000 0.069140 0.500000 0.969711
Zn2   Zn    Zn3+2 1.000000 1.000000 0.538300 0.938074
Zn3   Zn    Zn3+2 0.500000 0.500000 0.961700 0.938073
Zn4   Zn    Zn3+2 0.500000 0.500000 0.038300 0.938069
Zn5   Zn    Zn3+2 0.930860 0.500000 0.500000 0.969714
Zn6   Zn    Zn3+2 0.500000 0.930860 0.500000 0.969712
Zn7   Zn    Zn3+2 0.069140 0.500000 0.500000 0.969714
Zn8   Zn    Zn3+2 0.000000 0.569140 0.000000 0.969710
Zn9   Zn    Zn3+2 0.430860 0.000000 0.000000 0.969712
Zn10  Zn    Zn3+2 0.000000 0.430860 0.000000 0.969711
Zn11  Zn    Zn3+2 0.569140 0.000000 0.000000 0.969712
Zn12  Zn    Zn3+2 1.000000 1.000000 0.461700 0.938079

loop_
_geom_bond_atom_site_label_1
_geom_bond_atom_site_label_2
_ccdc_geom_bond_type
C103  H115  S    
C105  C110  A    
C126  C127  A    
C76   H93   S    
C55   C56   A    
C45   C170  S    
C217  H96   S    
C49   C173  S    
C114  C115  A    
C68   C176  A    
C40   C187  A    
C80   H95   S    
C40   C46   A    
C199  O38   A    
C183  C197  S    
C111  C118  A    
C114  H123  S    
C48   C188  A    
C116  H125  S    
C205  O17   A    
C131  H11   S    
C106  C107  A    
C201  O9    A    
C143  C144  A    
C143  H21   S    
C108  C109  A    
C228  H38   S    
O28   Zn12  S    
C67   H86   S    
O46   Zn1   S    
C191  O45   A    
C224  O7    A    
C137  H16   S    
C125  H6    S    
C34   C246  A    
O39   Zn3   S    
C164  N13   T    
C120  H128  S    
C163  N12   T    
O31   Zn2   S    
C90   H66   S    
C161  N10   T    
C59   C60   A    
C180  O46   A    
C110  H122  S    
C216  C233  A    
C220  C238  A    
C111  C114  A    
C5    C204  S    
C214  C231  A    
C211  H41   S    
C218  H107  S    
C15   C20   A    
C178  C193  S    
O17   Zn7   S    
C54   H75   S    
C140  C141  A    
C148  H25   S    
O10   Zn5   S    
C11   C72   S    
C20   C28   A    
C225  C242  A    
C22   C139  S    
C51   C157  A    
C207  O19   A    
C227  H37   S    
C75   C76   A    
C21   C132  S    
C190  C224  S    
C4    C219  A    
C70   H88   S    
C213  O8    A    
C159  N1    T    
C76   C77   A    
C94   H108  S    
C154  C155  A    
O36   Zn3   S    
C52   C58   A    
C195  O29   A    
C232  H43   S    
C241  H51   S    
C25   C152  S    
C24   C178  A    
C97   H111  S    
C79   C179  A    
C172  N5    T    
C167  N16   T    
C192  C235  S    
C240  H50   S    
C210  C228  A    
C197  O42   A    
C231  C247  A    
C72   C73   A    
C47   C171  S    
C139  C140  A    
C206  O20   A    
C246  H56   S    
C242  H53   S    
C180  C186  S    
C219  C237  A    
C156  C158  A    
C130  C131  A    
O21   Zn11  S    
C219  H118  S    
C6    C203  S    
C7    C201  S    
C83   H99   S    
C204  O14   A    
C173  N6    T    
C7    C227  A    
C223  C241  A    
C11   C23   A    
C171  N4    T    
C234  H45   S    
C150  H27   S    
C169  N2    T    
O37   Zn3   S    
C113  H68   S    
C28   C251  S    
C46   H61   S    
C41   C57   A    
C162  N11   T    
C88   C89   A    
C240  C251  A    
C98   C99   A    
C155  C156  A    
C232  C248  A    
C109  C110  A    
C96   H110  S    
C74   H91   S    
C202  O5    A    
C147  C148  A    
C79   H65   S    
C135  C183  A    
C16   C98   S    
C128  C129  A    
C85   C86   A    
O24   Zn9   S    
C210  H1    S    
C75   H92   S    
C221  C239  A    
O29   Zn12  S    
C208  O22   A    
O47   Zn7   S    
C40   C164  S    
O2    Zn9   S    
C106  H117  S    
C78   C80   A    
C165  N14   T    
C16   C30   A    
C4    C221  A    
O18   Zn8   S    
C243  H54   S    
C213  O2    A    
C229  H39   S    
C1    O44   A    
C107  H119  S    
C47   C192  A    
C212  H52   S    
C196  O30   A    
C115  H124  S    
C53   H73   S    
C100  H113  S    
C101  H67   S    
C8    C22   A    
C107  C108  A    
C89   C91   A    
C8    C52   S    
C215  H74   S    
C39   C184  A    
C34   C159  S    
C5    C222  A    
C49   C135  A    
C14   C17   A    
C69   C70   A    
C100  C102  A    
C92   C97   A    
C206  O18   A    
C216  H85   S    
C68   H64   S    
C215  C232  A    
C18   C28   A    
C112  C185  S    
C224  O3    A    
C204  O16   A    
C7    C225  A    
C25   C26   A    
C86   H101  S    
O13   Zn7   S    
C217  C256  A    
C220  H2    S    
C207  C256  S    
C60   H79   S    
C83   C84   A    
C90   C181  A    
C35   C168  A    
C57   H62   S    
O8    Zn11  S    
C203  O10   A    
C214  H63   S    
C189  C213  S    
O25   Zn8   S    
C42   C185  A    
C11   C32   A    
C12   C31   A    
C13   C37   A    
C31   C248  S    
C141  H19   S    
C61   H80   S    
C181  C199  S    
C146  H71   S    
C120  C121  A    
C10   C25   A    
C129  C130  A    
C54   C55   A    
O3    Zn10  S    
C136  C137  A    
C26   C253  S    
C236  H46   S    
C237  H47   S    
C15   C31   A    
C179  C198  S    
C238  H48   S    
C134  H14   S    
C117  H126  S    
C30   C249  S    
C151  H28   S    
C57   C177  A    
C113  C183  A    
C193  O27   A    
C3    C218  A    
C194  O28   A    
O23   Zn6   S    
C56   C58   A    
C41   C186  A    
C154  H30   S    
C10   C33   A    
O48   Zn8   S    
C176  C195  S    
C102  C103  A    
C237  C250  A    
C63   C64   A    
C84   H100  S    
C45   C190  A    
C152  C153  A    
C95   H109  S    
C223  H34   S    
C242  C253  A    
C150  C151  A    
C188  C202  S    
C13   H58   S    
C198  O41   A    
C56   H77   S    
O4    Zn11  S    
C35   H60   S    
O34   Zn7   S    
C102  H114  S    
C87   H102  S    
C17   C29   A    
C73   C74   A    
C71   H89   S    
C203  O13   A    
C233  C249  A    
C4    C205  S    
C64   H83   S    
C49   C192  A    
C52   C53   A    
C93   C94   A    
C157  C181  A    
C55   H76   S    
O42   Zn4   S    
C233  H44   S    
C89   H104  S    
C93   H106  S    
C123  C125  A    
C132  C138  A    
C88   H103  S    
C36   C185  A    
O22   Zn10  S    
O27   Zn12  S    
C44   C169  S    
C124  C179  A    
C9    C32   A    
C234  C248  A    
C124  H69   S    
C95   C96   A    
C225  H35   S    
C200  O43   A    
C33   C245  S    
C70   C71   A    
C208  C255  S    
C198  O37   A    
C51   C189  A    
C50   C146  A    
C135  H70   S    
C21   C27   A    
C19   C119  S    
C207  O21   A    
C239  C250  A    
C109  H121  S    
C81   H97   S    
C205  O15   A    
C202  O48   A    
C99   H112  S    
C145  C147  A    
C152  C158  A    
C146  C182  A    
C32   C247  S    
C66   H84   S    
C182  C200  S    
C58   H78   S    
C86   C87   A    
C138  H17   S    
C3    C216  A    
C53   C54   A    
C60   C61   A    
C35   C39   A    
C27   C252  S    
C20   C126  S    
C62   C63   A    
O6    Zn9   S    
C44   C189  A    
C108  H120  S    
C1    O1    A    
C37   C186  A    
O44   Zn6   S    
C157  H72   S    
C2    H57   S    
C160  N9    T    
C18   C111  S    
C51   C175  S    
C121  C122  A    
O11   Zn6   S    
C45   C101  A    
C121  H3    S    
C119  C125  A    
C122  H4    S    
C43   C167  S    
C244  C253  A    
C112  O12   A    
C133  C134  A    
C222  H24   S    
C127  C128  A    
C19   C29   A    
C142  H20   S    
C77   H94   S    
C129  H9    S    
C37   C161  S    
C6    C223  A    
C166  N15   T    
O45   Zn5   S    
C47   C113  A    
O19   Zn9   S    
C211  C229  A    
C104  H116  S    
O7    Zn8   S    
C211  C255  A    
C217  C234  A    
C231  H42   S    
C119  C120  A    
C175  N8    T    
C105  C106  A    
O33   Zn2   S    
C218  C236  A    
C149  C150  A    
C82   H98   S    
C226  C243  A    
C191  O34   A    
C43   C188  A    
C16   C19   A    
C13   C177  A    
C6    C226  A    
C222  C240  A    
C92   C93   A    
O14   Zn6   S    
C127  H7    S    
C136  H15   S    
C128  H8    S    
C197  O36   A    
C212  C254  A    
C94   C95   A    
C50   C190  A    
C130  H10   S    
O9    Zn1   S    
C87   C88   A    
C82   C83   A    
C22   C26   A    
C103  C104  A    
C142  C143  A    
C144  H22   S    
C158  H33   S    
C9    C59   S    
C174  N7    T    
C117  C118  A    
C235  O6    A    
C42   C166  S    
O16   Zn1   S    
C168  C246  A    
C170  N3    T    
C177  C196  S    
O43   Zn4   S    
C46   C178  A    
O12   Zn5   S    
C236  C249  A    
C81   C82   A    
C85   C91   A    
C23   C145  S    
C194  O32   A    
C59   C64   A    
C208  O25   A    
O40   Zn4   S    
C62   H81   S    
C209  C254  S    
C5    C220  A    
C118  H127  S    
C43   C79   A    
C38   C187  A    
C116  C117  A    
C238  C251  A    
C140  H18   S    
C210  C254  A    
C230  H40   S    
C2    C176  A    
C15   C92   S    
C48   C172  S    
C132  C133  A    
C41   C165  S    
C226  H36   S    
C149  H26   S    
C34   C184  A    
C23   C27   A    
C187  C191  S    
C201  O11   A    
C168  C194  S    
C209  O26   A    
C112  O47   A    
C42   C68   A    
C61   C62   A    
C241  C252  A    
C14   C30   A    
C24   H59   S    
C1    C184  S    
C74   C75   A    
C148  C149  A    
C239  H49   S    
C134  C136  A    
C228  C245  A    
C65   C71   A    
C199  O40   A    
C200  O39   A    
C12   C78   S    
C67   C69   A    
C229  C247  A    
C72   C77   A    
C17   C105  S    
C212  C230  A    
C139  C144  A    
C91   H105  S    
C196  O35   A    
C24   C38   A    
C99   C100  A    
C227  C244  A    
C38   C162  S    
C96   C97   A    
O30   Zn12  S    
C235  O4    A    
C230  C245  A    
O26   Zn11  S    
C145  C151  A    
C193  O33   A    
C209  O24   A    
C73   H90   S    
O41   Zn4   S    
C155  H31   S    
C9    C21   A    
C244  H55   S    
C156  H32   S    
C221  H13   S    
C133  H12   S    
C115  C116  A    
C10   C65   S    
C2    C36   A    
C243  C252  A    
C214  C255  A    
C3    C206  S    
O1    Zn1   S    
C14   C85   S    
C80   C81   A    
C48   C124  A    
C147  H23   S    
C137  C138  A    
C69   H87   S    
C50   C174  S    
C29   C250  S    
C122  C123  A    
C141  C142  A    
C153  H29   S    
O15   Zn5   S    
C126  C131  A    
C123  H5    S    
C98   C104  A    
C215  C256  A    
C66   C67   A    
C8    C33   A    
C180  O23   A    
C36   C160  S    
C63   H82   S    
C78   C84   A    
O20   Zn10  S    
C65   C66   A    
C12   C18   A    
O38   Zn3   S    
O32   Zn2   S    
C153  C154  A    
C39   C163  S    
O5    Zn10  S    
O35   Zn2   S    
C101  C182  A    
C195  O31   A    
C44   C90   A    
