data_mof_unit_40784.cif
_audit_creation_date              2012-10-26T20:25:33-0400
_audit_creation_method            fapswitch 2.2
_symmetry_space_group_name_H-M    P1
_symmetry_Int_Tables_number       1
_space_group_crystal_system       triclinic
_cell_length_a                    23.464081
_cell_length_b                    10.647113
_cell_length_c                    9.482815
_cell_angle_alpha                 90.3192
_cell_angle_beta                  89.917023
_cell_angle_gamma                 89.360564
_cell_volume                      2368.85462332

loop_
_atom_site_label
_atom_site_type_symbol
_atom_type_description
_atom_site_fract_x
_atom_site_fract_y
_atom_site_fract_z
_atom_type_partial_charge
C1    C     C_R   0.499793 0.259868 0.499576 0.591221
C2    C     C_R   0.699928 0.611690 0.538442 0.061025
C3    C     C_R   0.241698 0.379727 0.464094 0.124170
C4    C     C_R   0.759788 0.613274 0.537715 0.164980
C5    C     C_R   0.209575 0.488463 0.497377 0.260145
C6    C     C_R   0.790713 0.504506 0.500581 0.285392
C7    C     C_3   0.541747 0.040840 0.577595 0.083897
C8    C     C_3   0.457631 0.959357 0.422272 0.088890
C9    C     C_3   0.549886 0.956912 0.446670 -0.094273
C10   C     C_3   0.449481 0.043441 0.553139 -0.083759
C11   C     C_3   0.500222 0.876841 0.501296 0.036199
C12   C     C_R   0.499974 0.740193 0.500403 0.568057
C13   C     C_3   0.499204 0.123341 0.498577 0.040906
C14   C     C_3   0.493198 0.959892 0.634272 -0.109768
C15   C     C_3   0.506160 0.040363 0.365614 -0.105821
C16   C     C_R   0.391406 0.499992 0.500065 0.590432
C17   C     C_R   0.608631 0.499709 0.499998 0.548310
C18   C     C_3   0.522365 0.600592 0.049741 0.063477
C19   C     C_3   0.477618 0.399458 0.950233 0.064525
C20   C     C_3   0.471398 0.593798 0.951309 0.060737
C21   C     C_3   0.528587 0.406226 0.048615 0.062619
C22   C     C_3   0.551654 0.506808 0.948708 -0.041881
C23   C     C_R   0.236906 0.601135 0.531517 0.115903
C24   C     C_3   0.448338 0.493221 0.051264 -0.039598
C25   C     C_R   0.880347 0.487929 0.625021 0.434772
C26   C     C_R   0.119955 0.503873 0.372560 0.408401
C27   C     C_R   0.880267 0.520496 0.375790 0.436369
C28   C     C_R   0.120019 0.469821 0.621526 0.418693
C29   C     C_R   0.940038 0.516565 0.372302 0.029090
C30   C     C_R   0.060250 0.473569 0.624978 0.030860
C31   C     C_R   0.970079 0.497606 0.499126 -0.027694
C32   C     C_R   0.030212 0.492666 0.498181 -0.025628
C33   C     C_R   0.940125 0.483555 0.626889 0.029335
C34   C     C_R   0.762397 0.393596 0.464491 0.098911
C35   C     C_R   0.060173 0.507286 0.370520 0.031050
C36   C     C_R   0.970332 0.530446 0.245507 -0.120618
C37   C     C_R   0.029959 0.459743 0.751784 -0.120602
C38   C     C_R   0.029788 0.525954 0.244642 -0.120525
C39   C     C_R   0.970510 0.464769 0.752745 -0.120568
C40   C     C_1   0.437288 0.699223 0.897951 0.221252
C41   C     C_1   0.562521 0.300316 0.101333 0.221061
C42   C     C_1   0.549328 0.714541 0.104079 0.223322
C43   C     C_1   0.450643 0.285521 0.895887 0.227821
C44   C     C_1   0.324603 0.722909 0.565162 0.223122
C45   C     C_R   0.296793 0.605649 0.533030 -0.074408
C46   C     C_1   0.673732 0.275299 0.432004 0.230617
C47   C     C_R   0.702457 0.391362 0.464447 -0.060383
C48   C     C_R   0.329005 0.496945 0.499775 0.000223
C49   C     C_R   0.671145 0.500746 0.500483 -0.022478
C50   C     C_R   0.301520 0.384273 0.464673 0.102395
Cu1   Cu    Cu3+1 0.500010 0.499990 0.643150 0.982922
Cu2   Cu    Cu3+1 0.499990 0.500010 0.356850 0.992232
H1    H     H_    0.948235 0.544846 0.146589 0.167542
H2    H     H_    0.509281 0.072728 0.255000 0.161555
H3    H     H_    0.213157 0.781062 0.492236 0.246504
H4    H     H_    0.213245 0.741311 0.665235 0.254763
H5    H     H_    0.784436 0.254709 0.327484 0.256565
H6    H     H_    0.784979 0.212258 0.499656 0.245713
H7    H     H_    0.323748 0.203236 0.501279 0.255571
H8    H     H_    0.324089 0.244787 0.329211 0.256895
H9    H     H_    0.642007 0.747188 0.492515 0.232468
H10   H     H_    0.644069 0.705752 0.664718 0.246823
H11   H     H_    0.187872 0.240081 0.515560 0.253049
H12   H     H_    0.052056 0.445273 0.850689 0.166689
H13   H     H_    0.188303 0.277983 0.342334 0.263943
H14   H     H_    0.777942 0.752008 0.676369 0.266290
H15   H     H_    0.777107 0.796429 0.505163 0.258917
H16   H     H_    0.610147 0.010445 0.703989 0.241678
H17   H     H_    0.569947 0.135293 0.750239 0.247576
H18   H     H_    0.389261 0.989616 0.295733 0.237288
H19   H     H_    0.429461 0.864664 0.249779 0.248217
H20   H     H_    0.595041 0.512611 0.902487 0.127059
H21   H     H_    0.404949 0.487430 0.097464 0.131560
H22   H     H_    0.051815 0.537234 0.145119 0.167592
H23   H     H_    0.948488 0.453808 0.852324 0.166742
H24   H     H_    0.591458 0.922489 0.405425 0.160841
H25   H     H_    0.407969 0.079513 0.593273 0.165024
H26   H     H_    0.490091 0.927577 0.744905 0.161176
N1    N     N_R   0.851860 0.505770 0.500717 -0.355518
N2    N     N_3   0.795488 0.283636 0.429279 -0.588099
N3    N     N_1   0.346372 0.817252 0.590653 -0.240889
N4    N     N_1   0.651285 0.181768 0.406477 -0.239274
N5    N     N_3   0.334823 0.274262 0.431018 -0.618290
N6    N     N_3   0.669063 0.724060 0.576007 -0.635235
N7    N     N_3   0.214066 0.263898 0.430766 -0.620077
N8    N     N_3   0.789870 0.725253 0.574167 -0.575944
N9    N     N_3   0.588142 0.088271 0.663935 -0.581835
N10   N     N_3   0.411249 0.911839 0.335960 -0.583245
N11   N     N_R   0.148441 0.485278 0.496736 -0.379760
N12   N     N_3   0.500040 0.499970 0.858290 -0.267055
N13   N     N_3   0.499960 0.500030 0.141710 -0.266772
N14   N     N_1   0.409978 0.782666 0.857816 -0.276298
N15   N     N_1   0.589663 0.216324 0.140674 -0.276686
N16   N     N_1   0.570820 0.804666 0.145691 -0.312907
N17   N     N_1   0.429143 0.195405 0.854280 -0.308959
N18   N     N_3   0.202861 0.710410 0.563728 -0.579258
O1    O     O_R   0.500030 0.316850 0.620870 -0.490465
O2    O     O_2   0.149468 0.519906 0.251872 -0.480899
O3    O     O_2   0.850682 0.538417 0.255513 -0.470366
O4    O     O_2   0.149600 0.451672 0.741769 -0.475488
O5    O     O_R   0.499970 0.683150 0.379130 -0.494505
O6    O     O_R   0.500000 0.316860 0.379090 -0.496959
O7    O     O_R   0.500000 0.683140 0.620910 -0.507116
O8    O     O_R   0.417890 0.499960 0.620920 -0.485795
O9    O     O_R   0.582110 0.500040 0.379080 -0.487049
O10   O     O_R   0.417870 0.499970 0.379140 -0.494499
O11   O     O_R   0.582130 0.500030 0.620860 -0.511671
O12   O     O_2   0.850842 0.473598 0.746011 -0.472459

loop_
_geom_bond_atom_site_label_1
_geom_bond_atom_site_label_2
_ccdc_geom_bond_type
Cu1   O1    S    
C23   C45   A    
C3    N7    S    
C2    N6    S    
H18   N10   S    
C16   C48   S    
C47   C49   A    
C26   N11   A    
C29   C36   A    
Cu2   O6    S    
C33   C39   A    
C18   N13   S    
C19   C21   S    
H7    N5    S    
C27   N1    A    
C18   C42   S    
Cu1   N12   S    
C38   H22   S    
C20   C40   S    
H8    N5    S    
C24   H21   S    
C27   C29   A    
Cu1   O7    S    
C23   N18   S    
H4    N18   S    
C36   H1    S    
C34   N2    S    
C46   N4    T    
C3    C50   A    
C7    C14   S    
C7    N9    S    
C20   C24   S    
C19   C43   S    
C43   N17   T    
C31   C33   A    
C28   N11   A    
C9    H24   S    
C39   H23   S    
H17   N9    S    
C16   O10   A    
C28   O4    S    
C48   C50   A    
Cu2   O10   S    
C42   N16   T    
C21   C22   S    
H11   N7    S    
H5    N2    S    
C22   H20   S    
C10   H25   S    
C16   O8    A    
C50   N5    S    
C37   C39   A    
C41   N15   T    
Cu2   O5    S    
Cu1   Cu2   S    
C32   C35   A    
C35   C38   A    
C12   O7    A    
C4    C6    A    
C44   N3    T    
C10   C14   S    
C1    O1    A    
Cu1   O8    S    
C20   N12   S    
C10   C13   S    
C6    C34   A    
C30   C37   A    
C8    N10   S    
C2    C4    A    
C15   H2    S    
C2    C49   A    
C17   O9    A    
C31   C32   A    
C5    C23   A    
C27   O3    S    
C22   N12   S    
C40   N14   T    
C9    C11   S    
C26   O2    S    
C21   C41   S    
C8    C10   S    
Cu2   O9    S    
C8    C15   S    
C13   C15   S    
C1    C13   S    
C17   C49   S    
C36   C38   A    
C24   N13   S    
C37   H12   S    
C44   C45   S    
C21   N13   S    
C45   C48   A    
C7    C9    S    
H10   N6    S    
C46   C47   S    
H15   N8    S    
C18   C22   S    
H3    N18   S    
C3    C5    A    
H9    N6    S    
C25   N1    A    
H14   N8    S    
C11   C12   S    
H13   N7    S    
H6    N2    S    
C17   O11   A    
C19   C24   S    
C9    C15   S    
C12   O5    A    
C29   C31   A    
C19   N12   S    
C30   C32   A    
C6    N1    S    
C8    C11   S    
C28   C30   A    
C11   C14   S    
C18   C20   S    
C14   H26   S    
H19   N10   S    
C26   C35   A    
C7    C13   S    
C4    N8    S    
Cu1   O11   S    
H16   N9    S    
Cu2   N13   S    
C34   C47   A    
C1    O6    A    
C5    N11   S    
C25   O12   S    
C25   C33   A    
