data_mof_unit_36134.cif
_audit_creation_date              2012-12-10T17:57:52-0500
_audit_creation_method            fapswitch 2.2
_symmetry_space_group_name_H-M    P1
_symmetry_Int_Tables_number       1
_space_group_crystal_system       triclinic
_cell_length_a                    10.976053
_cell_length_b                    9.498057
_cell_length_c                    15.029673
_cell_angle_alpha                 90.075228
_cell_angle_beta                  89.562235
_cell_angle_gamma                 90.478423
_cell_volume                      1566.75952288

loop_
_atom_site_label
_atom_site_type_symbol
_atom_type_description
_atom_site_fract_x
_atom_site_fract_y
_atom_site_fract_z
_atom_type_partial_charge
C1    C     C_R   0.262034 0.499323 0.499573 0.890436
C2    C     C_R   0.738006 0.500703 0.502042 0.895122
C3    C     C_R   0.278790 0.447215 0.045859 0.196659
C4    C     C_R   0.724507 0.486884 0.953701 0.188393
C5    C     C_R   0.062472 0.375638 0.525545 0.168219
C6    C     C_R   0.938039 0.625824 0.482290 0.194682
C7    C     C_R   0.934780 0.377651 0.527772 0.156060
C8    C     C_R   0.065241 0.621834 0.476099 0.160940
C9    C     C_R   0.872092 0.502224 0.505442 -0.179685
C10   C     C_R   0.128063 0.498339 0.500124 -0.161273
C11   C     C_R   0.560447 0.074928 0.435136 -0.034620
C12   C     C_R   0.439951 0.925036 0.565006 -0.021729
C13   C     C_R   0.440731 0.073876 0.565307 -0.013792
C14   C     C_R   0.560440 0.925982 0.435135 -0.019528
C15   C     C_R   0.500609 0.499628 0.328978 0.864893
C16   C     C_R   0.499499 0.500337 0.671054 0.847590
C17   C     C_R   0.610878 0.515500 0.812895 0.160036
C18   C     C_R   0.391435 0.456741 0.188466 0.161429
C19   C     C_R   0.500206 0.500298 0.767618 -0.157314
C20   C     C_R   0.498828 0.496700 0.232493 -0.178175
C21   C     C_R   0.389800 0.486461 0.813674 0.199457
C22   C     C_R   0.607647 0.519074 0.185500 0.219748
C23   C     C_R   0.390353 0.463325 0.906083 -0.026243
C24   C     C_R   0.611308 0.491506 0.093484 -0.037503
C25   C     C_R   0.501565 0.476676 0.952864 -0.079512
C26   C     C_R   0.500488 0.475276 0.046922 -0.083813
C27   C     C_R   0.613557 0.495174 0.905998 -0.007308
C28   C     C_R   0.388683 0.460850 0.094360 0.008208
C29   C     C_R   0.282771 0.431226 0.953736 0.280265
C30   C     C_R   0.721762 0.476577 0.046617 0.291656
Cu1   Cu    Cu3+1 0.500000 0.640660 0.500000 0.976698
Cu2   Cu    Cu3+1 0.500000 0.359340 0.500000 0.958655
H1    H     H_    0.609368 0.131421 0.383447 0.145646
H2    H     H_    0.391598 0.868583 0.617000 0.150059
H3    H     H_    0.394677 0.129387 0.618202 0.133518
H4    H     H_    0.609553 0.870217 0.383539 0.168457
N1    N     N_R   0.500000 0.852070 0.500000 -0.165851
N2    N     N_R   0.500000 0.147930 0.500000 -0.163325
O1    O     O_R   0.319640 0.618740 0.499990 -0.548453
O2    O     O_R   0.680360 0.381260 0.500010 -0.558677
O3    O     O_R   0.680360 0.618740 0.500010 -0.551721
O4    O     O_R   0.319640 0.381260 0.499990 -0.565348
O5    O     O_R   0.499970 0.618800 0.370260 -0.578278
O6    O     O_R   0.500030 0.381200 0.629740 -0.605688
O7    O     O_R   0.500030 0.618800 0.629740 -0.578247
O8    O     O_R   0.499970 0.381200 0.370260 -0.589093
N3    N     N_2   0.714817 0.570430 0.766719 -0.436450
H5    H     H_    0.728439 0.530831 0.703611 0.233113
C31   C     C_3   0.724536 0.722508 0.769620 -0.655461
H6    H     H_    0.815200 0.755897 0.743860 0.215718
H7    H     H_    0.715367 0.761568 0.839046 0.240465
H8    H     H_    0.652789 0.770881 0.728185 0.235482
N4    N     N_2   0.288520 0.408402 0.238787 -0.440821
H9    H     H_    0.274234 0.458641 0.298709 0.240220
C32   C     C_3   0.278184 0.256713 0.245705 -0.639402
H10   H     H_    0.191868 0.228565 0.280638 0.228163
H11   H     H_    0.355540 0.213516 0.283888 0.242352
H12   H     H_    0.276904 0.207767 0.178527 0.234091
Br1   Br    Br    0.244868 0.550583 0.753402 -0.561959
Br2   Br    Br    0.743326 0.606605 0.247082 -0.523926
Br3   Br    Br    0.148528 0.329147 0.900996 -0.495075
Br4   Br    Br    0.860875 0.392838 0.103044 -0.468400
N5    N     N_2   0.162292 0.468017 0.085559 -0.369444
H13   H     H_    0.130903 0.390618 0.127842 0.326119
C33   C     C_3   0.137355 0.611721 0.112007 -0.606864
H14   H     H_    0.202417 0.647877 0.163433 0.215033
H15   H     H_    0.043525 0.619153 0.139430 0.271082
H16   H     H_    0.145261 0.682794 0.053573 0.224740
N6    N     N_2   0.839335 0.472955 0.909815 -0.367476
H17   H     H_    0.843907 0.410983 0.853558 0.282224
C34   C     C_3   0.920839 0.593710 0.913436 -0.468253
H18   H     H_    0.002792 0.565975 0.951555 0.281549
H19   H     H_    0.877455 0.685716 0.946335 0.195277
H20   H     H_    0.950014 0.624168 0.845222 0.234241
N7    N     N_2   0.124442 0.248796 0.547434 -0.414994
H21   H     H_    0.090704 0.158586 0.518168 0.236322
C35   C     C_3   0.154185 0.231876 0.640433 -0.549128
H22   H     H_    0.077989 0.264972 0.684328 0.259592
H23   H     H_    0.236117 0.295353 0.656319 0.264113
H24   H     H_    0.174679 0.119778 0.654418 0.190977
N8    N     N_2   0.876203 0.752456 0.460039 -0.380142
H25   H     H_    0.907996 0.802756 0.403649 0.277864
C36   C     C_3   0.856752 0.847592 0.534057 -0.675418
H26   H     H_    0.944550 0.890748 0.558622 0.198751
H27   H     H_    0.809139 0.792640 0.589361 0.247277
H28   H     H_    0.798689 0.935894 0.512410 0.224764
N9    N     N_2   0.868926 0.253228 0.552211 -0.399855
H29   H     H_    0.891771 0.161494 0.519925 0.242224
C37   C     C_3   0.833902 0.238273 0.644856 -0.650529
H30   H     H_    0.879640 0.145434 0.674034 0.217642
H31   H     H_    0.733912 0.221383 0.649605 0.245625
H32   H     H_    0.858671 0.333081 0.684368 0.218966
N10   N     N_2   0.130197 0.741238 0.442117 -0.398233
H33   H     H_    0.107255 0.837944 0.468075 0.254511
C38   C     C_3   0.153182 0.741227 0.347073 -0.686072
H34   H     H_    0.104463 0.829777 0.315290 0.219644
H35   H     H_    0.122198 0.641429 0.315453 0.233322
H36   H     H_    0.252374 0.754699 0.334605 0.244794

loop_
_geom_bond_atom_site_label_1
_geom_bond_atom_site_label_2
_ccdc_geom_bond_type
C32   H10   S    
N5    C33   S    
N10   H33   S    
C38   H34   S    
N9    H29   S    
C6    C9    A    
N8    H25   S    
C38   H36   S    
N3    C31   S    
N4    H9    S    
Cu1   O5    S    
C36   H26   S    
C23   C29   A    
C3    C28   A    
C19   C21   A    
C24   C26   A    
C21   Br1   S    
C22   Br2   S    
C11   C14   A    
C2    O3    A    
N6    C34   S    
C12   N1    A    
C3    C29   A    
C18   N4    S    
C7    N9    S    
Cu1   Cu2   S    
C33   H15   S    
Cu2   N2    S    
C37   H31   S    
C16   O6    A    
C33   H16   S    
C35   H23   S    
N10   C38   S    
C6    N8    S    
C4    N6    S    
N8    C36   S    
N4    C32   S    
C21   C23   A    
C15   C20   S    
C29   Br3   S    
C8    N10   S    
C17   C27   A    
C11   H1    S    
C18   C28   A    
C5    C7    A    
C6    C8    A    
C31   H7    S    
C25   C26   A    
C35   H22   S    
Cu1   N1    S    
C5    N7    S    
C11   N2    A    
N7    H21   S    
N3    H5    S    
C31   H8    S    
Cu2   O6    S    
C37   H32   S    
N7    C35   S    
C13   N2    A    
C36   H27   S    
C20   C22   A    
C33   H14   S    
Cu2   O2    S    
C32   H11   S    
C22   C24   A    
C12   H2    S    
C4    C27   A    
C34   H19   S    
C35   H24   S    
C7    C9    A    
Cu1   O3    S    
Cu2   O8    S    
C1    C10   S    
C17   N3    S    
C16   O7    A    
C34   H20   S    
C38   H35   S    
C13   H3    S    
C3    N5    S    
C25   C27   A    
C26   C28   A    
C30   Br4   S    
C15   O5    A    
C5    C10   A    
C14   N1    A    
C14   H4    S    
C16   C19   S    
C17   C19   A    
Cu1   O1    S    
C18   C20   A    
C23   C25   A    
N6    H17   S    
C24   C30   A    
C1    O1    A    
N5    H13   S    
C2    O2    A    
C1    O4    A    
C34   H18   S    
C36   H28   S    
C12   C13   A    
C8    C10   A    
C31   H6    S    
Cu1   O7    S    
C32   H12   S    
N9    C37   S    
Cu2   O4    S    
C15   O8    A    
C37   H30   S    
C2    C9    S    
C4    C30   A    
