data_mof_unit_48513.cif
_audit_creation_date              2012-10-26T20:33:43-0400
_audit_creation_method            fapswitch 2.2
_symmetry_space_group_name_H-M    P1
_symmetry_Int_Tables_number       1
_space_group_crystal_system       triclinic
_cell_length_a                    10.770037
_cell_length_b                    9.093704
_cell_length_c                    7.785268
_cell_angle_alpha                 90.013012
_cell_angle_beta                  90.0
_cell_angle_gamma                 90.000146
_cell_volume                      762.485457867

loop_
_atom_site_label
_atom_site_type_symbol
_atom_type_description
_atom_site_fract_x
_atom_site_fract_y
_atom_site_fract_z
_atom_type_partial_charge
C1    C     C_R   0.500000 0.220037 0.499992 0.549105
C2    C     C_1   0.500000 0.934632 0.500023 -0.034896
C3    C     C_3   0.071517 0.622171 0.624484 -0.201176
C4    C     C_3   0.928484 0.622175 0.624480 -0.201173
C5    C     C_3   0.121566 0.503362 0.498751 0.072290
C6    C     C_3   0.878434 0.503364 0.498751 0.072299
C7    C     C_R   0.259319 0.502459 0.499769 0.587718
C8    C     C_R   0.740681 0.502461 0.499769 0.587699
C9    C     C_R   0.500000 0.779975 0.500012 0.555010
C10   C     C_1   0.500000 0.065381 0.499995 -0.039510
C11   C     C_3   0.072292 0.349467 0.554364 0.100656
C12   C     C_3   0.071845 0.537867 0.314545 0.102696
C13   C     C_3   0.927705 0.349471 0.554370 0.100631
C14   C     C_3   0.928155 0.537864 0.314544 0.102697
Cu1   Cu    Cu3+1 0.500000 0.500010 0.669080 1.061274
Cu2   Cu    Cu3+1 0.500000 0.500010 0.330920 1.058746
H1    H     H_    0.105298 0.266910 0.458286 0.059453
H2    H     H_    0.117499 0.671589 0.129828 0.329617
H3    H     H_    0.882484 0.203026 0.725471 0.325505
H4    H     H_    0.882472 0.671563 0.129817 0.329606
H5    H     H_    0.103981 0.448931 0.225858 0.096116
H6    H     H_    0.894694 0.266910 0.458297 0.059411
H7    H     H_    0.896022 0.448921 0.225863 0.096105
H8    H     H_    0.105332 0.600863 0.757252 0.160185
H9    H     H_    0.106255 0.732830 0.586921 0.151000
H10   H     H_    0.894664 0.600877 0.757248 0.160181
H11   H     H_    0.893752 0.732835 0.586908 0.151001
H12   H     H_    0.117410 0.203011 0.725505 0.325548
N1    N     N_1   0.500000 0.499970 0.076820 -0.074711
N2    N     N_1   0.500000 0.499970 0.923180 -0.074163
O1    O     O_R   0.500000 0.288400 0.642760 -0.487498
O2    O     O_3   0.118831 0.673995 0.257347 -0.656679
O3    O     O_3   0.880792 0.311982 0.717505 -0.655445
O4    O     O_3   0.881167 0.673988 0.257336 -0.656688
O5    O     O_R   0.500000 0.288400 0.357240 -0.505748
O6    O     O_R   0.317700 0.499990 0.642790 -0.480313
O7    O     O_R   0.317700 0.499990 0.357210 -0.496908
O8    O     O_R   0.682300 0.499990 0.642790 -0.480327
O9    O     O_R   0.682300 0.499990 0.357210 -0.496910
O10   O     O_R   0.500000 0.711620 0.642810 -0.513644
O11   O     O_R   0.500000 0.711620 0.357190 -0.483335
O12   O     O_3   0.119213 0.311960 0.717489 -0.655424

loop_
_geom_bond_atom_site_label_1
_geom_bond_atom_site_label_2
_ccdc_geom_bond_type
C14   H7    S    
C14   O4    S    
C4    H10   S    
Cu1   O8    S    
Cu1   O1    S    
N1    N2    T    
C8    O9    A    
C6    C14   S    
C7    O6    A    
C9    O11   A    
C3    H9    S    
Cu2   O7    S    
H4    O4    S    
C7    O7    A    
C12   O2    S    
C6    C13   S    
C13   O3    S    
C11   C13   S    
C3    H8    S    
C8    O8    A    
Cu1   N2    S    
C12   H5    S    
H12   O12   S    
C12   C14   S    
C13   H6    S    
C5    C11   S    
Cu2   O5    S    
Cu1   O10   S    
H2    O2    S    
C5    C12   S    
Cu2   O9    S    
C3    C4    S    
C2    C10   T    
Cu1   O6    S    
C1    O1    A    
C4    H11   S    
C1    O5    A    
C11   O12   S    
C4    C6    S    
H3    O3    S    
C5    C7    S    
C11   H1    S    
C6    C8    S    
Cu2   N1    S    
C2    C9    S    
Cu2   O11   S    
C9    O10   A    
C1    C10   S    
Cu1   Cu2   S    
C3    C5    S    
