data_mof_unit_13103.cif
_audit_creation_date              2012-12-10T17:33:00-0500
_audit_creation_method            fapswitch 2.2
_symmetry_space_group_name_H-M    P1
_symmetry_Int_Tables_number       1
_space_group_crystal_system       triclinic
_cell_length_a                    12.342478
_cell_length_b                    13.382213
_cell_length_c                    14.341147
_cell_angle_alpha                 92.261863
_cell_angle_beta                  108.572253
_cell_angle_gamma                 116.989877
_cell_volume                      1952.76136771

loop_
_atom_site_label
_atom_site_type_symbol
_atom_type_description
_atom_site_fract_x
_atom_site_fract_y
_atom_site_fract_z
_atom_type_partial_charge
C1    C     C_R   0.650700 0.713608 0.508011 0.774521
C2    C     C_R   0.832614 0.453479 0.896135 0.099415
C3    C     C_R   0.743588 0.390936 0.942088 0.165224
C4    C     C_R   0.957923 0.460695 0.927770 0.066359
C5    C     C_R   0.998671 0.419528 0.014560 0.073389
C6    C     C_R   0.903988 0.348213 0.051700 -0.243649
C7    C     C_R   0.777996 0.333944 0.015649 -0.249541
C8    C     C_R   0.043619 0.506682 0.875780 -0.227302
C9    C     C_R   0.169929 0.522001 0.913998 -0.232743
C10   C     C_R   0.217359 0.499439 0.008074 0.163105
C11   C     C_R   0.132938 0.450886 0.060983 0.096122
C12   C     C_R   0.616553 0.512689 0.685765 0.790675
C13   C     C_R   0.349588 0.528574 0.051403 -0.205625
C14   C     C_R   0.401431 0.519102 0.149920 -0.194549
C15   C     C_R   0.188037 0.444574 0.161637 -0.262402
C16   C     C_R   0.144515 0.973473 0.364668 -0.208448
C17   C     C_R   0.247998 0.165243 0.462109 -0.041040
C18   C     C_R   0.724432 0.918686 0.564978 -0.189307
C19   C     C_R   0.811235 0.034722 0.580136 -0.144619
C20   C     C_R   0.913711 0.070115 0.546107 -0.178649
C21   C     C_R   0.929235 0.989197 0.492771 0.078243
C22   C     C_R   0.831062 0.872142 0.466884 0.064212
C23   C     C_R   0.345087 0.286276 0.484902 0.798053
C24   C     C_R   0.037726 0.021174 0.462781 0.060724
C25   C     C_R   0.041057 0.938534 0.399800 0.110942
C26   C     C_R   0.939438 0.823663 0.371031 -0.032818
C27   C     C_R   0.832323 0.794391 0.398769 -0.248577
C28   C     C_R   0.145618 0.132729 0.496419 -0.247286
C29   C     C_R   0.247292 0.085519 0.396091 -0.196009
C30   C     C_R   0.734569 0.835900 0.510600 -0.093178
C31   C     C_R   0.255552 0.686153 0.657908 -0.317582
C32   C     C_R   0.653805 0.342323 0.365628 0.077621
C33   C     C_R   0.730974 0.305401 0.339137 -0.261299
C34   C     C_R   0.381548 0.483781 0.313512 0.784989
C35   C     C_R   0.866511 0.362439 0.391887 -0.190217
C36   C     C_R   0.927214 0.458827 0.471398 0.015920
C37   C     C_R   0.843734 0.492950 0.496327 0.299593
C38   C     C_R   0.067116 0.523308 0.526248 -0.027219
C39   C     C_R   0.119684 0.619611 0.604648 0.177281
C40   C     C_R   0.036651 0.649781 0.629095 -0.307132
C41   C     C_R   0.902050 0.587817 0.576410 -0.194202
C42   C     C_R   0.158576 0.498772 0.505477 -0.007495
C43   C     C_R   0.339837 0.658444 0.632811 0.065344
C44   C     C_R   0.666947 0.493359 0.786323 -0.045920
C45   C     C_R   0.322106 0.481443 0.206659 -0.037208
C46   C     C_R   0.620190 0.384490 0.912591 -0.214934
C47   C     C_R   0.581667 0.434958 0.834562 -0.193427
C48   C     C_R   0.793458 0.507511 0.820769 -0.239729
Cu1   Cu    Cu3+1 0.416420 0.526630 0.522910 0.925116
Cu2   Cu    Cu3+1 0.583580 0.473370 0.477090 0.923813
H1    H     H_    0.708812 0.281452 0.048162 0.138502
H2    H     H_    0.414113 0.563021 0.010561 0.133224
H3    H     H_    0.323820 0.110600 0.366020 0.148859
H4    H     H_    0.145231 0.915609 0.310353 0.149915
H5    H     H_    0.153347 0.196456 0.550254 0.146292
H6    H     H_    0.650387 0.893781 0.597601 0.152154
H7    H     H_    0.976909 0.161625 0.560594 0.129136
H8    H     H_    0.801198 0.097758 0.621013 0.146596
H9    H     H_    0.750180 0.708856 0.366161 0.177444
H10   H     H_    0.444851 0.709860 0.673311 0.123877
H11   H     H_    0.129865 0.416487 0.207617 0.126690
H12   H     H_    0.296369 0.759751 0.718111 0.138778
H13   H     H_    0.127390 0.427460 0.447019 0.122280
H14   H     H_    0.548604 0.296935 0.324756 0.122975
H15   H     H_    0.921351 0.330039 0.368242 0.126690
H16   H     H_    0.685540 0.232131 0.277611 0.138941
H17   H     H_    0.505178 0.546399 0.183394 0.140687
H18   H     H_    0.232957 0.557412 0.872116 0.148504
H19   H     H_    0.551779 0.336906 0.947459 0.132514
H20   H     H_    0.857781 0.558210 0.784518 0.131089
H21   H     H_    0.926342 0.303375 0.109572 0.140029
H22   H     H_    0.014683 0.528838 0.803980 0.157009
N1    N     N_R   0.290690 0.566960 0.557640 -0.180321
N2    N     N_R   0.709100 0.433710 0.442970 -0.207147
O1    O     O_R   0.545970 0.684450 0.528810 -0.580906
O2    O     O_R   0.687130 0.639470 0.490120 -0.606018
O3    O     O_R   0.519670 0.535100 0.660030 -0.581483
O4    O     O_R   0.660830 0.490120 0.621340 -0.592202
O5    O     O_R   0.312870 0.360530 0.509880 -0.590890
O6    O     O_R   0.454030 0.315550 0.471190 -0.585329
O7    O     O_R   0.339170 0.509880 0.378660 -0.585118
O8    O     O_R   0.480330 0.464900 0.339970 -0.593835
C49   C     C_R   0.949370 0.729093 0.323634 0.117616
C50   C     C_R   0.063490 0.720009 0.365750 -0.149003
C51   C     C_R   0.071394 0.628491 0.325166 -0.146600
C52   C     C_R   0.962405 0.540787 0.247604 -0.089975
C53   C     C_R   0.847601 0.547433 0.206079 -0.101751
C54   C     C_R   0.841651 0.642180 0.242675 -0.155856
H23   H     H_    0.146102 0.783201 0.430721 0.142288
H24   H     H_    0.160371 0.623318 0.356452 0.153311
H25   H     H_    0.966500 0.466332 0.222728 0.127878
H26   H     H_    0.762408 0.478728 0.146685 0.132304
H27   H     H_    0.752276 0.646449 0.209332 0.111885
H28   H     H_    0.076230 0.722775 0.689623 0.153858
H29   H     H_    0.847465 0.617807 0.601424 0.206746
H30   H     H_    0.482546 0.421662 0.807548 0.149803

loop_
_geom_bond_atom_site_label_1
_geom_bond_atom_site_label_2
_ccdc_geom_bond_type
C43   N1    A    
C37   N2    A    
C26   C49   S    
C17   C29   A    
C19   C20   A    
C4    C8    A    
C41   H29   S    
C51   C52   A    
C26   C27   A    
C17   C23   S    
C31   C43   A    
C21   C22   A    
C36   C37   A    
C5    C11   A    
C3    C7    A    
C52   H25   S    
Cu2   N2    S    
C32   N2    A    
C38   C39   A    
C35   H15   S    
C18   C19   A    
Cu1   O7    S    
C46   H19   S    
C54   H27   S    
C11   C15   A    
C35   C36   A    
C31   C39   A    
C8    C9    A    
C12   O4    A    
C14   H17   S    
Cu1   O1    S    
C18   C30   A    
C34   O7    A    
C23   O6    A    
C9    C10   A    
C44   C47   A    
C18   H6    S    
C49   C54   A    
C53   H26   S    
C17   C28   A    
C31   H12   S    
Cu2   O4    S    
C28   H5    S    
C33   H16   S    
C14   C45   A    
C19   H8    S    
C6    H21   S    
C8    H22   S    
C1    O1    A    
C24   C25   A    
C32   H14   S    
C40   H28   S    
C39   C40   A    
C52   C53   A    
C2    C48   A    
C16   C29   A    
Cu1   O5    S    
C2    C4    A    
Cu2   O2    S    
C13   H2    S    
C49   C50   A    
C47   H30   S    
C12   O3    A    
C15   H11   S    
C34   C45   S    
C50   C51   A    
C43   H10   S    
C40   C41   A    
C22   C27   A    
Cu1   N1    S    
C50   H23   S    
C15   C45   A    
Cu2   O8    S    
C16   C25   A    
C46   C47   A    
C42   N1    A    
C22   C30   A    
C1    O2    A    
C24   C28   A    
C48   H20   S    
C4    C5    A    
C10   C13   A    
Cu2   O6    S    
C51   H24   S    
C38   C42   A    
C6    C7    A    
C3    C46   A    
C32   C33   A    
C36   C38   A    
C2    C3    A    
C25   C26   A    
C9    H18   S    
C7    H1    S    
C12   C44   S    
C27   H9    S    
C5    C6    A    
C29   H3    S    
C1    C30   S    
C33   C35   A    
Cu1   O3    S    
C37   C41   A    
C16   H4    S    
C10   C11   A    
C20   C21   A    
C53   C54   A    
Cu1   Cu2   S    
C21   C24   A    
C34   O8    A    
C23   O5    A    
C20   H7    S    
C13   C14   A    
C42   H13   S    
C44   C48   A    
