data_mof_unit_26018.cif
_audit_creation_date              2012-10-26T21:24:23-0400
_audit_creation_method            fapswitch 2.2
_symmetry_space_group_name_H-M    P1
_symmetry_Int_Tables_number       1
_space_group_crystal_system       triclinic
_cell_length_a                    14.306533
_cell_length_b                    10.845858
_cell_length_c                    9.658181
_cell_angle_alpha                 91.283987
_cell_angle_beta                  90.067075
_cell_angle_gamma                 90.326655
_cell_volume                      1498.22545128

loop_
_atom_site_label
_atom_site_type_symbol
_atom_type_description
_atom_site_fract_x
_atom_site_fract_y
_atom_site_fract_z
_atom_type_partial_charge
C1    C     C_R   0.497958 0.263043 0.498509 0.601860
C2    C     C_3   0.618899 0.084344 0.693252 0.527736
C3    C     C_R   0.578444 0.470878 0.073037 0.117357
C4    C     C_R   0.331375 0.499859 0.500035 0.544965
C5    C     C_R   0.419938 0.522319 0.073769 0.361092
C6    C     C_R   0.421664 0.530524 0.926399 0.367731
C7    C     C_R   0.578566 0.471340 0.926567 0.072600
C8    C     C_3   0.671790 0.535809 0.924116 0.096251
C9    C     C_3   0.672928 0.531188 0.084239 0.510011
C10   C     C_R   0.501625 0.737242 0.500946 0.542580
C11   C     C_R   0.668597 0.498532 0.500080 0.552838
C12   C     C_1   0.770972 0.497110 0.501024 0.049726
C13   C     C_1   0.228990 0.499430 0.500402 -0.012383
C14   C     C_1   0.143473 0.498834 0.501123 -0.031201
C15   C     C_1   0.042738 0.497912 0.502066 0.015234
C16   C     C_1   0.957212 0.497176 0.502641 0.018618
C17   C     C_1   0.856498 0.496695 0.502493 0.004847
C18   C     C_3   0.827418 0.502187 0.151713 -0.022836
C19   C     C_3   0.629536 0.744282 0.105535 -0.102016
C20   C     C_3   0.288198 0.840380 0.439543 -0.055433
C21   C     C_3   0.727343 0.785313 0.627355 -0.076434
C22   C     C_3   0.608054 0.152004 0.923386 -0.004642
C23   C     C_R   0.568810 0.067003 0.558989 -0.020105
C24   C     C_3   0.276482 0.445089 0.125455 -0.065979
C25   C     C_3   0.331539 0.693763 0.868226 -0.075773
C26   C     C_R   0.497774 0.129972 0.493542 -0.015618
C27   C     C_R   0.431445 0.061332 0.415150 0.212329
C28   C     C_R   0.430760 0.931410 0.421282 0.271432
C29   C     C_R   0.499821 0.870791 0.499679 -0.032921
C30   C     C_R   0.573018 0.941000 0.557107 -0.083357
C31   C     C_3   0.624015 0.942048 0.694176 0.479351
Cl1   Cl    Cl    0.343776 0.135297 0.319460 -0.597483
Cl2   Cl    Cl    0.556792 0.873075 0.828263 -0.706965
Cl3   Cl    Cl    0.726705 0.165902 0.663324 -0.489361
Cl4   Cl    Cl    0.757996 0.441446 0.840255 -0.567769
Cu1   Cu    Cu3+1 0.500000 0.499980 0.640670 1.058505
Cu2   Cu    Cu3+1 0.500000 0.500020 0.359330 1.081222
H1    H     H_    0.667374 0.628080 0.878638 0.116095
H2    H     H_    0.254962 0.927471 0.476849 0.158100
H3    H     H_    0.798555 0.750481 0.648519 0.153932
H4    H     H_    0.718963 0.789950 0.513188 0.115178
H5    H     H_    0.676917 0.719098 0.670583 0.162849
H6    H     H_    0.654065 0.234259 0.922306 0.206326
H7    H     H_    0.650349 0.070062 0.949808 0.166306
H8    H     H_    0.555979 0.166684 0.007079 0.150570
H9    H     H_    0.214833 0.459918 0.193156 0.138756
H10   H     H_    0.310492 0.358183 0.157488 0.177491
H11   H     H_    0.250040 0.434810 0.017698 0.157743
H12   H     H_    0.827533 0.571643 0.237720 0.134834
H13   H     H_    0.389562 0.740731 0.814573 0.190556
H14   H     H_    0.326746 0.728074 0.977317 0.175253
H15   H     H_    0.265819 0.719342 0.815309 0.126828
H16   H     H_    0.851420 0.547498 0.055968 0.160588
H17   H     H_    0.878992 0.430154 0.177216 0.144143
H18   H     H_    0.561973 0.719734 0.055372 0.149615
H19   H     H_    0.679138 0.787642 0.032733 0.167429
H20   H     H_    0.614220 0.814130 0.187935 0.170458
H21   H     H_    0.310577 0.784976 0.529188 0.085541
H22   H     H_    0.234436 0.785815 0.381920 0.153799
N1    N     N_R   0.500540 0.500930 0.147930 -0.260050
N2    N     N_R   0.500540 0.500890 0.852020 -0.253732
O1    O     O_R   0.500000 0.319640 0.618810 -0.434317
O2    O     O_3   0.671945 0.642518 0.167123 -0.579187
O3    O     O_3   0.363272 0.864206 0.349214 -0.502039
O4    O     O_3   0.718572 0.903142 0.689732 -0.522044
O5    O     O_3   0.559998 0.137679 0.796032 -0.531628
O6    O     O_3   0.337197 0.547720 0.141568 -0.536078
O7    O     O_3   0.341084 0.564541 0.858847 -0.551576
O8    O     O_R   0.500010 0.319680 0.381230 -0.476741
O9    O     O_R   0.376050 0.499980 0.618820 -0.438206
O10   O     O_R   0.376060 0.500020 0.381230 -0.435833
O11   O     O_R   0.499990 0.680320 0.618770 -0.499434
O12   O     O_R   0.500000 0.680360 0.381190 -0.449054
O13   O     O_R   0.623940 0.499980 0.618770 -0.464133
O14   O     O_R   0.623950 0.500020 0.381180 -0.438158
O15   O     O_3   0.738397 0.445902 0.135973 -0.516188

loop_
_geom_bond_atom_site_label_1
_geom_bond_atom_site_label_2
_ccdc_geom_bond_type
C19   H19   S    
Cu2   O8    S    
C5    O6    S    
C1    O1    A    
C4    O9    A    
C7    C8    S    
C19   H20   S    
C26   C27   A    
C6    N2    A    
C28   C29   A    
C3    C7    A    
C5    C6    A    
C10   O12   A    
C15   C16   T    
C23   C26   A    
C4    C13   S    
C25   H13   S    
C22   O5    S    
C24   O6    S    
C22   H7    S    
C19   O2    S    
C8    C9    S    
C12   C17   T    
C31   Cl2   S    
C9    O15   S    
C18   H16   S    
C3    N1    A    
C2    Cl3   S    
C6    O7    S    
Cu2   O14   S    
C13   C14   T    
C25   O7    S    
C8    H1    S    
Cu1   O1    S    
Cu1   O9    S    
C24   H11   S    
C23   C30   A    
C20   H2    S    
C16   C17   S    
C1    O8    A    
C2    C31   S    
C8    Cl4   S    
C20   O3    S    
C25   H14   S    
C29   C30   A    
C3    C9    S    
C22   H6    S    
C20   H22   S    
Cu1   O13   S    
C21   H4    S    
C28   O3    S    
Cu2   O10   S    
C1    C26   S    
C20   H21   S    
Cu1   N2    S    
C27   C28   A    
C19   H18   S    
C31   O4    S    
Cu2   O12   S    
Cu1   Cu2   S    
C18   O15   S    
C5    N1    A    
C21   O4    S    
C27   Cl1   S    
C9    O2    S    
C24   H10   S    
C2    O5    S    
C11   O13   A    
C11   C12   S    
C24   H9    S    
C25   H15   S    
C11   O14   A    
C10   C29   S    
C30   C31   S    
C21   H3    S    
Cu2   N1    S    
C18   H17   S    
C21   H5    S    
C22   H8    S    
C2    C23   S    
C14   C15   S    
C4    O10   A    
C7    N2    A    
Cu1   O11   S    
C18   H12   S    
C10   O11   A    
