data_mof_unit_6678.cif
_audit_creation_date              2012-12-10T19:11:33-0500
_audit_creation_method            fapswitch 2.2
_symmetry_space_group_name_H-M    P1
_symmetry_Int_Tables_number       1
_space_group_crystal_system       triclinic
_cell_length_a                    10.624736
_cell_length_b                    9.773899
_cell_length_c                    10.49466
_cell_angle_alpha                 90.997761
_cell_angle_beta                  91.047561
_cell_angle_gamma                 88.863681
_cell_volume                      1089.26405699

loop_
_atom_site_label
_atom_site_type_symbol
_atom_type_description
_atom_site_fract_x
_atom_site_fract_y
_atom_site_fract_z
_atom_type_partial_charge
C1    C     C_R   0.257995 0.501318 0.497225 0.817863
C2    C     C_3   0.496863 0.496446 0.122384 0.038527
C3    C     C_3   0.069197 0.652515 0.482163 -0.412284
C4    C     C_3   0.076003 0.443131 0.620611 -0.415930
C5    C     C_3   0.925847 0.651695 0.478630 -0.383029
C6    C     C_3   0.932148 0.447880 0.621892 -0.412648
C7    C     C_3   0.072824 0.416410 0.380356 -0.396226
C8    C     C_3   0.121813 0.503779 0.494930 0.209101
C9    C     C_3   0.879155 0.502711 0.494208 0.185571
C10   C     C_3   0.928401 0.415657 0.380060 -0.416773
C11   C     C_3   0.369600 0.083527 0.488440 -0.376218
C12   C     C_3   0.370116 0.921319 0.480533 -0.372193
C13   C     C_3   0.565451 0.077004 0.385115 -0.299438
C14   C     C_3   0.573499 0.915506 0.390589 -0.291308
C15   C     C_3   0.558873 0.080253 0.616605 0.393994
C16   C     C_3   0.548840 0.917826 0.621336 0.421019
C17   C     C_R   0.499205 0.498818 0.257364 0.845492
C18   C     C_R   0.742443 0.499886 0.496721 0.832470
C19   C     C_R   0.496942 0.500914 0.742550 0.862413
C20   C     C_3   0.380192 0.533902 0.042435 -0.193942
C21   C     C_3   0.526567 0.371499 0.037865 -0.140851
C22   C     C_3   0.410100 0.409447 0.954704 -0.174201
C23   C     C_3   0.493886 0.501547 0.877748 0.034332
C24   C     C_3   0.463380 0.625942 0.962599 -0.148602
C25   C     C_3   0.610156 0.463307 0.958235 -0.176354
C26   C     C_3   0.580204 0.588195 0.045257 -0.178309
H1    H     H_    0.340655 0.337235 0.912907 0.120557
H2    H     H_    0.890854 0.458230 0.288948 0.149985
H3    H     H_    0.896639 0.308649 0.383941 0.156638
H4    H     H_    0.319227 0.125428 0.403354 0.184287
H5    H     H_    0.328975 0.887164 0.387276 0.177823
H6    H     H_    0.314371 0.119276 0.572153 0.148016
H7    H     H_    0.306968 0.881780 0.554211 0.156848
H8    H     H_    0.513853 0.106331 0.296080 0.161158
H9    H     H_    0.536454 0.873270 0.298590 0.165086
H10   H     H_    0.659185 0.121190 0.373398 0.132154
H11   H     H_    0.672069 0.876819 0.396047 0.151994
H12   H     H_    0.286775 0.562094 0.081938 0.115217
H13   H     H_    0.552347 0.267920 0.072850 0.122407
H14   H     H_    0.432519 0.728503 0.929392 0.114026
H15   H     H_    0.703663 0.433707 0.919747 0.126684
H16   H     H_    0.649209 0.660539 0.087553 0.121503
H17   H     H_    0.103439 0.699109 0.393424 0.164659
H18   H     H_    0.109912 0.335169 0.629996 0.172982
H19   H     H_    0.101593 0.717167 0.564400 0.170393
H20   H     H_    0.114004 0.502237 0.703972 0.151145
H21   H     H_    0.890203 0.720202 0.556224 0.210059
H22   H     H_    0.900568 0.514583 0.702216 0.160927
H23   H     H_    0.890431 0.694173 0.386617 0.156314
H24   H     H_    0.896424 0.345171 0.639370 0.203387
H25   H     H_    0.105827 0.458890 0.289320 0.146331
H26   H     H_    0.109590 0.309181 0.386313 0.169061
N1    N     N_3   0.499750 0.138610 0.497240 -0.071421
N2    N     N_3   0.499750 0.861390 0.497240 -0.058887
O1    O     O_R   0.314910 0.616040 0.499970 -0.639786
O2    O     O_R   0.314910 0.383960 0.499970 -0.639828
O3    O     O_R   0.500080 0.616020 0.313900 -0.634239
O4    O     O_R   0.500080 0.383980 0.313900 -0.634074
O5    O     O_R   0.685320 0.616040 0.499930 -0.581558
O6    O     O_R   0.685320 0.383960 0.499930 -0.604571
O7    O     O_R   0.500150 0.616060 0.686000 -0.600300
O8    O     O_R   0.500150 0.383940 0.686000 -0.599377
Zn1   Zn    Zn3+2 0.500150 0.654960 0.499940 0.941458
Zn2   Zn    Zn3+2 0.500150 0.345040 0.499940 0.933349
O9    O     O_3   0.677244 0.138439 0.652945 -0.605969
C27   C     C_3   0.784894 0.092512 0.584997 0.184244
H27   H     H_    0.807355 0.169568 0.514478 0.142652
H28   H     H_    0.775286 0.995232 0.532595 0.150175
C28   C     C_3   0.899171 0.078922 0.674833 -0.945929
H29   H     H_    0.890931 0.150092 0.758032 0.265751
H30   H     H_    0.909183 0.973455 0.710055 0.252067
H31   H     H_    0.986507 0.101254 0.623036 0.207275
O10   O     O_3   0.662512 0.848976 0.657756 -0.586899
C29   C     C_3   0.682713 0.855118 0.791839 0.126136
H32   H     H_    0.596833 0.834060 0.845695 0.115698
H33   H     H_    0.715808 0.957531 0.822701 0.170866
C30   C     C_3   0.780886 0.747563 0.830151 -0.874732
H34   H     H_    0.870637 0.762305 0.780710 0.234664
H35   H     H_    0.799309 0.753858 0.934492 0.198355
H36   H     H_    0.745471 0.644656 0.804856 0.255958
H37   H     H_    0.497654 0.116641 0.695787 0.051805
H38   H     H_    0.475393 0.895597 0.692804 -0.014998

loop_
_geom_bond_atom_site_label_1
_geom_bond_atom_site_label_2
_ccdc_geom_bond_type
C7    C10   S    
C27   H28   S    
C1    C8    S    
O10   C29   S    
C4    C8    S    
C6    C9    S    
C7    C8    S    
C15   H37   S    
C4    H20   S    
C30   H34   S    
C5    H21   S    
C3    H17   S    
C6    H22   S    
C15   N1    S    
C1    O2    A    
C24   C26   S    
C7    H26   S    
N1    Zn2   S    
C27   C28   S    
N2    Zn1   S    
C19   O8    A    
C15   C16   S    
C15   O9    S    
O7    Zn1   S    
C28   H30   S    
O8    Zn2   S    
C20   C24   S    
C11   H4    S    
C29   C30   S    
O1    Zn1   S    
C23   C24   S    
O2    Zn2   S    
C9    C10   S    
C11   N1    S    
C17   O4    A    
C27   H27   S    
C13   C14   S    
C2    C17   S    
C5    H23   S    
O3    Zn1   S    
C13   N1    S    
C30   H35   S    
O4    Zn2   S    
C29   H32   S    
C2    C20   S    
C16   O10   S    
C13   H10   S    
C4    C6    S    
C3    C8    S    
C25   H15   S    
C14   H9    S    
C4    H18   S    
C25   C26   S    
C3    H19   S    
C28   H31   S    
C19   C23   S    
C5    C9    S    
C20   H12   S    
C9    C18   S    
C21   H13   S    
C2    C21   S    
C16   H38   S    
C2    C26   S    
C6    H24   S    
C29   H33   S    
C18   O6    A    
C14   N2    S    
C20   C22   S    
C11   H6    S    
C22   H1    S    
C12   H5    S    
C26   H16   S    
C30   H36   S    
C10   H2    S    
C21   C25   S    
C3    C5    S    
C11   C12   S    
O5    Zn1   S    
O6    Zn2   S    
C1    O1    A    
C7    H25   S    
C13   H8    S    
C14   H11   S    
C10   H3    S    
C19   O7    A    
C24   H14   S    
C23   C25   S    
C28   H29   S    
C16   N2    S    
C18   O5    A    
O9    C27   S    
C22   C23   S    
C12   H7    S    
C21   C22   S    
C12   N2    S    
C17   O3    A    
