data_mof_unit_7257.cif
_audit_creation_date              2012-12-11T15:20:42-0500
_audit_creation_method            fapswitch 2.2
_symmetry_space_group_name_H-M    P1
_symmetry_Int_Tables_number       1
_space_group_crystal_system       triclinic
_cell_length_a                    12.923411
_cell_length_b                    13.01948
_cell_length_c                    15.4274
_cell_angle_alpha                 116.495726
_cell_angle_beta                  63.698186
_cell_angle_gamma                 97.111462
_cell_volume                      2073.76069703

loop_
_atom_site_label
_atom_site_type_symbol
_atom_type_description
_atom_site_fract_x
_atom_site_fract_y
_atom_site_fract_z
_atom_type_partial_charge
C1    C     C_R   0.006830 0.834550 0.046065 0.480903
C2    C     C_R   0.307668 0.580755 0.786459 -0.107044
C3    C     C_R   0.259286 0.415353 0.047166 -0.177382
C4    C     C_R   0.678222 0.474906 0.218756 -0.079327
C5    C     C_R   0.056995 0.278509 0.685849 -0.139927
C6    C     C_R   0.362441 0.432423 0.974167 0.157065
C7    C     C_R   0.044971 0.169719 0.681373 0.136972
C8    C     C_R   0.307495 0.545095 0.688652 0.163165
C9    C     C_R   0.008959 0.151957 0.043352 0.035205
C10   C     C_R   0.163614 0.956319 0.394790 0.561042
C11   C     C_R   0.160460 0.043075 0.491355 -0.385582
C12   C     C_R   0.671061 0.548649 0.319512 0.097264
C13   C     C_R   0.059820 0.068097 0.586551 0.028409
C14   C     C_R   0.962849 0.007712 0.589051 -0.354539
C15   C     C_R   0.963362 0.923423 0.495879 0.570956
C16   C     C_R   0.756300 0.514527 0.890616 -0.036921
C17   C     C_R   0.065965 0.893426 0.399776 -0.199263
C18   C     C_R   0.597999 0.510791 0.473001 -0.404797
C19   C     C_R   0.511604 0.512941 0.567022 0.583460
C20   C     C_R   0.399992 0.556275 0.599600 -0.084335
C21   C     C_R   0.376718 0.605096 0.544851 -0.407001
C22   C     C_R   0.465855 0.608017 0.453058 0.581000
C23   C     C_R   0.663411 0.454126 0.923471 0.103152
C24   C     C_R   0.576170 0.559199 0.417627 -0.081527
C25   C     C_2   0.476160 0.387385 0.944063 -0.181190
C26   C     C_2   0.569557 0.430594 0.892757 -0.222478
C27   C     C_2   0.841616 0.962270 0.080839 -0.118867
C28   C     C_R   0.013403 0.700455 0.302386 0.572703
C29   C     C_2   0.820873 0.041075 0.180582 -0.156733
C30   C     C_R   0.676548 0.420024 0.990149 -0.128559
C31   C     C_R   0.091983 0.801955 0.209947 -0.146215
C32   C     C_R   0.781411 0.564407 0.312262 -0.186372
C33   C     C_R   0.908175 0.750660 0.950019 0.450761
C34   C     C_R   0.065135 0.799567 0.305431 -0.074320
C35   C     C_R   0.920288 0.856379 0.024249 -0.191563
C36   C     C_3   0.157810 0.946650 0.024130 0.185218
C37   C     C_3   0.270892 0.881779 0.989598 -0.329344
C38   C     C_3   0.369511 0.890957 0.891973 -1.028089
C39   C     C_3   0.310819 0.022600 0.278471 0.174157
C40   C     C_3   0.225265 0.102425 0.285813 -0.355239
C41   C     C_3   0.288865 0.182025 0.234215 -1.023064
C42   C     C_3   0.799704 0.918652 0.471298 0.175014
C43   C     C_3   0.715844 0.020776 0.570293 -0.331193
C44   C     C_3   0.629279 0.058887 0.545587 -0.987158
C45   C     C_R   0.339118 0.515365 0.950932 -0.088825
C46   C     C_3   0.621549 0.496990 0.646325 0.209139
C47   C     C_3   0.697015 0.395909 0.620465 -0.278725
C48   C     C_3   0.767678 0.325014 0.499493 -0.877117
C49   C     C_3   0.474934 0.756644 0.410575 0.128539
C50   C     C_3   0.469974 0.785896 0.326818 -0.206116
C51   C     C_3   0.511839 0.903993 0.337846 -1.001077
C52   C     C_3   0.101339 0.620805 0.361132 0.198922
C53   C     C_3   0.085912 0.523687 0.394613 -0.310861
C54   C     C_3   0.197608 0.490246 0.390126 -0.993307
C55   C     C_3   0.884907 0.765639 0.818950 0.193890
C56   C     C_R   0.975236 0.179487 0.783234 -0.151397
C57   C     C_3   0.813158 0.728214 0.755031 -0.354355
C58   C     C_3   0.852460 0.778370 0.674128 -0.907800
C59   C     C_R   0.205331 0.498565 0.691554 -0.167926
C60   C     C_R   0.052266 0.255246 0.087571 -0.122105
C61   C     C_R   0.951760 0.171705 0.993654 -0.112590
H1    H     H_    0.941991 0.110265 0.805362 0.095615
H2    H     H_    0.630265 0.357670 0.018091 0.090081
H3    H     H_    0.147250 0.859089 0.180863 0.194827
H4    H     H_    0.804233 0.611256 0.378174 0.183648
H5    H     H_    0.399183 0.554438 0.902100 0.090768
H6    H     H_    0.165584 0.040294 0.064764 0.131137
H7    H     H_    0.146187 0.932685 0.952099 0.091904
H8    H     H_    0.296128 0.917869 0.056839 0.202382
H9    H     H_    0.257752 0.789912 0.970296 0.203059
H10   H     H_    0.348955 0.850653 0.821689 0.268420
H11   H     H_    0.450472 0.845258 0.870817 0.265482
H12   H     H_    0.089336 0.274392 0.143011 0.087775
H13   H     H_    0.383943 0.982790 0.910282 0.271190
H14   H     H_    0.172992 0.475210 0.632040 0.104538
H15   H     H_    0.248564 0.360892 0.086025 0.103355
H16   H     H_    0.098870 0.300692 0.619214 0.101563
H17   H     H_    0.382430 0.987423 0.195634 0.140096
H18   H     H_    0.352909 0.071977 0.332112 0.103684
H19   H     H_    0.171708 0.050740 0.244718 0.222090
H20   H     H_    0.165965 0.156236 0.371490 0.194338
H21   H     H_    0.340162 0.238157 0.276343 0.278562
H22   H     H_    0.224840 0.237001 0.239802 0.274386
H23   H     H_    0.895853 0.113890 0.962829 0.080732
H24   H     H_    0.347647 0.130916 0.147772 0.266736
H25   H     H_    0.233682 0.092464 0.493674 0.149674
H26   H     H_    0.882972 0.031093 0.662407 0.148635
H27   H     H_    0.607604 0.439520 0.198207 0.114187
H28   H     H_    0.748641 0.851046 0.437419 0.126985
H29   H     H_    0.855990 0.945585 0.406898 0.083642
H30   H     H_    0.667518 0.995882 0.637138 0.217523
H31   H     H_    0.765513 0.094670 0.596907 0.194117
H32   H     H_    0.675408 0.081271 0.476968 0.273324
H33   H     H_    0.573257 0.135838 0.617294 0.279046
H34   H     H_    0.369351 0.632701 0.812701 0.097932
H35   H     H_    0.573262 0.988939 0.525684 0.262076
H36   H     H_    0.681878 0.466455 0.440261 0.179347
H37   H     H_    0.582716 0.552210 0.734471 0.045947
H38   H     H_    0.678071 0.552220 0.609311 0.076718
H39   H     H_    0.757683 0.429667 0.657970 0.133515
H40   H     H_    0.641228 0.339003 0.655121 0.215340
H41   H     H_    0.709409 0.287570 0.459690 0.280260
H42   H     H_    0.821219 0.253375 0.484888 0.241615
H43   H     H_    0.826413 0.379632 0.463552 0.239630
H44   H     H_    0.289684 0.639593 0.573200 0.156598
H45   H     H_    0.479446 0.340097 0.985615 0.125947
H46   H     H_    0.565008 0.764223 0.403354 0.093943
H47   H     H_    0.414173 0.819384 0.492559 0.107059
H48   H     H_    0.525715 0.719586 0.244792 0.208325
H49   H     H_    0.379412 0.784764 0.336369 0.214991
H50   H     H_    0.454685 0.972464 0.417658 0.267315
H51   H     H_    0.509960 0.920654 0.273988 0.277120
H52   H     H_    0.602391 0.906848 0.328338 0.265865
H53   H     H_    0.126861 0.697552 0.416200 0.113681
H54   H     H_    0.172140 0.590349 0.277423 0.095264
H55   H     H_    0.016067 0.551801 0.477960 0.211210
H56   H     H_    0.566867 0.474265 0.848488 0.122093
H57   H     H_    0.059997 0.447056 0.339901 0.197174
H58   H     H_    0.266918 0.455077 0.306148 0.279211
H59   H     H_    0.182506 0.424023 0.420245 0.268473
H60   H     H_    0.226055 0.566961 0.441595 0.289521
H61   H     H_    0.975260 0.724361 0.762465 0.079131
H62   H     H_    0.886332 0.861035 0.852661 0.094769
H63   H     H_    0.822380 0.632700 0.710972 0.181106
H64   H     H_    0.720099 0.757306 0.811058 0.210296
H65   H     H_    0.835557 0.873676 0.717259 0.255221
H66   H     H_    0.803388 0.744129 0.624866 0.288938
H67   H     H_    0.791387 0.972885 0.044264 0.138979
H68   H     H_    0.946449 0.754730 0.619743 0.264000
H69   H     H_    0.863323 0.033963 0.224838 0.172453
H70   H     H_    0.780559 0.536685 0.825009 0.114006
N1    N     N_R   0.037310 0.720000 0.995790 -0.127690
N2    N     N_R   0.824890 0.517960 0.936420 -0.039966
N3    N     N_R   0.003210 0.648190 0.211380 -0.105672
N4    N     N_R   0.774330 0.457010 0.995840 -0.053725
N5    N     N_R   0.053760 0.709140 0.151960 -0.080265
N6    N     N_R   0.853860 0.498840 0.211410 -0.037623
N7    N     N_R   0.974240 0.667310 0.936390 -0.122459
N8    N     N_R   0.225670 0.542990 0.004160 -0.051937
N9    N     N_R   0.946240 0.290860 0.848040 -0.043241
N10   N     N_R   0.146140 0.501160 0.788590 -0.041596
N11   N     N_R   0.025760 0.332690 0.063610 -0.034429
N12   N     N_R   0.962690 0.280000 0.004210 -0.038860
N13   N     N_R   0.209210 0.553840 0.847990 -0.050917
N14   N     N_R   0.175110 0.482040 0.063580 -0.048985
N15   N     N_R   0.996790 0.351810 0.788620 -0.043886
N16   N     N_R   0.790790 0.446160 0.152010 -0.052464
Ni1   Ni    Ni4+2 0.130310 0.630310 0.999970 0.194642
Ni2   Ni    Ni4+2 0.869690 0.369690 0.000030 0.204001
Ni3   Ni    Ni4+2 0.985640 0.509470 0.863740 0.207303
Ni4   Ni    Ni4+2 0.014360 0.490530 0.136260 0.225302
O1    O     O_3   0.062721 0.917550 0.099180 -0.689076
O2    O     O_3   0.260574 0.926143 0.296089 -0.671951
O3    O     O_3   0.863116 0.869019 0.500406 -0.648823
O4    O     O_3   0.529900 0.454710 0.616418 -0.639066
O5    O     O_3   0.441629 0.644071 0.391685 -0.671479
O6    O     O_3   0.994717 0.649266 0.368986 -0.670933
O7    O     O_3   0.834377 0.731400 0.902846 -0.661485

loop_
_geom_bond_atom_site_label_1
_geom_bond_atom_site_label_2
_ccdc_geom_bond_type
C46   H38   S    
C51   H51   S    
C47   H40   S    
C6    C45   A    
C37   H8    S    
C27   C29   D    
C2    N13   A    
C49   O5    S    
C19   C20   A    
C26   H56   S    
C45   N8    A    
N13   Ni1   S    
C1    N1    A    
N5    Ni1   S    
C36   H6    S    
C49   H46   S    
C22   O5    S    
C53   C54   S    
N7    Ni3   S    
C46   O4    S    
C51   H52   S    
C39   O2    S    
C28   N3    A    
C36   C37   S    
N16   Ni2   S    
C14   H26   S    
C54   H59   S    
C8    C59   A    
C57   H64   S    
C56   N9    A    
C6    C25   S    
C41   H21   S    
C58   H68   S    
N1    N7    A    
C41   H22   S    
C60   H12   S    
C50   H49   S    
C19   O4    S    
C1    O1    S    
C18   C19   A    
C46   C47   S    
C23   C26   S    
C49   C50   S    
C16   H70   S    
C4    N16   A    
C15   O3    S    
C44   H32   S    
C60   N11   A    
N15   Ni3   S    
C61   N12   A    
C55   O7    S    
C29   H69   S    
C25   H45   S    
C40   H19   S    
C18   C24   A    
C18   H36   S    
C13   C14   A    
C4    C12   A    
C53   H55   S    
C3    C6    A    
C46   H37   S    
C55   H61   S    
C28   C34   A    
C58   H66   S    
C54   H58   S    
C12   C32   A    
C7    C56   A    
C16   N2    A    
C31   H3    S    
C10   O2    S    
N10   Ni3   S    
C49   H47   S    
C55   H62   S    
C38   H11   S    
N8    Ni1   S    
N1    Ni1   S    
C23   C30   A    
N10   N13   A    
N9    N15   A    
C39   C40   S    
C5    C7    A    
C53   H57   S    
C36   O1    S    
N3    N5    A    
C27   C35   S    
C25   C26   D    
N4    Ni2   S    
C48   H42   S    
C50   H48   S    
C43   H30   S    
C47   H39   S    
C42   H29   S    
C39   H18   S    
N11   Ni4   S    
C43   C44   S    
C39   H17   S    
C37   C38   S    
C44   H35   S    
C27   H67   S    
C47   C48   S    
C7    C13   S    
C33   N7    A    
C48   H41   S    
C50   C51   S    
C31   C34   A    
C8    C20   S    
C52   C53   S    
C3    H15   S    
N14   Ni4   S    
C40   C41   S    
C54   H60   S    
C58   H65   S    
C16   C23   A    
C55   C57   S    
C56   H1    S    
C42   C43   S    
C5    H16   S    
C10   C17   A    
C59   H14   S    
C33   O7    S    
C1    C35   A    
C38   H13   S    
C52   H54   S    
C52   O6    S    
C15   C17   A    
C38   H10   S    
N8    N14   A    
C51   H50   S    
C5    N15   A    
C42   O3    S    
N11   N12   A    
C40   H20   S    
N6    N16   A    
C2    C8    A    
N2    Ni3   S    
C31   N5    A    
C61   H23   S    
C2    H34   S    
C36   H7    S    
C3    N14   A    
C4    H27   S    
C52   H53   S    
C41   H24   S    
C12   C24   S    
C43   H31   S    
C9    C60   A    
C37   H9    S    
C42   H28   S    
C32   N6    A    
C57   H63   S    
C11   C13   A    
C57   C58   S    
N3    Ni4   S    
C30   H2    S    
C28   O6    S    
C33   C35   A    
C9    C61   A    
C22   C24   A    
C44   H33   S    
C10   C11   A    
N12   Ni2   S    
C20   C21   A    
C59   N10   A    
C30   N4    A    
C17   C34   S    
C45   H5    S    
N2    N4    A    
C14   C15   A    
N6    Ni4   S    
C11   H25   S    
C21   C22   A    
N9    Ni2   S    
C21   H44   S    
C32   H4    S    
C48   H43   S    
