data_mof_unit_14877.cif
_audit_creation_date              2012-12-10T17:28:32-0500
_audit_creation_method            fapswitch 2.2
_symmetry_space_group_name_H-M    P1
_symmetry_Int_Tables_number       1
_space_group_crystal_system       triclinic
_cell_length_a                    10.607156
_cell_length_b                    11.941039
_cell_length_c                    12.789423
_cell_angle_alpha                 94.102908
_cell_angle_beta                  89.922263
_cell_angle_gamma                 85.169027
_cell_volume                      1609.97820835

loop_
_atom_site_label
_atom_site_type_symbol
_atom_type_description
_atom_site_fract_x
_atom_site_fract_y
_atom_site_fract_z
_atom_type_partial_charge
C1    C     C_R   0.500557 0.522892 0.700376 0.918361
C2    C     C_R   0.417394 0.521629 0.128747 0.077404
C3    C     C_R   0.556001 0.470690 0.977274 0.103672
C4    C     C_R   0.443999 0.529310 0.022725 0.103672
C5    C     C_R   0.368949 0.957292 0.414791 -0.284373
C6    C     C_R   0.631051 0.042708 0.585209 -0.284374
C7    C     C_R   0.383147 0.840317 0.421656 0.042020
C8    C     C_R   0.616853 0.159683 0.578344 0.042021
C9    C     C_R   0.558793 0.856574 0.534781 -0.012749
C10   C     C_R   0.441207 0.143426 0.465219 -0.012749
C11   C     C_R   0.548130 0.974590 0.530490 0.106848
C12   C     C_R   0.499443 0.477108 0.299624 0.918361
C13   C     C_R   0.451870 0.025410 0.469509 0.106848
C14   C     C_R   0.740062 0.496424 0.484421 0.897167
C15   C     C_R   0.259937 0.503576 0.515579 0.897168
C16   C     C_R   0.911431 0.282909 0.480420 -0.152593
C17   C     C_R   0.088569 0.717091 0.519580 -0.152593
C18   C     C_R   0.976285 0.192964 0.526656 -0.181507
C19   C     C_R   0.023715 0.807035 0.473344 -0.181507
C20   C     C_R   0.082186 0.211085 0.587520 0.202133
C21   C     C_R   0.917814 0.788914 0.412479 0.202133
C22   C     C_R   0.128717 0.317188 0.594795 -0.144052
C23   C     C_R   0.505976 0.461415 0.188493 -0.081334
C24   C     C_R   0.871283 0.682812 0.405205 -0.144053
C25   C     C_R   0.068333 0.407073 0.541988 0.051978
C26   C     C_R   0.931667 0.592927 0.458012 0.051979
C27   C     C_R   0.950877 0.393407 0.495841 0.105757
C28   C     C_R   0.049123 0.606593 0.504159 0.105757
C29   C     C_R   0.123485 0.509300 0.532235 -0.225442
C30   C     C_R   0.876515 0.490700 0.467765 -0.225441
C31   C     C_R   0.494024 0.538585 0.811507 -0.081335
C32   C     C_R   0.362744 0.595804 0.961514 -0.146069
C33   C     C_R   0.637255 0.404197 0.038486 -0.146069
C34   C     C_R   0.387501 0.599785 0.856181 -0.240755
C35   C     C_R   0.612499 0.400215 0.143819 -0.240755
C36   C     C_R   0.582606 0.478371 0.871253 0.077404
H1    H     H_    0.293560 0.994043 0.367770 0.163539
H2    H     H_    0.318557 0.787790 0.380299 0.168983
H3    H     H_    0.831736 0.264615 0.431294 0.174609
H4    H     H_    0.168264 0.735385 0.568706 0.174609
H5    H     H_    0.211594 0.329067 0.642300 0.171306
H6    H     H_    0.788406 0.670933 0.357700 0.171306
H7    H     H_    0.278383 0.643319 0.992969 0.190254
H8    H     H_    0.721616 0.356682 0.007031 0.190254
H9    H     H_    0.706440 0.005957 0.632230 0.163539
H10   H     H_    0.942763 0.109754 0.516605 0.171870
H11   H     H_    0.057237 0.890246 0.483395 0.171870
H12   H     H_    0.679993 0.353953 0.191729 0.163742
H13   H     H_    0.320007 0.646048 0.808271 0.163742
H14   H     H_    0.368189 0.184104 0.418498 0.140656
H15   H     H_    0.631811 0.815896 0.581502 0.140656
H16   H     H_    0.681443 0.212209 0.619701 0.168983
I1    I     I_    0.825402 0.922524 0.335109 -0.402996
I2    I     I_    0.174598 0.077475 0.664891 -0.402996
I3    I     I_    0.243370 0.595734 0.200955 -0.366858
I4    I     I_    0.756629 0.404265 0.799045 -0.366858
N1    N     N_R   0.523130 0.207800 0.519340 -0.110645
N2    N     N_R   0.476870 0.792200 0.480660 -0.110645
O1    O     O_R   0.506170 0.421700 0.658830 -0.601185
O2    O     O_R   0.493830 0.578300 0.341170 -0.601185
O3    O     O_R   0.491330 0.609310 0.646410 -0.621894
O4    O     O_R   0.508670 0.390690 0.353590 -0.621894
O5    O     O_R   0.690650 0.406190 0.506220 -0.620572
O6    O     O_R   0.309350 0.593810 0.493780 -0.620572
O7    O     O_R   0.675800 0.593810 0.493800 -0.620179
O8    O     O_R   0.324200 0.406190 0.506200 -0.620178
Zn1   Zn    Zn3+2 0.509910 0.374730 0.508290 0.962903
Zn2   Zn    Zn3+2 0.490090 0.625270 0.491710 0.962903

loop_
_geom_bond_atom_site_label_1
_geom_bond_atom_site_label_2
_ccdc_geom_bond_type
C2    C4    A    
C15   O6    A    
C20   I2    S    
C15   C29   S    
C19   C21   A    
C36   I4    S    
C6    H9    S    
C5    H1    S    
C8    N1    A    
C25   C27   A    
C12   O4    A    
C8    H16   S    
C7    N2    A    
C5    C13   A    
C9    H15   S    
C17   H4    S    
C9    C11   A    
O7    Zn2   S    
O1    Zn1   S    
C16   C27   A    
C6    C8    A    
O8    Zn1   S    
C31   C34   A    
C15   O8    A    
C27   C30   A    
C21   I1    S    
C11   C13   A    
O3    Zn2   S    
C4    C32   A    
C3    C36   A    
N1    Zn1   S    
C6    C11   A    
C14   O5    A    
O6    Zn2   S    
N2    Zn2   S    
C28   C29   A    
C17   C19   A    
C7    H2    S    
C20   C22   A    
C26   C30   A    
C23   C35   A    
C2    I3    S    
C1    O1    A    
C25   C29   A    
O5    Zn1   S    
C21   C24   A    
C22   H5    S    
O4    Zn1   S    
C35   H12   S    
C16   H3    S    
C1    O3    A    
C3    C4    A    
C12   O2    A    
C22   C25   A    
C18   H10   S    
C1    C31   S    
C10   N1    A    
C24   H6    S    
O2    Zn2   S    
C18   C20   A    
C16   C18   A    
C9    N2    A    
C19   H11   S    
C2    C23   A    
C5    C7    A    
C3    C33   A    
C31   C36   A    
C34   H13   S    
C12   C23   S    
C33   C35   A    
C32   C34   A    
C14   C30   S    
C17   C28   A    
C26   C28   A    
C32   H7    S    
C24   C26   A    
C14   O7    A    
C33   H8    S    
C10   C13   A    
C10   H14   S    
