data_mof_unit_51070.cif
_audit_creation_date              2013-03-05T15:55:18-0500
_audit_creation_method            fapswitch 2.2
_symmetry_space_group_name_H-M    P1
_symmetry_Int_Tables_number       1
_space_group_crystal_system       triclinic
_cell_length_a                    27.751256
_cell_length_b                    10.701036
_cell_length_c                    9.910404
_cell_angle_alpha                 91.560765
_cell_angle_beta                  91.846252
_cell_angle_gamma                 92.477131
_cell_volume                      2937.58015177

loop_
_atom_site_label
_atom_site_type_symbol
_atom_site_description
_atom_site_fract_x
_atom_site_fract_y
_atom_site_fract_z
_atom_type_partial_charge
O1    O     O_R   0.500000 0.316780 0.614690 -0.643416
O2    O     O_R   0.500000 0.316750 0.385360 -0.615437
C1    C     C_R   0.504972 0.261739 0.498893 0.860991
O3    O     O_R   0.428760 0.500030 0.614650 -0.636034
O4    O     O_R   0.428750 0.500010 0.385320 -0.626855
C2    C     C_R   0.406201 0.500924 0.498118 0.858445
Zn1   Zn    Zn3+2 0.500000 0.500020 0.653130 0.929928
Zn2   Zn    Zn3+2 0.500000 0.499980 0.346870 0.952017
O5    O     O_R   0.500000 0.683250 0.614640 -0.633289
O6    O     O_R   0.500000 0.683220 0.385310 -0.618911
O7    O     O_R   0.571250 0.499990 0.614680 -0.618502
O8    O     O_R   0.571240 0.499970 0.385350 -0.614871
C3    C     C_R   0.498635 0.740617 0.502986 0.889521
C4    C     C_R   0.594112 0.499230 0.502206 0.886376
C5    C     C_R   0.176802 0.394117 0.457693 0.506196
O9    O     O_2   0.200374 0.287624 0.438234 -0.548938
N1    N     N_R   0.202198 0.504951 0.479102 -0.357640
C6    C     C_R   0.180154 0.615405 0.497416 0.501825
C7    C     C_R   0.279293 0.545509 0.373611 -0.095837
C8    C     C_R   0.329330 0.544483 0.378171 -0.225858
C9    C     C_R   0.327633 0.463269 0.604789 -0.216030
C10   C     C_R   0.277582 0.464114 0.599807 -0.098963
C11   C     C_R   0.253507 0.505005 0.484208 0.322576
C12   C     C_R   0.102344 0.502616 0.476077 -0.063796
C13   C     C_R   0.126523 0.390628 0.455984 -0.014937
C14   C     C_R   0.100225 0.277436 0.433834 -0.131954
C15   C     C_R   0.129287 0.617589 0.496280 -0.066597
C16   C     C_R   0.353730 0.502770 0.493574 -0.033290
H1    H     H_    0.345831 0.430611 0.694663 0.155101
H2    H     H_    0.257418 0.432976 0.685354 0.139190
H3    H     H_    0.118096 0.191034 0.414274 0.196381
C17   C     C_R   0.647170 0.494363 0.504748 -0.107847
C18   C     C_R   0.974196 0.377777 0.476489 -0.000480
C19   C     C_R   0.975657 0.607852 0.481359 0.067885
C20   C     C_R   0.949566 0.490547 0.480447 0.070296
C21   C     C_R   0.947521 0.263805 0.488514 -0.206825
C22   C     C_R   0.897274 0.257914 0.494672 0.190577
C23   C     C_R   0.871916 0.370346 0.490024 -0.047686
C24   C     C_R   0.898493 0.486418 0.483658 -0.091660
C25   C     C_R   0.874011 0.599312 0.480617 -0.011522
C26   C     C_R   0.823871 0.595822 0.483883 0.507813
N2    N     N_R   0.798831 0.484127 0.489532 -0.352460
C27   C     C_R   0.821012 0.372893 0.492810 0.514550
C28   C     C_R   0.725975 0.489461 0.617475 -0.147607
C29   C     C_R   0.675953 0.494477 0.626205 0.154418
C30   C     C_R   0.669659 0.487947 0.379479 -0.256427
C31   C     C_R   0.719477 0.482668 0.372049 0.236957
C32   C     C_R   0.747545 0.484100 0.492410 0.287976
O10   O     O_2   0.793383 0.266538 0.497987 -0.555134
C33   C     C_R   0.024942 0.382041 0.463513 0.060543
C34   C     C_R   0.051218 0.498851 0.476315 0.075226
C35   C     C_R   0.026764 0.611518 0.489766 0.033078
C36   C     C_R   0.050389 0.273047 0.436859 -0.222160
H4    H     H_    0.748833 0.490592 0.708322 0.144835
H5    H     H_    0.965429 0.177015 0.498184 0.140617
H6    H     H_    0.032742 0.182863 0.414176 0.140495
O11   O     O_2   0.207735 0.721599 0.517488 -0.544714
C37   C     C_R   0.104377 0.728857 0.516410 0.007375
H7    H     H_    0.348873 0.577477 0.292311 0.154250
H8    H     H_    0.260483 0.577521 0.284456 0.139326
C38   C     C_R   0.949642 0.718009 0.472782 -0.220661
C39   C     C_R   0.899805 0.713586 0.472990 -0.139221
O12   O     O_2   0.800014 0.703164 0.481309 -0.551753
C40   C     C_R   0.054178 0.724508 0.513501 -0.259952
H9    H     H_    0.966673 0.809447 0.461982 0.137547
H10   H     H_    0.648481 0.486986 0.285585 0.190295
H11   H     H_    0.881528 0.800845 0.467080 0.186605
H12   H     H_    0.037325 0.811510 0.534960 0.137916
H13   H     H_    0.485899 0.105213 0.289814 0.170571
C41   C     C_R   0.553265 0.137171 0.722617 -0.238426
H14   H     H_    0.570523 0.228165 0.706893 0.164222
C42   C     C_R   0.556300 0.087858 0.851070 0.064521
C43   C     C_R   0.532950 0.971899 0.874310 0.202782
C44   C     C_R   0.511922 0.901324 0.764206 -0.216207
H15   H     H_    0.492237 0.816308 0.787588 0.185298
C45   C     C_R   0.512741 0.946510 0.630747 0.055992
C46   C     C_R   0.527063 0.071906 0.616088 0.080481
C47   C     C_R   0.512398 0.130365 0.496960 -0.086179
C48   C     C_R   0.496044 0.061097 0.382605 -0.216704
H16   H     H_    0.479029 0.882124 0.296660 0.172478
C49   C     C_R   0.490738 0.934038 0.388193 -0.213993
C50   C     C_R   0.498702 0.875236 0.510612 -0.102155
H17   H     H_    0.545653 0.660986 0.134345 0.156344
C51   C     C_R   0.450033 0.297541 0.122291 0.209186
C52   C     C_R   0.444160 0.186519 0.043562 -0.218550
H18   H     H_    0.429954 0.101410 0.087478 0.154477
C53   C     C_R   0.439708 0.194981 0.904860 -0.208909
H19   H     H_    0.424793 0.116273 0.843830 0.168579
C54   C     C_R   0.449656 0.309081 0.846883 -0.143020
H20   H     H_    0.437052 0.319149 0.744991 0.202523
C55   C     C_R   0.474942 0.405663 0.921551 0.137738
C56   C     C_R   0.475033 0.403299 0.065916 0.139746
N3    N     N_R   0.499540 0.498800 0.142780 -0.113314
C57   C     C_R   0.525023 0.588760 0.076554 -0.116265
H21   H     H_    0.546291 0.659694 0.883807 0.154525
C58   C     C_R   0.525252 0.588222 0.933504 -0.142701
N4    N     N_R   0.499520 0.498720 0.857170 -0.116812
C59   C     C_1   0.128413 0.850473 0.541134 0.266412
N5    N     N_1   0.147396 0.948025 0.560954 -0.156580
C60   C     C_3   0.741229 0.476175 0.234786 -0.853648
H22   H     H_    0.726099 0.391885 0.177746 0.244593
H23   H     H_    0.732224 0.560641 0.178082 0.240513
H24   H     H_    0.781046 0.470844 0.240086 0.239608
C61   C     C_1   0.580192 0.162226 0.959394 0.166396
N6    N     N_1   0.599208 0.222048 0.046175 -0.200582
C62   C     C_3   0.529754 0.923799 0.015289 -0.947972
H25   H     H_    0.515403 0.996459 0.082985 0.249935
H26   H     H_    0.505019 0.839889 0.018672 0.231907
H27   H     H_    0.566140 0.900058 0.053768 0.251132
C63   C     C_3   0.407102 0.313446 0.208857 -0.784713
H28   H     H_    0.392794 0.407330 0.194587 0.238727
H29   H     H_    0.375957 0.249268 0.176455 0.210240
H30   H     H_    0.415353 0.289537 0.314666 0.251563
C64   C     C_3   0.655323 0.500408 0.765298 -0.827482
H31   H     H_    0.683959 0.500854 0.846321 0.224188
H32   H     H_    0.635577 0.587687 0.778919 0.248194
H33   H     H_    0.630920 0.417243 0.779876 0.248798
C65   C     C_3   0.872797 0.129693 0.506843 -0.757651
H34   H     H_    0.898976 0.054117 0.511260 0.191810
H35   H     H_    0.852391 0.125877 0.601285 0.267657
H36   H     H_    0.848470 0.107825 0.417420 0.270864

loop_
_geom_bond_atom_site_label_1
_geom_bond_atom_site_label_2
_geom_bond_distance
_ccdc_geom_bond_type
C53   H19   1.082835 S    
N3    C57   1.364942 A    
C26   N2    1.359776 A    
C20   C24   1.417548 A    
C7    C8    1.388422 A    
C37   C59   1.447660 S    
C12   C15   1.417842 A    
C64   H31   1.111142 S    
C46   C47   1.407861 A    
Zn1   O7    2.025691 S    
N1    C11   1.423149 S    
C44   C45   1.421097 A    
C39   H11   1.083804 S    
C40   H12   1.078898 S    
C21   C22   1.396468 A    
C30   H10   1.084037 S    
C23   C24   1.420850 A    
H16   C49   1.083990 S    
O7    C4    1.300216 A    
C5    C13   1.393718 A    
C62   H25   1.108515 S    
C5    O9    1.350694 S    
C18   C21   1.408988 A    
C25   C39   1.395113 A    
C5    N1    1.361176 A    
C19   C20   1.421434 A    
C43   C44   1.406256 A    
O5    C3    1.280247 A    
C65   H34   1.111056 S    
C60   H22   1.110689 S    
C63   H28   1.107075 S    
C29   C64   1.510358 S    
C2    C16   1.456400 S    
C22   C65   1.514057 S    
H21   C58   1.081138 S    
C12   C13   1.411076 A    
C41   H14   1.083773 S    
C54   C55   1.403696 A    
Zn1   N4    2.023014 S    
C12   C34   1.417729 A    
C14   H3    1.083730 S    
C9    C10   1.388699 A    
C41   C46   1.413352 A    
O3    Zn1   2.001352 S    
C61   N6    1.157381 T    
C33   C34   1.420180 A    
C63   H29   1.113836 S    
C52   C53   1.381943 A    
C37   C40   1.391185 A    
C33   C36   1.412533 A    
C44   H15   1.075380 S    
C6    C15   1.412514 A    
C34   C35   1.414100 A    
C51   C52   1.404054 A    
C45   C46   1.395686 A    
O3    C2    1.296258 A    
C35   C40   1.410494 A    
C45   C50   1.430365 A    
C55   C56   1.431549 A    
C48   C49   1.364100 A    
C47   C48   1.389889 A    
C27   O10   1.347629 S    
C42   C61   1.444770 S    
C51   C63   1.503252 S    
C18   C33   1.417135 A    
C52   H18   1.084403 S    
H17   C57   1.081510 S    
C9    H1    1.083385 S    
C3    C50   1.440408 S    
O6    C3    1.305598 A    
C60   H24   1.108550 S    
C49   C50   1.397510 A    
C31   C60   1.507016 S    
O1    C1    1.289700 A    
C65   H36   1.110133 S    
C7    C11   1.396731 A    
C22   C23   1.420925 A    
C28   H4    1.084013 S    
C6    O11   1.348882 S    
C31   C32   1.402824 A    
Zn2   O8    2.001349 S    
C58   N4    1.366065 A    
C60   H23   1.110584 S    
N1    C6    1.364625 A    
C17   C29   1.422961 A    
N2    C32   1.424432 S    
C55   N4    1.366711 A    
C8    H7    1.082767 S    
C57   C58   1.417764 A    
C63   H30   1.105295 S    
C25   C26   1.391764 A    
C9    C16   1.402960 A    
O8    C4    1.302948 A    
C53   C54   1.384364 A    
H13   C48   1.079934 S    
N2    C27   1.364169 A    
C26   O12   1.350810 S    
C14   C36   1.383098 A    
C24   C25   1.411941 A    
C28   C29   1.396885 A    
C36   H6    1.077939 S    
Zn1   O5    2.007684 S    
C30   C31   1.390326 A    
C10   H2    1.082944 S    
O1    Zn1   1.987310 S    
C17   C30   1.408702 A    
O2    Zn2   2.007682 S    
Zn2   N3    2.021935 S    
C4    C17   1.475030 S    
C42   C43   1.403005 A    
C15   C37   1.415103 A    
O4    Zn2   2.025694 S    
C64   H32   1.110379 S    
C7    H8    1.082923 S    
C8    C16   1.403497 A    
C19   C35   1.416836 A    
O2    C1    1.290222 A    
C13   C14   1.395269 A    
C23   C27   1.415222 A    
C21   H5    1.077229 S    
C43   C62   1.506011 S    
O4    C2    1.298582 A    
C62   H26   1.108350 S    
C56   N3    1.396890 A    
C18   C20   1.412583 A    
C19   C38   1.411766 A    
C38   C39   1.381859 A    
C65   H35   1.110222 S    
C64   H33   1.110281 S    
C38   H9    1.077615 S    
Zn2   O6    1.987309 S    
C59   N5    1.157792 T    
C10   C11   1.397702 A    
C41   C42   1.392717 A    
C51   C56   1.437305 A    
C54   H20   1.067731 S    
C1    C47   1.429347 S    
C28   C32   1.394538 A    
C62   H27   1.110040 S    
