data_mof_unit_33793.cif
_audit_creation_date              2012-12-10T20:46:49-0500
_audit_creation_method            fapswitch 2.2
_symmetry_space_group_name_H-M    P1
_symmetry_Int_Tables_number       1
_space_group_crystal_system       triclinic
_cell_length_a                    12.839471
_cell_length_b                    8.918912
_cell_length_c                    8.119441
_cell_angle_alpha                 90.102385
_cell_angle_beta                  97.330288
_cell_angle_gamma                 90.105587
_cell_volume                      922.188040025

loop_
_atom_site_label
_atom_site_type_symbol
_atom_type_description
_atom_site_fract_x
_atom_site_fract_y
_atom_site_fract_z
_atom_type_partial_charge
Br1   Br    Br    0.946136 0.643486 0.105203 -0.477368
Br2   Br    Br    0.048962 0.325024 0.917083 -0.494826
C1    C     C_R   0.500033 0.218061 0.499905 0.893607
C2    C     C_R   0.871693 0.420996 0.697497 -0.288120
C3    C     C_R   0.137776 0.400628 0.565168 0.496753
C4    C     C_R   0.862587 0.453118 0.399428 0.497025
C5    C     C_R   0.029607 0.416204 0.563747 -0.143189
C6    C     C_R   0.970327 0.467048 0.414857 -0.147211
C7    C     C_1   0.499793 0.065246 0.499810 -0.204639
C8    C     C_1   0.499668 0.934789 0.500073 -0.191202
C9    C     C_3   0.768481 0.285116 0.223166 0.133048
C10   C     C_3   0.845721 0.186138 0.144507 -0.387462
C11   C     C_3   0.806903 0.024535 0.126744 -0.852874
C12   C     C_R   0.499751 0.781944 0.500046 0.937974
C13   C     C_3   0.227484 0.179120 0.615452 0.123947
C14   C     C_3   0.141339 0.059339 0.613089 -0.352880
C15   C     C_3   0.176613 0.910182 0.546056 -0.909579
C16   C     C_R   0.297753 0.495723 0.467332 0.912516
C17   C     C_R   0.702437 0.488796 0.531399 0.914712
C18   C     C_R   0.813799 0.456327 0.545026 -0.263385
C19   C     C_R   0.186110 0.477581 0.444670 -0.247733
C20   C     C_R   0.019788 0.532704 0.287408 0.389414
C21   C     C_R   0.978307 0.387933 0.705222 0.357632
C22   C     C_R   0.127810 0.541577 0.306365 -0.277881
H1    H     H_    0.833493 0.414513 0.808609 0.223258
H2    H     H_    0.298589 0.138250 0.694859 0.179474
H3    H     H_    0.250531 0.193182 0.488521 0.103358
H4    H     H_    0.121783 0.042135 0.741117 0.267744
H5    H     H_    0.069406 0.097157 0.533412 0.215603
H6    H     H_    0.194431 0.923671 0.416545 0.266586
H7    H     H_    0.112933 0.825788 0.546631 0.280103
H8    H     H_    0.247673 0.868222 0.624812 0.263940
H9    H     H_    0.166281 0.601602 0.214980 0.218902
H10   H     H_    0.693380 0.288049 0.138418 0.173033
H11   H     H_    0.749878 0.233110 0.340953 0.104503
H12   H     H_    0.854081 0.229984 0.019422 0.260690
H13   H     H_    0.923714 0.188321 0.221633 0.242293
H14   H     H_    0.802428 0.974611 0.250911 0.269285
H15   H     H_    0.862433 0.957958 0.062323 0.307875
H16   H     H_    0.728199 0.019660 0.052034 0.259539
N1    N     N_1   0.500020 0.500000 0.073640 -0.021884
N2    N     N_1   0.499980 0.500000 0.926360 -0.017736
O1    O     O_R   0.499990 0.285340 0.636850 -0.626006
O2    O     O_3   0.196738 0.315420 0.685674 -0.582454
O3    O     O_R   0.500010 0.714660 0.363150 -0.611033
O4    O     O_R   0.500010 0.285340 0.363150 -0.629033
O5    O     O_R   0.499990 0.714660 0.636850 -0.616845
O6    O     O_R   0.346350 0.500000 0.614250 -0.576720
O7    O     O_R   0.653650 0.500000 0.385750 -0.584480
O8    O     O_R   0.346360 0.500000 0.340500 -0.616671
O9    O     O_R   0.653640 0.500000 0.659500 -0.614646
O10   O     O_3   0.806626 0.434636 0.242588 -0.578995
Zn1   Zn    Zn3+2 0.499990 0.500000 0.682780 1.012829
Zn2   Zn    Zn3+2 0.500010 0.500000 0.317220 1.009211

loop_
_geom_bond_atom_site_label_1
_geom_bond_atom_site_label_2
_ccdc_geom_bond_type
C14   H4    S    
C6    C20   A    
C9    C10   S    
C12   O5    A    
C1    C7    S    
O6    Zn1   S    
C10   H12   S    
C16   C19   S    
C4    C18   A    
N1    N2    T    
C17   O7    A    
C1    O4    A    
C13   H3    S    
C22   H9    S    
O5    Zn1   S    
O4    Zn2   S    
C17   C18   S    
C9    H11   S    
C2    H1    S    
Br1   C20   S    
C15   H6    S    
C1    O1    A    
C11   H14   S    
O8    Zn2   S    
C5    C21   A    
C3    O2    S    
O3    Zn2   S    
C2    C21   A    
C12   O3    A    
Br2   C21   S    
N2    Zn1   S    
C8    C12   S    
C13   O2    S    
C15   H7    S    
C20   C22   A    
N1    Zn2   S    
C11   H15   S    
C11   H16   S    
O7    Zn2   S    
C2    C18   A    
C17   O9    A    
C5    C6    A    
C3    C19   A    
C10   C11   S    
C16   O8    A    
C7    C8    T    
C19   C22   A    
C10   H13   S    
C3    C5    A    
C15   H8    S    
C13   H2    S    
C4    C6    A    
C9    O10   S    
C4    O10   S    
C14   H5    S    
O1    Zn1   S    
C9    H10   S    
C13   C14   S    
C14   C15   S    
O9    Zn1   S    
C16   O6    A    
