data_mof_unit_19128.cif
_audit_creation_date              2012-12-11T15:15:44-0500
_audit_creation_method            fapswitch 2.2
_symmetry_space_group_name_H-M    P1
_symmetry_Int_Tables_number       1
_space_group_crystal_system       triclinic
_cell_length_a                    20.656178
_cell_length_b                    22.796205
_cell_length_c                    6.935832
_cell_angle_alpha                 90.000365
_cell_angle_beta                  86.549793
_cell_angle_gamma                 90.000238
_cell_volume                      3260.04205664

loop_
_atom_site_label
_atom_site_type_symbol
_atom_type_description
_atom_site_fract_x
_atom_site_fract_y
_atom_site_fract_z
_atom_type_partial_charge
O1    O     O_R   0.387100 0.552640 0.378490 -0.510324
O2    O     O_R   0.612900 0.052640 0.621510 -0.510325
O3    O     O_R   0.249610 0.559600 0.072250 -0.550125
O4    O     O_R   0.750390 0.059600 0.927750 -0.550124
O5    O     O_R   0.249120 0.447360 0.902040 -0.545488
O6    O     O_R   0.750880 0.947360 0.097960 -0.545478
C1    C     C_R   0.226221 0.573049 0.245404 0.772217
C2    C     C_R   0.773779 0.073049 0.754597 0.772230
O7    O     O_R   0.386610 0.559560 0.048860 -0.541518
O8    O     O_R   0.613390 0.059560 0.951140 -0.541518
O9    O     O_R   0.387100 0.447320 0.878470 -0.540716
O10   O     O_R   0.612900 0.947320 0.121530 -0.540714
C3    C     C_R   0.405685 0.576842 0.214820 0.823122
C4    C     C_R   0.594315 0.076842 0.785180 0.823123
O11   O     O_R   0.249120 0.552680 0.402050 -0.520249
O12   O     O_R   0.750880 0.052680 0.597950 -0.520248
O13   O     O_3   0.318110 0.463180 0.223790 -0.377770
O14   O     O_3   0.681890 0.963180 0.776210 -0.377773
V1    V     V_3+5 0.318110 0.506830 0.948930 1.543974
V2    V     V_3+5 0.681890 0.006830 0.051070 1.543982
O15   O     O_R   0.386610 0.440400 0.548840 -0.538629
O16   O     O_R   0.613390 0.940400 0.451160 -0.538632
C5    C     C_R   0.407553 0.425138 0.714164 0.783397
C6    C     C_R   0.592447 0.925138 0.285836 0.783403
O17   O     O_R   0.249610 0.440440 0.572240 -0.540482
O18   O     O_R   0.750390 0.940440 0.427760 -0.540489
C7    C     C_R   0.227874 0.425640 0.745073 0.714060
C8    C     C_R   0.772127 0.925640 0.254926 0.714098
V3    V     V_3+5 0.318110 0.493170 0.448930 1.580026
V4    V     V_3+5 0.681890 0.993170 0.551070 1.580014
O19   O     O_3   0.318110 0.536820 0.723940 -0.355496
O20   O     O_3   0.681890 0.036820 0.276060 -0.355498
C9    C     C_R   0.173211 0.383395 0.762472 -0.217008
C10   C     C_R   0.826791 0.883396 0.237528 -0.217047
C11   C     C_R   0.130485 0.380849 0.612115 -0.210034
C12   C     C_R   0.869490 0.880822 0.387957 -0.210012
C13   C     C_R   0.075604 0.345041 0.626024 0.471330
C14   C     C_R   0.924372 0.845015 0.374061 0.471401
C15   C     C_R   0.062147 0.311231 0.792986 0.013347
C16   C     C_R   0.937857 0.811233 0.207046 0.013314
C17   C     C_R   0.104150 0.313394 0.943656 -0.107158
C18   C     C_R   0.895883 0.813425 0.056303 -0.107200
C19   C     C_R   0.160497 0.347600 0.928550 0.373915
C20   C     C_R   0.839535 0.847629 0.071386 0.373898
C21   C     C_R   0.906171 0.177094 0.895167 -0.128348
C22   C     C_R   0.093826 0.677091 0.104847 -0.128357
C23   C     C_R   0.850445 0.142328 0.902411 -0.138791
C24   C     C_R   0.149551 0.642324 0.097596 -0.138801
C25   C     C_R   0.864928 0.125443 0.556969 0.362917
C26   C     C_R   0.135075 0.625442 0.443039 0.362908
C27   C     C_R   0.921143 0.159688 0.551939 -0.107414
C28   C     C_R   0.078860 0.659687 0.448077 -0.107406
C29   C     C_R   0.942454 0.185675 0.719884 -0.044331
C30   C     C_R   0.057546 0.685674 0.280135 -0.044350
C31   C     C_2   0.005006 0.272404 0.810928 -0.100410
C32   C     C_2   0.994999 0.772406 0.189111 -0.100412
C33   C     C_2   0.002401 0.222348 0.708614 0.388541
C34   C     C_2   0.997602 0.722348 0.291418 0.388581
C35   C     C_R   0.829483 0.114783 0.735699 -0.116997
C36   C     C_R   0.170516 0.614782 0.264306 -0.116990
H1    H     H_    0.138918 0.407774 0.484302 0.187044
H2    H     H_    0.861037 0.907726 0.515820 0.187116
H3    H     H_    0.823898 0.136636 0.039879 0.171766
H4    H     H_    0.176095 0.636631 0.960124 0.171773
H5    H     H_    0.094400 0.286506 0.070995 0.198038
H6    H     H_    0.905655 0.786559 0.928916 0.198141
H7    H     H_    0.921485 0.196299 0.027760 0.136881
H8    H     H_    0.078509 0.696295 0.972256 0.136885
H9    H     H_    0.964668 0.285800 0.908627 0.128338
H10   H     H_    0.035334 0.785799 0.091394 0.128324
H11   H     H_    0.947363 0.167165 0.414067 0.144544
H12   H     H_    0.052642 0.667165 0.585952 0.144565
C37   C     C_R   0.579396 0.368068 0.676512 0.319505
C38   C     C_R   0.420603 0.868068 0.323476 0.319504
H13   H     H_    0.667299 0.282683 0.613326 0.224360
H14   H     H_    0.332699 0.782683 0.386666 0.224357
C39   C     C_R   0.463192 0.384540 0.713545 -0.142343
C40   C     C_R   0.536807 0.884540 0.286453 -0.142342
C41   C     C_R   0.481192 0.101402 0.861858 -0.318436
C42   C     C_R   0.518808 0.601402 0.138149 -0.318431
C43   C     C_R   0.431430 0.140279 0.919317 0.429668
C44   C     C_R   0.568570 0.640279 0.080689 0.429669
C45   C     C_R   0.441019 0.200813 0.898708 0.383876
C46   C     C_R   0.558980 0.700813 0.101294 0.383875
C47   C     C_R   0.498062 0.223267 0.797860 -0.084330
C48   C     C_R   0.501937 0.723267 0.202140 -0.084325
C49   C     C_R   0.550721 0.183127 0.751402 -0.046709
C50   C     C_R   0.449278 0.683127 0.248598 -0.046710
C51   C     C_R   0.506023 0.284631 0.751073 0.082831
C52   C     C_R   0.493976 0.784631 0.248924 0.082832
C53   C     C_R   0.568883 0.306834 0.700518 -0.054269
C54   C     C_R   0.431116 0.806834 0.299475 -0.054264
C55   C     C_R   0.619770 0.267296 0.664186 -0.095019
C56   C     C_R   0.380229 0.767297 0.335808 -0.095022
C57   C     C_R   0.610470 0.207017 0.675436 0.328444
C58   C     C_R   0.389529 0.707017 0.324563 0.328443
C59   C     C_R   0.453299 0.324097 0.740272 -0.202384
C60   C     C_R   0.546700 0.824097 0.259727 -0.202387
C61   C     C_R   0.526127 0.407164 0.689584 0.297012
C62   C     C_R   0.473872 0.907164 0.310409 0.297010
C63   C     C_R   0.541625 0.121500 0.789080 -0.104969
C64   C     C_R   0.458375 0.621501 0.210923 -0.104969
H15   H     H_    0.403982 0.308419 0.742750 0.182201
H16   H     H_    0.596017 0.808419 0.257250 0.182200
H17   H     H_    0.474300 0.054815 0.887716 0.146446
H18   H     H_    0.525701 0.554815 0.112294 0.146444
O21   O     O_3   0.532987 0.467386 0.672238 -0.639846
H19   H     H_    0.578745 0.478787 0.682915 0.349428
O22   O     O_3   0.467013 0.967387 0.327754 -0.639851
H20   H     H_    0.421255 0.978787 0.317101 0.349431
Cl1   Cl    Cl    0.658803 0.395852 0.624230 -0.585312
Cl2   Cl    Cl    0.341196 0.895852 0.375742 -0.585332
Cl3   Cl    Cl    0.386394 0.245340 0.040962 -0.587147
Cl4   Cl    Cl    0.613605 0.745339 0.959035 -0.587185
O23   O     O_3   0.373909 0.120233 0.007997 -0.573831
H21   H     H_    0.374737 0.076764 0.013586 0.319857
O24   O     O_3   0.626092 0.620233 0.992013 -0.573834
H22   H     H_    0.625265 0.576763 0.986428 0.319857
Cl5   Cl    Cl    0.676172 0.166169 0.575766 -0.702260
Cl6   Cl    Cl    0.323829 0.666169 0.424241 -0.702263
O25   O     O_3   0.847000 0.102455 0.385172 -0.650054
H23   H     H_    0.801787 0.115369 0.370413 0.321696
O26   O     O_3   0.153005 0.602455 0.614834 -0.650057
H24   H     H_    0.198218 0.615371 0.629590 0.321700
O27   O     O_3   0.055551 0.206822 0.588281 -0.605739
H25   H     H_    0.049350 0.166117 0.542913 0.308749
O28   O     O_3   0.944453 0.706821 0.411758 -0.605721
H26   H     H_    0.950645 0.666109 0.457078 0.308756
O29   O     O_3   0.202043 0.343513 0.076331 -0.608507
H27   H     H_    0.246947 0.349331 0.021522 0.314368
O30   O     O_3   0.798021 0.843574 0.923498 -0.608512
H28   H     H_    0.753102 0.849350 0.978298 0.314351
Cl7   Cl    Cl    0.023445 0.345071 0.434178 -0.609485
Cl8   Cl    Cl    0.976499 0.845017 0.565991 -0.609575

loop_
_geom_bond_atom_site_label_1
_geom_bond_atom_site_label_2
_ccdc_geom_bond_type
V4    O20   S    
C50   C58   A    
O6    C8    A    
O13   V3    S    
C45   Cl3   S    
O4    C2    A    
V1    O19   S    
C25   C27   A    
O26   H24   S    
C15   C17   A    
C7    C9    S    
C20   O30   S    
O9    V1    S    
C27   H11   S    
O10   V2    S    
C11   C13   A    
C46   C48   A    
O3    C1    A    
C2    C35   S    
C23   H3    S    
C9    C11   A    
C48   C50   A    
C24   H4    S    
O12   V4    S    
O23   H21   S    
C42   H18   S    
C41   H17   S    
C38   C54   A    
O7    C3    A    
H14   C56   S    
O5    C7    A    
O7    V1    S    
C15   C31   S    
O8    V2    S    
C16   C32   S    
C49   C57   A    
C40   C60   A    
C26   C28   A    
O21   H19   S    
O3    V1    S    
O14   V4    S    
C51   C53   A    
C10   C12   A    
C24   C36   A    
C16   C18   A    
C8    C10   S    
C62   O22   S    
C2    O12   A    
C49   C63   A    
C17   C19   A    
C43   O23   S    
C18   C20   A    
V2    O20   S    
C12   H2    S    
O1    V3    S    
C43   C45   A    
C28   C30   A    
O11   V3    S    
C21   C23   A    
O17   V3    S    
C13   C15   A    
C22   C24   A    
C23   C35   A    
C47   C49   A    
C9    C19   A    
C38   Cl2   S    
C19   O29   S    
C37   Cl1   S    
C10   C20   A    
C37   C53   A    
C42   C44   A    
C48   C52   A    
C41   C43   A    
C29   C33   S    
C4    C63   S    
C38   C62   A    
C1    O11   A    
C57   Cl5   S    
O15   V3    S    
C51   C59   A    
C27   C29   A    
C40   C62   A    
C22   H8    S    
C28   H12   S    
C53   C55   A    
C52   C54   A    
C25   O25   S    
C22   C30   A    
C54   C56   A    
C11   H1    S    
C59   H15   S    
C5    C39   S    
C56   C58   A    
O25   H23   S    
C31   H9    S    
C6    C40   S    
C45   C47   A    
O18   V4    S    
C44   C46   A    
C31   C33   D    
O8    C4    A    
O27   H25   S    
O16   C6    A    
O1    C3    A    
O28   H26   S    
C1    C36   S    
O6    V2    S    
H13   C55   S    
O29   H27   S    
C30   C34   S    
C37   C61   A    
C47   C51   A    
O16   V4    S    
O18   C8    A    
C58   Cl6   S    
C26   O26   S    
C50   C64   A    
C21   H7    S    
O5    V1    S    
O17   C7    A    
C61   O21   S    
O10   C6    A    
C32   H10   S    
C25   C35   A    
O2    V4    S    
C26   C36   A    
C46   Cl4   S    
O15   C5    A    
V3    O19   S    
O24   H22   S    
C33   O27   S    
C14   C16   A    
C60   H16   S    
O9    C5    A    
O13   V1    S    
C32   C34   D    
C39   C61   A    
O14   V2    S    
C14   Cl8   S    
C17   H5    S    
O2    C4    A    
C13   Cl7   S    
C12   C14   A    
C21   C29   A    
O4    V2    S    
C34   O28   S    
C55   C57   A    
C42   C64   A    
C18   H6    S    
C41   C63   A    
C39   C59   A    
C44   O24   S    
C3    C64   S    
O22   H20   S    
C52   C60   A    
O30   H28   S    
