data_mof_unit_17341.cif
_audit_creation_date              2012-12-10T18:42:35-0500
_audit_creation_method            fapswitch 2.2
_symmetry_space_group_name_H-M    P1
_symmetry_Int_Tables_number       1
_space_group_crystal_system       triclinic
_cell_length_a                    8.633396
_cell_length_b                    10.707272
_cell_length_c                    9.84196
_cell_angle_alpha                 89.973292
_cell_angle_beta                  97.904052
_cell_angle_gamma                 90.155567
_cell_volume                      901.145370892

loop_
_atom_site_label
_atom_site_type_symbol
_atom_type_description
_atom_site_fract_x
_atom_site_fract_y
_atom_site_fract_z
_atom_type_partial_charge
C1    C     C_R   0.499957 0.259902 0.499962 0.856213
C2    C     C_R   0.458921 0.063854 0.613784 -0.192152
C3    C     C_R   0.500038 0.872529 0.500020 -0.008301
C4    C     C_R   0.499962 0.127471 0.499980 -0.008301
C5    C     C_R   0.601629 0.574110 0.084138 -0.083130
C6    C     C_R   0.398371 0.425890 0.915862 -0.083130
C7    C     C_R   0.601567 0.574097 0.940236 -0.068026
C8    C     C_R   0.398433 0.425903 0.059764 -0.068026
C9    C     C_3   0.976518 0.375818 0.347485 -0.901277
C10   C     C_3   0.023483 0.624180 0.652517 -0.901280
C11   C     C_R   0.500043 0.740098 0.500038 0.856213
C12   C     C_R   0.201963 0.497483 0.465495 0.965260
C13   C     C_R   0.798037 0.502517 0.534505 0.965261
C14   C     C_2   0.040283 0.474376 0.452510 -0.022882
C15   C     C_2   0.959717 0.525624 0.547491 -0.022883
C16   C     C_R   0.541041 0.064119 0.386195 -0.202232
C17   C     C_R   0.458959 0.935881 0.613805 -0.202232
C18   C     C_R   0.541079 0.936146 0.386215 -0.192153
H1    H     H_    0.574292 0.887351 0.298220 0.153532
H2    H     H_    0.094480 0.694573 0.605358 0.237061
H3    H     H_    0.574244 0.113124 0.298192 0.157812
H4    H     H_    0.425756 0.886876 0.701808 0.157812
H5    H     H_    0.682750 0.633350 0.895435 0.127891
H6    H     H_    0.317250 0.366650 0.104565 0.127891
H7    H     H_    0.425708 0.112648 0.701779 0.153532
H8    H     H_    0.682878 0.633345 0.148418 0.127553
H9    H     H_    0.317122 0.366654 0.851581 0.127553
H10   H     H_    0.072234 0.323800 0.307954 0.231340
H11   H     H_    0.905520 0.305426 0.394645 0.237061
H12   H     H_    0.905494 0.420467 0.258019 0.266935
H13   H     H_    0.927766 0.676197 0.692049 0.231341
H14   H     H_    0.094507 0.579530 0.741981 0.266936
N1    N     N_R   0.499960 0.499970 0.857200 -0.079759
N2    N     N_R   0.500040 0.500030 0.142800 -0.079759
O1    O     O_R   0.499990 0.316750 0.614620 -0.626674
O2    O     O_R   0.500010 0.683250 0.385380 -0.626674
O3    O     O_R   0.499990 0.316780 0.385290 -0.631159
O4    O     O_R   0.500010 0.683220 0.614710 -0.631159
O5    O     O_R   0.271750 0.499990 0.587840 -0.624217
O6    O     O_R   0.728250 0.500010 0.412160 -0.624217
O7    O     O_R   0.271750 0.500010 0.358510 -0.620650
O8    O     O_R   0.728250 0.499990 0.641490 -0.620651
Zn1   Zn    Zn3+2 0.500000 0.499980 0.653120 0.936863
Zn2   Zn    Zn3+2 0.500000 0.500020 0.346880 0.936863

loop_
_geom_bond_atom_site_label_1
_geom_bond_atom_site_label_2
_ccdc_geom_bond_type
C4    C16   A    
C11   O4    A    
C2    C4    A    
C9    C14   S    
C16   H3    S    
C1    O3    A    
O1    Zn1   S    
C6    H9    S    
C6    N1    A    
C9    H11   S    
C1    C4    S    
C5    N2    A    
O3    Zn2   S    
O4    Zn1   S    
C8    N2    A    
C2    C17   A    
C7    N1    A    
C12   O7    A    
C9    H12   S    
C12   O5    A    
C7    H5    S    
C6    C8    A    
C13   O8    A    
C8    H6    S    
C12   C14   S    
C3    C17   A    
C2    H7    S    
C10   C15   S    
C13   C15   S    
O7    Zn2   S    
O2    Zn2   S    
C3    C11   S    
O8    Zn1   S    
C5    H8    S    
N1    Zn1   S    
C10   H14   S    
O6    Zn2   S    
N2    Zn2   S    
C1    O1    A    
C3    C18   A    
C16   C18   A    
C18   H1    S    
C5    C7    A    
C14   C15   D    
C11   O2    A    
C13   O6    A    
O5    Zn1   S    
C10   H13   S    
C17   H4    S    
C9    H10   S    
C10   H2    S    
