data_mof_unit_57941.cif
_audit_creation_date              2012-12-10T20:55:50-0500
_audit_creation_method            fapswitch 2.2
_symmetry_space_group_name_H-M    P1
_symmetry_Int_Tables_number       1
_space_group_crystal_system       triclinic
_cell_length_a                    15.848282
_cell_length_b                    15.080971
_cell_length_c                    10.667154
_cell_angle_alpha                 90.014762
_cell_angle_beta                  89.965266
_cell_angle_gamma                 89.870512
_cell_volume                      2549.52254461

loop_
_atom_site_label
_atom_site_type_symbol
_atom_type_description
_atom_site_fract_x
_atom_site_fract_y
_atom_site_fract_z
_atom_type_partial_charge
C1    C     C_1   0.251030 0.500427 0.497938 -0.179653
C2    C     C_R   0.428662 0.047028 0.460625 -0.171529
C3    C     C_R   0.955288 0.581246 0.488107 -0.062367
C4    C     C_R   0.044708 0.418401 0.495070 -0.062393
C5    C     C_R   0.043691 0.581687 0.488899 -0.060377
C6    C     C_R   0.956287 0.417974 0.494972 -0.060356
C7    C     C_R   0.339049 0.500118 0.500056 0.875525
C8    C     C_R   0.660948 0.499880 0.499803 0.875503
C9    C     C_R   0.500005 0.499988 0.260268 0.875116
C10   C     C_R   0.499942 0.500007 0.739738 0.873861
C11   C     C_R   0.912800 0.499438 0.492087 0.027824
C12   C     C_1   0.748961 0.499547 0.497278 -0.179427
C13   C     C_R   0.087189 0.500260 0.492858 0.027748
C14   C     C_1   0.500043 0.807154 0.499959 0.042669
C15   C     C_1   0.500031 0.192849 0.499953 0.043023
C16   C     C_1   0.823589 0.499288 0.494691 -0.039675
C17   C     C_1   0.176397 0.500578 0.495576 -0.040056
C18   C     C_R   0.653526 0.530636 0.130151 -0.143955
C19   C     C_R   0.346424 0.469329 0.869873 -0.144705
C20   C     C_R   0.653522 0.530374 0.869513 -0.145844
C21   C     C_R   0.346518 0.468974 0.130511 -0.144543
C22   C     C_R   0.728416 0.545216 0.064869 -0.147409
C23   C     C_R   0.499950 0.500004 0.871759 -0.187446
C24   C     C_R   0.271595 0.454351 0.935139 -0.145389
C25   C     C_R   0.728418 0.545070 0.934592 -0.146954
C26   C     C_R   0.271647 0.454145 0.065424 -0.148152
C27   C     C_R   0.576673 0.515658 0.934494 0.069715
C28   C     C_R   0.423303 0.484097 0.065532 0.069984
C29   C     C_R   0.576684 0.515723 0.065357 0.069766
C30   C     C_R   0.423265 0.484211 0.934668 0.069165
C31   C     C_R   0.090643 0.666960 0.483869 0.140145
C32   C     C_R   0.138194 0.695358 0.587422 -0.152158
C33   C     C_R   0.182054 0.775635 0.582594 -0.126304
C34   C     C_R   0.499994 0.499953 0.128261 -0.187449
C35   C     C_R   0.178491 0.828130 0.474753 -0.112826
C36   C     C_R   0.131273 0.800288 0.371402 -0.132501
C37   C     C_R   0.087525 0.719924 0.375694 -0.132355
C38   C     C_R   0.909299 0.332629 0.495601 0.140044
C39   C     C_R   0.860490 0.308360 0.600052 -0.149675
C40   C     C_R   0.816197 0.228266 0.600132 -0.130891
C41   C     C_R   0.820616 0.171813 0.496380 -0.111317
C42   C     C_R   0.869213 0.195451 0.392277 -0.128793
C43   C     C_R   0.913365 0.275623 0.391628 -0.133818
C44   C     C_R   0.907104 0.666058 0.485661 0.141887
C45   C     C_R   0.500078 0.905042 0.499901 0.088625
C46   C     C_R   0.858500 0.688726 0.380291 -0.153598
C47   C     C_R   0.812741 0.768085 0.378408 -0.124767
C48   C     C_R   0.815422 0.825376 0.481344 -0.112948
C49   C     C_R   0.863703 0.803266 0.586467 -0.135128
C50   C     C_R   0.909350 0.723818 0.588890 -0.135610
C51   C     C_R   0.092868 0.333643 0.500660 0.140924
C52   C     C_R   0.142634 0.306540 0.398483 -0.148836
C53   C     C_R   0.188405 0.227272 0.404388 -0.131604
C54   C     C_R   0.184560 0.174498 0.511934 -0.110252
C55   C     C_R   0.135114 0.201031 0.613873 -0.129080
C56   C     C_R   0.500069 0.094968 0.499890 0.090846
C57   C     C_R   0.089477 0.280397 0.608529 -0.139862
C58   C     C_R   0.428666 0.953303 0.460651 -0.171912
C59   C     C_R   0.571504 0.046714 0.539094 -0.170954
C60   C     C_R   0.571507 0.952984 0.539099 -0.173053
H1    H     H_    0.213546 0.442701 0.116278 0.127375
H2    H     H_    0.343289 0.469330 0.768652 0.127999
H3    H     H_    0.656623 0.530397 0.768287 0.127810
H4    H     H_    0.343455 0.468671 0.231736 0.127882
H5    H     H_    0.141020 0.655426 0.671709 0.123900
H6    H     H_    0.218653 0.797249 0.662550 0.130390
H7    H     H_    0.212213 0.890413 0.471328 0.114012
H8    H     H_    0.128587 0.840978 0.287932 0.125955
H9    H     H_    0.051287 0.698902 0.294970 0.120712
H10   H     H_    0.856906 0.351428 0.681167 0.123487
H11   H     H_    0.778533 0.209900 0.680679 0.127658
H12   H     H_    0.786582 0.556158 0.883732 0.132604
H13   H     H_    0.786446 0.109747 0.496654 0.114965
H14   H     H_    0.872582 0.151690 0.311991 0.126674
H15   H     H_    0.950562 0.293420 0.310260 0.120793
H16   H     H_    0.856207 0.644960 0.299876 0.116009
H17   H     H_    0.775283 0.785206 0.297096 0.131509
H18   H     H_    0.780145 0.886902 0.479622 0.115309
H19   H     H_    0.865656 0.847642 0.666161 0.125802
H20   H     H_    0.946221 0.707144 0.671060 0.119968
H21   H     H_    0.145884 0.346810 0.314563 0.116973
H22   H     H_    0.226799 0.206721 0.325574 0.127033
H23   H     H_    0.213447 0.443064 0.884417 0.133186
H24   H     H_    0.219861 0.113056 0.516312 0.115543
H25   H     H_    0.132269 0.160163 0.697148 0.126582
H26   H     H_    0.051732 0.300538 0.688328 0.120086
H27   H     H_    0.786587 0.556373 0.115537 0.126366
H28   H     H_    0.372725 0.082119 0.429714 0.122970
H29   H     H_    0.627456 0.917892 0.569955 0.127235
H30   H     H_    0.627460 0.081563 0.569925 0.123847
H31   H     H_    0.372728 0.918456 0.429801 0.126750
H32   H     H_    0.656634 0.530887 0.231370 0.127963
N1    N     N_1   0.500000 0.270550 0.500000 -0.084136
N2    N     N_1   0.500000 0.729450 0.500000 -0.084131
O1    O     O_R   0.378020 0.573650 0.500040 -0.604121
O2    O     O_R   0.621980 0.426350 0.499960 -0.603886
O3    O     O_R   0.621980 0.573650 0.499960 -0.611761
O4    O     O_R   0.378020 0.426350 0.500040 -0.611877
O5    O     O_R   0.499990 0.573670 0.316780 -0.611703
O6    O     O_R   0.500010 0.426330 0.683220 -0.611966
O7    O     O_R   0.500010 0.573670 0.683220 -0.612138
O8    O     O_R   0.499990 0.426330 0.316780 -0.611849
Zn1   Zn    Zn3+2 0.500000 0.598370 0.500000 0.977797
Zn2   Zn    Zn3+2 0.500000 0.401630 0.500000 0.977971

loop_
_geom_bond_atom_site_label_1
_geom_bond_atom_site_label_2
_ccdc_geom_bond_type
O5    Zn1   S    
C21   C26   A    
C45   C60   A    
C40   H11   S    
C37   H9    S    
C27   C29   A    
C41   C42   A    
C35   C36   A    
C8    O2    A    
C54   H24   S    
C31   C32   A    
C53   C54   A    
C36   C37   A    
C7    O4    A    
C26   H1    S    
C24   C26   A    
C38   C39   A    
C20   C25   A    
C19   H2    S    
O6    Zn2   S    
C57   H26   S    
C48   H18   S    
C4    C13   A    
C21   H4    S    
C54   C55   A    
C12   C16   T    
O1    Zn1   S    
C9    O8    A    
C22   C25   A    
C6    C38   S    
C2    H28   S    
C51   C57   A    
C23   C27   A    
C58   H31   S    
C5    C13   A    
C28   C34   A    
C59   C60   A    
O7    Zn1   S    
C1    C7    S    
N1    Zn2   S    
C46   H16   S    
C44   C46   A    
C33   H6    S    
C14   C45   S    
C43   H15   S    
C45   C58   A    
C3    C44   S    
C42   H14   S    
C4    C51   S    
C51   C52   A    
C23   C30   A    
C4    C6    A    
C6    C11   A    
C18   C29   A    
C60   H29   S    
C29   C34   A    
C31   C37   A    
C53   H22   S    
C59   H30   S    
C55   H25   S    
C10   O6    A    
C8    O3    A    
C11   C16   S    
C47   C48   A    
C35   H7    S    
C8    C12   S    
C2    C58   A    
C25   H12   S    
C22   H27   S    
O8    Zn2   S    
O3    Zn1   S    
C48   C49   A    
C21   C28   A    
N2    Zn1   S    
C55   C57   A    
C9    C34   S    
C42   C43   A    
C47   H17   S    
C39   C40   A    
C52   C53   A    
C44   C50   A    
C46   C47   A    
C40   C41   A    
C18   C22   A    
C24   H23   S    
C10   O7    A    
C3    C5    A    
C50   H20   S    
C15   N1    T    
C36   H8    S    
C20   C27   A    
C10   C23   S    
C7    O1    A    
C1    C17   T    
C56   C59   A    
C13   C17   S    
C18   H32   S    
C32   C33   A    
C20   H3    S    
O2    Zn2   S    
C19   C24   A    
C38   C43   A    
C2    C56   A    
C15   C56   S    
O4    Zn2   S    
C28   C30   A    
C33   C35   A    
C39   H10   S    
C52   H21   S    
C3    C11   A    
C41   H13   S    
C49   H19   S    
C9    O5    A    
C49   C50   A    
C19   C30   A    
C14   N2    T    
C32   H5    S    
C5    C31   S    
