data_mof_unit_20226.cif
_audit_creation_date              2012-12-10T17:02:31-0500
_audit_creation_method            fapswitch 2.2
_symmetry_space_group_name_H-M    P1
_symmetry_Int_Tables_number       1
_space_group_crystal_system       triclinic
_cell_length_a                    10.784418
_cell_length_b                    11.028935
_cell_length_c                    9.866404
_cell_angle_alpha                 110.447527
_cell_angle_beta                  101.176134
_cell_angle_gamma                 91.561845
_cell_volume                      1072.95125794

loop_
_atom_site_label
_atom_site_type_symbol
_atom_type_description
_atom_site_fract_x
_atom_site_fract_y
_atom_site_fract_z
_atom_type_partial_charge
C1    C     C_R   0.490489 0.254188 0.440907 0.855899
C2    C     C_R   0.739117 0.510076 0.506749 0.788062
C3    C     C_R   0.151827 0.733802 0.564804 -0.129736
C4    C     C_R   0.849709 0.267495 0.440746 -0.122846
C5    C     C_R   0.107443 0.853143 0.629617 -0.201446
C6    C     C_R   0.896422 0.148311 0.381707 -0.196959
C7    C     C_R   0.000196 0.857621 0.689200 -0.137686
C8    C     C_R   0.004660 0.143096 0.323745 -0.164911
C9    C     C_R   0.933883 0.742364 0.678204 0.378021
C10   C     C_R   0.068396 0.257431 0.328734 0.386453
C11   C     C_R   0.960197 0.621721 0.579200 -0.062028
C12   C     C_R   0.509606 0.745816 0.559103 0.853805
C13   C     C_R   0.040404 0.379047 0.423516 -0.048939
C14   C     C_R   0.079879 0.616611 0.541794 0.053949
C15   C     C_R   0.920618 0.384363 0.460572 0.050694
C16   C     C_R   0.875765 0.505867 0.520735 -0.102346
C17   C     C_R   0.124359 0.495062 0.480053 -0.093920
C18   C     C_2   0.485528 0.115265 0.407513 -0.316256
C19   C     C_2   0.514619 0.884741 0.592509 -0.316561
C20   C     C_2   0.502461 0.069465 0.516956 -0.171370
C21   C     C_2   0.497693 0.930546 0.483069 -0.171745
C22   C     C_2   0.510407 0.511826 0.082632 -0.057571
C23   C     C_2   0.489336 0.488434 0.917414 -0.064049
C24   C     C_R   0.260905 0.490568 0.493479 0.788093
Cu1   Cu    Cu3+1 0.521920 0.521810 0.644910 1.027054
Cu2   Cu    Cu3+1 0.478080 0.478190 0.355090 1.019025
H1    H     H_    0.029805 0.049351 0.259629 0.186594
H2    H     H_    0.468058 0.049873 0.292385 0.180124
H3    H     H_    0.415928 0.413057 0.841653 0.156491
H4    H     H_    0.583498 0.587522 0.158453 0.161395
H5    H     H_    0.623614 0.625606 0.937641 0.243582
H6    H     H_    0.377090 0.373710 0.062245 0.223730
H7    H     H_    0.966856 0.838282 0.073495 0.360829
H8    H     H_    0.133120 0.366604 0.036367 0.362370
H9    H     H_    0.977832 0.950966 0.758598 0.217770
H10   H     H_    0.240173 0.733633 0.528393 0.137098
H11   H     H_    0.761060 0.268004 0.476602 0.137203
H12   H     H_    0.161805 0.942480 0.644159 0.168920
H13   H     H_    0.843523 0.059318 0.370791 0.164258
H14   H     H_    0.480153 0.865439 0.367748 0.189744
H15   H     H_    0.519990 0.134574 0.632276 0.190787
H16   H     H_    0.532096 0.950128 0.707641 0.179951
N1    N     N_2   0.445130 0.445420 0.137360 -0.261316
N2    N     N_2   0.554870 0.554580 0.862640 -0.252499
O1    O     O_R   0.511700 0.332340 0.577400 -0.599567
O2    O     O_2   0.878129 0.621718 0.858638 -0.292299
O3    O     O_3   0.983181 0.857993 0.987598 -0.496979
O4    O     O_2   0.248039 0.198131 0.168794 -0.306026
O5    O     O_2   0.027309 0.145707 0.034960 -0.266390
O6    O     O_3   0.118126 0.387062 0.137560 -0.511291
O7    O     O_R   0.488300 0.667660 0.422600 -0.600105
O8    O     O_R   0.474680 0.295500 0.332650 -0.524015
O9    O     O_R   0.525320 0.704500 0.667350 -0.525198
O10   O     O_R   0.338170 0.518410 0.622370 -0.589155
O11   O     O_R   0.661830 0.481590 0.377630 -0.583404
O12   O     O_R   0.301150 0.481570 0.377630 -0.501955
O13   O     O_R   0.698850 0.518430 0.622370 -0.504133
O14   O     O_2   0.752365 0.799756 0.836014 -0.302020
S1    S     S_3+6 0.881022 0.751381 0.840178 0.004600
S2    S     S_3+6 0.118508 0.244379 0.163977 0.008221

loop_
_geom_bond_atom_site_label_1
_geom_bond_atom_site_label_2
_ccdc_geom_bond_type
C10   S2    S    
C7    C9    A    
Cu2   O8    S    
O2    S1    D    
C24   O12   A    
C2    C16   S    
C11   C16   A    
C22   N1    D    
C19   H16   S    
C13   C17   A    
O6    S2    S    
Cu2   O11   S    
C4    C15   A    
C20   H15   S    
Cu1   Cu2   S    
C2    O13   A    
Cu2   O7    S    
Cu1   O10   S    
C9    C11   A    
C14   C17   A    
C1    O1    A    
C1    C18   S    
O5    S2    D    
Cu1   O13   S    
C3    H10   S    
C3    C14   A    
C23   H3    S    
C12   C19   S    
C4    C6    A    
C19   C21   D    
H6    N1    S    
Cu1   O9    S    
Cu2   N1    S    
O4    S2    D    
C18   C20   D    
C2    O11   A    
C13   C15   A    
H7    O3    S    
C11   C14   A    
H8    O6    S    
C17   C24   S    
H5    N2    S    
C24   O10   A    
C15   C16   A    
Cu1   O1    S    
C7    H9    S    
C12   O7    A    
C18   H2    S    
C20   C21   S    
Cu1   N2    S    
C8    C10   A    
C5    C7    A    
C8    H1    S    
C6    H13   S    
C6    C8    A    
C22   H4    S    
C3    C5    A    
O14   S1    D    
C5    H12   S    
C1    O8    A    
O3    S1    S    
C22   C23   S    
C23   N2    D    
C12   O9    A    
Cu2   O12   S    
C4    H11   S    
C9    S1    S    
C10   C13   A    
C21   H14   S    
