data_mof_unit_61656.cif
_audit_creation_date              2012-10-26T21:22:17-0400
_audit_creation_method            fapswitch 2.2
_symmetry_space_group_name_H-M    P1
_symmetry_Int_Tables_number       1
_space_group_crystal_system       triclinic
_cell_length_a                    16.036631
_cell_length_b                    14.757771
_cell_length_c                    17.731977
_cell_angle_alpha                 90.0001
_cell_angle_beta                  89.991328
_cell_angle_gamma                 89.999362
_cell_volume                      4196.53701006

loop_
_atom_site_label
_atom_site_type_symbol
_atom_type_description
_atom_site_fract_x
_atom_site_fract_y
_atom_site_fract_z
_atom_type_partial_charge
C1    C     C_R   0.340965 0.500000 0.500015 0.557087
C2    C     C_R   0.549854 0.047909 0.550954 -0.102194
C3    C     C_R   0.500000 0.902868 0.500000 0.004022
C4    C     C_R   0.500000 0.097131 0.499999 0.004022
C5    C     C_1   0.500000 0.802737 0.500000 0.129824
C6    C     C_1   0.500000 0.197263 0.499999 0.129824
C7    C     C_R   0.499991 0.500000 0.355113 0.543752
C8    C     C_R   0.500008 0.500000 0.644887 0.543751
C9    C     C_R   0.500037 0.582144 0.846442 -0.106564
C10   C     C_R   0.499963 0.417856 0.153557 -0.106564
C11   C     C_R   0.499989 0.582142 0.153558 -0.106509
C12   C     C_R   0.659035 0.500000 0.499984 0.557087
C13   C     C_R   0.500011 0.417858 0.846442 -0.106509
C14   C     C_R   0.500039 0.582253 0.767825 -0.122909
C15   C     C_R   0.499961 0.417747 0.232175 -0.122909
C16   C     C_R   0.499985 0.582251 0.232175 -0.122849
C17   C     C_R   0.500014 0.417749 0.767825 -0.122849
C18   C     C_R   0.500022 0.500001 0.727821 0.011777
C19   C     C_R   0.499978 0.499999 0.272179 0.011777
C20   C     C_R   0.500019 0.500001 0.885638 0.040107
C21   C     C_R   0.499981 0.499999 0.114362 0.040107
C22   C     C_1   0.500006 0.500000 0.966188 -0.020687
C23   C     C_1   0.822665 0.500000 0.499986 -0.072882
C24   C     C_1   0.499994 0.500000 0.033812 -0.020687
C25   C     C_R   0.956399 0.583226 0.497659 0.281983
C26   C     C_R   0.043601 0.416774 0.502340 0.281983
C27   C     C_R   0.043600 0.583226 0.497662 0.282000
C28   C     C_R   0.956400 0.416774 0.502338 0.282000
C29   C     C_R   0.912356 0.500000 0.499995 -0.080940
C30   C     C_R   0.087644 0.500000 0.500005 -0.080940
C31   C     C_1   0.177335 0.500000 0.500014 -0.072882
C32   C     C_1   0.252170 0.500000 0.500017 -0.019576
C33   C     C_1   0.747830 0.500000 0.499982 -0.019576
C34   C     C_R   0.549854 0.952090 0.550955 -0.102201
C35   C     C_R   0.450146 0.047909 0.449045 -0.102201
C36   C     C_R   0.450146 0.952091 0.449046 -0.102194
Cu1   Cu    Cu3+1 0.500000 0.589220 0.500000 0.999276
Cu2   Cu    Cu3+1 0.500000 0.410780 0.500000 0.999276
H1    H     H_    0.500045 0.645993 0.876626 0.117507
H2    H     H_    0.411049 0.916379 0.409087 0.118874
H3    H     H_    0.411049 0.083621 0.409085 0.118819
H4    H     H_    0.588951 0.916379 0.590915 0.118819
H5    H     H_    0.143910 0.660117 0.495500 0.328096
H6    H     H_    0.856090 0.339882 0.504500 0.328096
H7    H     H_    0.856088 0.660121 0.495523 0.328144
H8    H     H_    0.143912 0.339879 0.504477 0.328144
H9    H     H_    0.499955 0.354007 0.123374 0.117507
H10   H     H_    0.500000 0.645991 0.123375 0.117534
H11   H     H_    0.499999 0.354009 0.876625 0.117534
H12   H     H_    0.500052 0.646603 0.738468 0.135512
H13   H     H_    0.499947 0.353397 0.261532 0.135512
H14   H     H_    0.499993 0.646601 0.261533 0.135549
H15   H     H_    0.500007 0.353399 0.738467 0.135549
H16   H     H_    0.588951 0.083621 0.590913 0.118874
N1    N     N_1   0.500000 0.276710 0.500000 -0.191700
N2    N     N_1   0.500000 0.723290 0.500000 -0.191700
O1    O     O_R   0.380310 0.575320 0.500010 -0.487505
O2    O     O_3   0.917364 0.333046 0.504691 -0.614791
O3    O     O_3   0.917363 0.666954 0.495307 -0.614744
O4    O     O_3   0.082637 0.333045 0.504693 -0.614744
O5    O     O_R   0.619690 0.424680 0.499990 -0.487505
O6    O     O_R   0.619690 0.575320 0.499990 -0.487512
O7    O     O_R   0.380310 0.424680 0.500010 -0.487512
O8    O     O_R   0.500000 0.575370 0.391250 -0.498163
O9    O     O_R   0.500000 0.424630 0.608750 -0.498163
O10   O     O_R   0.500000 0.575370 0.608750 -0.498138
O11   O     O_R   0.500000 0.424630 0.391250 -0.498138
O12   O     O_3   0.082636 0.666954 0.495309 -0.614791

loop_
_geom_bond_atom_site_label_1
_geom_bond_atom_site_label_2
_ccdc_geom_bond_type
C2    C4    A    
C9    C14   A    
C8    O10   A    
Cu1   Cu2   S    
C16   H14   S    
C15   H13   S    
C25   C27   A    
C17   H15   S    
C12   O6    A    
C11   C16   A    
C14   C18   A    
C9    C20   A    
C26   C28   A    
C35   C36   A    
C34   H4    S    
Cu2   O9    S    
C13   C17   A    
C6    N1    T    
C3    C5    S    
Cu2   O5    S    
Cu1   O10   S    
C2    C34   A    
Cu1   O6    S    
C4    C35   A    
C8    O9    A    
C27   C30   A    
C15   C19   A    
C12   O5    A    
C11   H10   S    
C14   H12   S    
C3    C36   A    
C16   C19   A    
C13   H11   S    
C23   C29   S    
C28   O2    S    
C4    C6    S    
C28   C29   A    
Cu1   O1    S    
C13   C20   A    
C20   C22   S    
C26   C30   A    
C5    N2    T    
C1    O1    A    
C10   C15   A    
C1    C32   S    
C10   C21   A    
C25   C29   A    
C30   C31   S    
C35   H3    S    
C22   C24   T    
C7    O8    A    
C7    O11   A    
C1    O7    A    
C9    H1    S    
Cu1   O8    S    
Cu2   O11   S    
C17   C18   A    
Cu2   O7    S    
C2    H16   S    
C21   C24   S    
C10   H9    S    
H7    O3    S    
C7    C19   S    
C27   O12   S    
C25   O3    S    
C3    C34   A    
H8    O4    S    
C12   C33   S    
Cu1   N2    S    
C26   O4    S    
C36   H2    S    
C11   C21   A    
C8    C18   S    
Cu2   N1    S    
C31   C32   T    
H6    O2    S    
H5    O12   S    
C23   C33   T    
