data_mof_unit_34514.cif
_audit_creation_date              2012-10-26T18:47:36-0400
_audit_creation_method            fapswitch 2.2
_symmetry_space_group_name_H-M    P1
_symmetry_Int_Tables_number       1
_space_group_crystal_system       triclinic
_cell_length_a                    10.914408
_cell_length_b                    12.98299
_cell_length_c                    11.630868
_cell_angle_alpha                 100.130961
_cell_angle_beta                  94.756738
_cell_angle_gamma                 90.29756
_cell_volume                      1616.49958188

loop_
_atom_site_label
_atom_site_type_symbol
_atom_type_description
_atom_site_fract_x
_atom_site_fract_y
_atom_site_fract_z
_atom_type_partial_charge
C1    C     C_R   0.498816 0.298905 0.478408 0.538455
C2    C     C_R   0.516009 0.985922 0.656894 -0.144764
C3    C     C_R   0.489957 0.122469 0.354232 -0.145515
C4    C     C_R   0.513629 0.877631 0.645889 -0.142888
C5    C     C_R   0.508633 0.139811 0.566592 -0.135337
C6    C     C_R   0.495956 0.860315 0.433530 -0.132763
C7    C     C_R   0.507672 0.031702 0.556346 0.047061
C8    C     C_R   0.497648 0.968425 0.443779 0.048290
C9    C     C_R   0.422907 0.375247 0.018478 -0.059315
C10   C     C_R   0.577898 0.624509 0.981580 -0.053677
C11   C     C_R   0.425303 0.392430 0.142327 0.050749
C12   C     C_R   0.501858 0.701114 0.521619 0.552792
C13   C     C_R   0.576343 0.606908 0.857741 0.049193
C14   C     C_R   0.527414 0.555992 0.159305 0.025906
C15   C     C_R   0.472313 0.444165 0.840718 0.025401
C16   C     C_R   0.260999 0.502768 0.500784 0.552936
C17   C     C_R   0.736728 0.487191 0.499131 0.548476
C18   C     C_R   0.526468 0.545939 0.035612 -0.009230
C19   C     C_R   0.473474 0.454162 0.964417 -0.009874
C20   C     C_R   0.080539 0.666840 0.184403 -0.121700
C21   C     C_R   0.815293 0.319775 0.816762 -0.114066
C22   C     C_R   0.065358 0.628218 0.287090 -0.092088
C23   C     C_R   0.870007 0.468849 0.499255 -0.018629
C24   C     C_R   0.859144 0.346735 0.716126 -0.081522
C25   C     C_R   0.088627 0.522858 0.292711 0.060352
C26   C     C_R   0.888463 0.451543 0.712447 0.062998
C27   C     C_R   0.131622 0.457504 0.195406 -0.067038
C28   C     C_R   0.868925 0.529315 0.809514 -0.077077
C29   C     C_R   0.144980 0.496219 0.092105 -0.107094
C30   C     C_R   0.831330 0.501202 0.911923 -0.106482
C31   C     C_R   0.118422 0.600490 0.086527 -0.113877
C32   C     C_R   0.802919 0.396841 0.915105 -0.100891
C33   C     C_R   0.926623 0.451801 0.392774 -0.030452
C34   C     C_R   0.125403 0.497317 0.503203 -0.019985
C35   C     C_R   0.070203 0.497897 0.611370 -0.029245
C36   C     C_3   0.368576 0.274377 0.943340 -0.283961
C37   C     C_3   0.321933 0.191762 0.010044 -0.306090
C38   C     C_3   0.272944 0.093904 0.925656 -0.448465
C39   C     C_3   0.633352 0.724976 0.056738 -0.283177
C40   C     C_3   0.683907 0.806050 0.990136 -0.306400
C41   C     C_3   0.734770 0.903238 0.074600 -0.450846
C42   C     C_3   0.858098 0.398390 0.276774 -0.233041
C43   C     C_3   0.804080 0.290842 0.286780 -0.282682
C44   C     C_3   0.736741 0.237403 0.171247 -0.456487
C45   C     C_R   0.942748 0.477656 0.607179 -0.034073
C46   C     C_3   0.141161 0.534102 0.731996 -0.217592
C47   C     C_3   0.165445 0.653463 0.753143 -0.277231
C48   C     C_3   0.280709 0.687547 0.834645 -0.433469
C49   C     C_R   0.050876 0.480764 0.395489 -0.038951
C50   C     C_R   0.503699 0.814583 0.534230 0.000401
C51   C     C_R   0.499225 0.185500 0.465867 -0.001444
C52   C     C_R   0.489127 0.014200 0.343223 -0.144702
Cu1   Cu    Cu3+1 0.509250 0.507730 0.615930 0.912675
Cu2   Cu    Cu3+1 0.490750 0.492270 0.384070 0.920020
H1    H     H_    0.124809 0.629766 0.006000 0.107775
H2    H     H_    0.524206 0.033721 0.743609 0.092901
H3    H     H_    0.195531 0.113887 0.865799 0.152658
H4    H     H_    0.346964 0.057680 0.873050 0.148313
H5    H     H_    0.239226 0.036052 0.976180 0.136851
H6    H     H_    0.398395 0.168685 0.068947 0.148673
H7    H     H_    0.246247 0.224241 0.062939 0.148103
H8    H     H_    0.290530 0.295174 0.884548 0.132561
H9    H     H_    0.440675 0.237700 0.888188 0.137820
H10   H     H_    0.661170 0.941122 0.126615 0.147030
H11   H     H_    0.810893 0.881966 0.135023 0.150004
H12   H     H_    0.770967 0.375959 0.993656 0.104416
H13   H     H_    0.770811 0.960211 0.024200 0.137310
H14   H     H_    0.759401 0.771515 0.938172 0.148390
H15   H     H_    0.609189 0.830454 0.930332 0.148652
H16   H     H_    0.561062 0.763194 0.110565 0.137985
H17   H     H_    0.709750 0.703467 0.116861 0.135064
H18   H     H_    0.059739 0.747491 0.179672 0.100039
H19   H     H_    0.792771 0.238934 0.819158 0.095432
H20   H     H_    0.031070 0.679353 0.360936 0.097934
H21   H     H_    0.871559 0.285963 0.641534 0.091982
H22   H     H_    0.148637 0.375818 0.197944 0.087064
H23   H     H_    0.428967 0.377193 0.783461 0.116487
H24   H     H_    0.888252 0.610786 0.807534 0.085982
H25   H     H_    0.173005 0.444917 0.015501 0.105951
H26   H     H_    0.823402 0.560512 0.988666 0.112104
H27   H     H_    0.660435 0.286640 0.144418 0.163877
H28   H     H_    0.801253 0.223260 0.101383 0.137618
H29   H     H_    0.697688 0.160894 0.182094 0.137186
H30   H     H_    0.879753 0.239890 0.311589 0.149502
H31   H     H_    0.738663 0.298312 0.355621 0.183907
H32   H     H_    0.787340 0.449572 0.244163 0.173846
H33   H     H_    0.920244 0.382903 0.205774 0.133228
H34   H     H_    0.570399 0.623126 0.216567 0.120151
H35   H     H_    0.293943 0.640047 0.905012 0.151331
H36   H     H_    0.361643 0.679581 0.782882 0.196676
H37   H     H_    0.274590 0.771231 0.875212 0.121355
H38   H     H_    0.175324 0.681557 0.669327 0.166562
H39   H     H_    0.084895 0.693498 0.791929 0.132681
H40   H     H_    0.093047 0.517247 0.806203 0.114704
H41   H     H_    0.223374 0.487303 0.746138 0.170360
H42   H     H_    0.488385 0.812032 0.346981 0.112864
H43   H     H_    0.516173 0.188114 0.653140 0.112496
H44   H     H_    0.615944 0.663641 0.813555 0.128329
H45   H     H_    0.386967 0.335102 0.186474 0.127971
H46   H     H_    0.519622 0.843366 0.724536 0.110416
H47   H     H_    0.482932 0.156741 0.275604 0.114699
H48   H     H_    0.481232 0.966422 0.256492 0.094486
N1    N     N_R   0.523180 0.519350 0.790130 -0.240326
N2    N     N_R   0.476820 0.480650 0.209870 -0.238886
O1    O     O_R   0.506570 0.354460 0.582000 -0.512262
O2    O     O_R   0.493430 0.645540 0.418000 -0.508055
O3    O     O_R   0.490940 0.341410 0.386200 -0.524982
O4    O     O_R   0.509060 0.658590 0.613800 -0.528910
O5    O     O_R   0.327460 0.506540 0.597900 -0.510860
O6    O     O_R   0.672540 0.493460 0.402100 -0.511623
O7    O     O_R   0.311830 0.493480 0.402100 -0.484604
O8    O     O_R   0.688170 0.506520 0.597900 -0.484801

loop_
_geom_bond_atom_site_label_1
_geom_bond_atom_site_label_2
_ccdc_geom_bond_type
C30   C32   A    
C23   C45   A    
C27   C29   A    
C47   H38   S    
C14   C18   A    
C2    C7    A    
C44   H29   S    
C17   O6    A    
C7    C8    A    
C41   H13   S    
Cu1   Cu2   S    
C15   C19   A    
C52   H48   S    
C17   C23   S    
Cu2   O3    S    
C6    C8    A    
C33   C42   S    
Cu2   N2    S    
C36   C37   S    
C24   C26   A    
C18   C19   A    
C44   H28   S    
C33   C49   A    
C21   H19   S    
Cu2   O6    S    
C11   H45   S    
C34   C35   A    
C13   H44   S    
C26   C45   S    
C16   C34   S    
C38   H4    S    
C9    C19   A    
C46   H41   S    
C12   C50   S    
C23   C33   A    
C22   C25   A    
C46   H40   S    
C9    C36   S    
C11   N2    A    
C42   H32   S    
C13   N1    A    
C36   H9    S    
C28   H24   S    
C8    C52   A    
C30   H26   S    
C3    H47   S    
C48   H36   S    
C43   H30   S    
C36   H8    S    
C16   O5    A    
C10   C18   A    
C21   C32   A    
C40   H15   S    
Cu2   O2    S    
C43   H31   S    
C44   H27   S    
C39   C40   S    
C5    C7    A    
C3    C51   A    
C41   H11   S    
C48   H37   S    
C4    C50   A    
C10   C39   S    
C2    C4    A    
C43   C44   S    
C37   C38   S    
C38   H3    S    
C9    C11   A    
C32   H12   S    
C14   N2    A    
C47   C48   S    
C29   H25   S    
C47   H39   S    
C6    C50   A    
C1    C51   S    
C1    O3    A    
Cu1   O8    S    
C40   C41   S    
C5    H43   S    
C6    H42   S    
C48   H35   S    
C4    H46   S    
C42   C43   S    
C22   H20   S    
C27   H22   S    
C35   C45   A    
C17   O8    A    
C12   O4    A    
Cu1   O5    S    
C46   C47   S    
C34   C49   A    
C20   H18   S    
C20   C22   A    
C10   C13   A    
C37   H7    S    
C3    C52   A    
C24   H21   S    
C25   C27   A    
C26   C28   A    
C31   H1    S    
C28   C30   A    
C14   H34   S    
C29   C31   A    
C2    H2    S    
C12   O2    A    
Cu1   O4    S    
C15   H23   S    
Cu1   N1    S    
C39   H16   S    
Cu2   O7    S    
C25   C49   S    
C37   H6    S    
C38   H5    S    
Cu1   O1    S    
C40   H14   S    
C21   C24   A    
C39   H17   S    
C5    C51   A    
C42   H33   S    
C41   H10   S    
C15   N1    A    
C35   C46   S    
C16   O7    A    
C1    O1    A    
C20   C31   A    
