data_mof_unit_59293.cif
_audit_creation_date              2012-12-10T20:25:43-0500
_audit_creation_method            fapswitch 2.2
_symmetry_space_group_name_H-M    P1
_symmetry_Int_Tables_number       1
_space_group_crystal_system       triclinic
_cell_length_a                    8.58796
_cell_length_b                    10.676194
_cell_length_c                    9.874922
_cell_angle_alpha                 89.967022
_cell_angle_beta                  98.461654
_cell_angle_gamma                 90.146914
_cell_volume                      895.540651155

loop_
_atom_site_label
_atom_site_type_symbol
_atom_type_description
_atom_site_fract_x
_atom_site_fract_y
_atom_site_fract_z
_atom_type_partial_charge
C1    C     C_R   0.509574 0.259961 0.500925 0.878077
C2    C     C_R   0.583647 0.932706 0.393635 -0.271401
C3    C     C_R   0.536421 0.870711 0.505874 -0.121701
C4    C     C_R   0.527844 0.935989 0.625990 0.135849
C5    C     C_3   0.408729 0.929639 0.721716 -0.469732
C6    C     C_3   0.412566 0.071524 0.722513 -0.482628
C7    C     C_R   0.363460 0.481913 0.054009 0.216201
C8    C     C_R   0.632283 0.528995 0.088700 -0.120412
C9    C     C_R   0.632344 0.528851 0.944944 -0.131730
C10   C     C_R   0.363165 0.482253 0.911514 0.214407
C11   C     C_3   0.259141 0.369485 0.893926 -0.510227
C12   C     C_R   0.201260 0.500169 0.464210 0.970312
C13   C     C_3   0.259929 0.369461 0.047680 -0.493772
C14   C     C_R   0.506214 0.739922 0.500821 0.884702
C15   C     C_R   0.798705 0.501316 0.535675 0.963791
C16   C     C_2   0.036170 0.498797 0.444826 -0.383922
C17   C     C_2   0.963640 0.505791 0.554509 -0.388541
C18   C     C_R   0.530802 0.063525 0.625743 0.131726
C19   C     C_R   0.542252 0.128474 0.505074 -0.164261
C20   C     C_R   0.588291 0.062778 0.392458 -0.024940
H1    H     H_    0.974831 0.490324 0.340706 0.171385
H2    H     H_    0.739890 0.550337 0.904857 0.149071
H3    H     H_    0.141292 0.389962 0.836000 0.198073
H4    H     H_    0.318574 0.287180 0.856823 0.215585
H5    H     H_    0.143131 0.391327 0.077539 0.199188
H6    H     H_    0.320296 0.286847 0.100038 0.224539
H7    H     H_    0.024924 0.515893 0.658224 0.169122
H8    H     H_    0.607447 0.880979 0.304415 0.173868
H9    H     H_    0.294111 0.890057 0.673033 0.201651
H10   H     H_    0.457619 0.887540 0.821948 0.208937
H11   H     H_    0.299661 0.114687 0.675530 0.201516
H12   H     H_    0.465216 0.110422 0.823317 0.211104
H13   H     H_    0.739781 0.550835 0.156059 0.144721
N1    N     N_R   0.498950 0.499140 0.142680 -0.104424
N2    N     N_R   0.498950 0.499180 0.857030 -0.106729
O1    O     O_R   0.500020 0.316790 0.614690 -0.612665
O2    O     O_R   0.500000 0.316760 0.385350 -0.611598
O3    O     O_R   0.271760 0.500010 0.587850 -0.613656
O4    O     O_R   0.271740 0.499970 0.358500 -0.625877
O5    O     O_R   0.500000 0.683240 0.614650 -0.619416
O6    O     O_R   0.499980 0.683210 0.385310 -0.624125
O7    O     O_R   0.728260 0.500030 0.641500 -0.635666
O8    O     O_R   0.728240 0.499990 0.412150 -0.620738
Zn1   Zn    Zn3+2 0.500010 0.500020 0.653130 0.940923
Zn2   Zn    Zn3+2 0.499990 0.499980 0.346870 0.948307
C21   C     C_1   0.631578 0.123622 0.272422 0.201412
N3    N     N_1   0.666238 0.172121 0.176270 -0.216306

loop_
_geom_bond_atom_site_label_1
_geom_bond_atom_site_label_2
_ccdc_geom_bond_type
C8    C9    A    
C7    C10   A    
C6    H12   S    
O3    Zn1   S    
C16   H1    S    
O2    Zn2   S    
O8    Zn2   S    
C19   C20   A    
C1    O2    A    
O4    Zn2   S    
C4    C18   A    
C12   O4    A    
C7    C13   S    
C2    C3    A    
C15   O8    A    
N1    Zn2   S    
C8    N1    A    
N2    Zn1   S    
C11   C13   S    
C13   H5    S    
C10   N2    A    
C3    C14   S    
O7    Zn1   S    
C14   O6    A    
C11   H3    S    
C6    H11   S    
C5    H9    S    
C8    H13   S    
C12   O3    A    
C5    C6    S    
C6    C18   S    
C7    N1    A    
C13   H6    S    
O1    Zn1   S    
C1    C19   S    
C10   C11   S    
C14   O5    A    
C3    C4    A    
C17   H7    S    
C16   C17   D    
C11   H4    S    
O5    Zn1   S    
C1    O1    A    
C15   C17   S    
C9    H2    S    
C5    H10   S    
C9    N2    A    
O6    Zn2   S    
C21   N3    T    
C18   C19   A    
C2    H8    S    
C2    C20   A    
C20   C21   S    
C12   C16   S    
C15   O7    A    
C4    C5    S    
