data_mof_unit_32573.cif
_audit_creation_date              2012-10-26T17:10:35-0400
_audit_creation_method            fapswitch 2.2
_symmetry_space_group_name_H-M    P1
_symmetry_Int_Tables_number       1
_space_group_crystal_system       triclinic
_cell_length_a                    16.923251
_cell_length_b                    16.92325
_cell_length_c                    16.923249
_cell_angle_alpha                 66.929132
_cell_angle_beta                  66.929131
_cell_angle_gamma                 66.929111
_cell_volume                      3936.53166605

loop_
_atom_site_label
_atom_site_type_symbol
_atom_type_description
_atom_site_fract_x
_atom_site_fract_y
_atom_site_fract_z
_atom_type_partial_charge
C1    C     C_R   0.588613 0.030875 0.602244 -0.119044
C2    C     C_R   0.397756 0.969125 0.411387 -0.119044
C3    C     C_R   0.030875 0.602244 0.588613 -0.119044
C4    C     C_R   0.969125 0.411387 0.397756 -0.119044
C5    C     C_R   0.602244 0.588613 0.030875 -0.119045
C6    C     C_R   0.411387 0.397756 0.969125 -0.119044
C7    C     C_R   0.032396 0.828995 0.563589 0.879268
C8    C     C_R   0.982213 0.169587 0.430735 0.897599
C9    C     C_R   0.828995 0.563589 0.032396 0.879269
C10   C     C_R   0.169587 0.430735 0.982214 0.897598
C11   C     C_R   0.563589 0.032396 0.828995 0.879269
C12   C     C_R   0.430735 0.982214 0.169587 0.897599
C13   C     C_R   0.436411 0.171005 0.967604 0.879268
C14   C     C_R   0.569265 0.830413 0.017786 0.897599
C15   C     C_R   0.967604 0.436411 0.171005 0.879269
C16   C     C_R   0.017786 0.569265 0.830413 0.897599
C17   C     C_R   0.171005 0.967604 0.436411 0.879268
C18   C     C_R   0.830413 0.017786 0.569265 0.897598
C19   C     C_R   0.533703 0.018565 0.556357 0.072987
C20   C     C_R   0.443643 0.981434 0.466297 0.072988
C21   C     C_R   0.018565 0.556357 0.533703 0.072987
C22   C     C_R   0.981435 0.466297 0.443643 0.072987
C23   C     C_R   0.556357 0.533703 0.018565 0.072988
C24   C     C_R   0.466297 0.443643 0.981435 0.072988
C25   C     C_R   0.570502 0.018851 0.464957 0.003963
C26   C     C_R   0.398932 0.995570 0.553125 -0.080130
C27   C     C_R   0.018852 0.464957 0.570502 0.003963
C28   C     C_R   0.995570 0.553125 0.398932 -0.080130
C29   C     C_R   0.464957 0.570502 0.018852 0.003963
C30   C     C_R   0.553125 0.398932 0.995570 -0.080129
C31   C     C_R   0.535043 0.981148 0.429498 0.003963
C32   C     C_R   0.446875 0.004429 0.601068 -0.080129
C33   C     C_R   0.429498 0.535043 0.981148 0.003963
C34   C     C_R   0.601068 0.446875 0.004430 -0.080129
C35   C     C_R   0.981149 0.429498 0.535043 0.003963
C36   C     C_R   0.004430 0.601068 0.446875 -0.080129
C37   C     C_R   0.549093 0.065062 0.677126 0.449633
C38   C     C_R   0.425818 0.996206 0.315994 0.448522
C39   C     C_R   0.065062 0.677126 0.549093 0.449633
C40   C     C_R   0.996206 0.315994 0.425817 0.448522
C41   C     C_R   0.677126 0.549093 0.065062 0.449632
C42   C     C_R   0.315994 0.425817 0.996206 0.448522
C43   C     C_R   0.322874 0.934938 0.450907 0.449633
C44   C     C_R   0.684006 0.003794 0.574183 0.448522
C45   C     C_R   0.450907 0.322874 0.934938 0.449632
C46   C     C_R   0.574183 0.684006 0.003794 0.448523
C47   C     C_R   0.934938 0.450907 0.322874 0.449632
C48   C     C_R   0.003794 0.574182 0.684006 0.448522
C49   C     C_R   0.600753 0.050617 0.731408 -0.253610
C50   C     C_R   0.389257 0.976190 0.266065 -0.282917
C51   C     C_R   0.050617 0.731408 0.600752 -0.253610
C52   C     C_R   0.976190 0.266065 0.389257 -0.282917
C53   C     C_R   0.731408 0.600752 0.050617 -0.253609
C54   C     C_R   0.266065 0.389257 0.976190 -0.282917
C55   C     C_R   0.268592 0.949383 0.399248 -0.253610
C56   C     C_R   0.733935 0.023810 0.610743 -0.282916
C57   C     C_R   0.399247 0.268592 0.949383 -0.253610
C58   C     C_R   0.610743 0.733935 0.023810 -0.282917
C59   C     C_R   0.949383 0.399248 0.268592 -0.253610
C60   C     C_R   0.023810 0.610743 0.733935 -0.282916
C61   C     C_R   0.691554 0.043157 0.692824 0.444159
C62   C     C_R   0.307176 0.956842 0.308446 0.444159
C63   C     C_R   0.043157 0.692824 0.691554 0.444159
C64   C     C_R   0.956842 0.308446 0.307176 0.444160
C65   C     C_R   0.692824 0.691554 0.043158 0.444159
C66   C     C_R   0.308446 0.307176 0.956842 0.444159
Cu1   Cu    Cu3+1 0.995180 0.995180 0.424630 1.038493
Cu2   Cu    Cu3+1 0.004820 0.004820 0.575370 1.038493
Cu3   Cu    Cu3+1 0.995180 0.424630 0.995180 1.038493
Cu4   Cu    Cu3+1 0.004820 0.575370 0.004820 1.038492
Cu5   Cu    Cu3+1 0.424630 0.995180 0.995180 1.038492
Cu6   Cu    Cu3+1 0.575370 0.004820 0.004820 1.038493
O1    O     O_R   0.124540 0.978640 0.385460 -0.525026
O2    O     O_R   0.875460 0.021360 0.614540 -0.525064
O3    O     O_R   0.978640 0.385460 0.124540 -0.525026
O4    O     O_R   0.021360 0.614540 0.875460 -0.525065
O5    O     O_R   0.385460 0.124540 0.978640 -0.525026
O6    O     O_R   0.614540 0.875460 0.021360 -0.525065
O7    O     O_R   0.614540 0.021360 0.875460 -0.525026
O8    O     O_R   0.385460 0.978640 0.124540 -0.525065
O9    O     O_R   0.875460 0.614540 0.021360 -0.525026
O10   O     O_R   0.124540 0.385460 0.978640 -0.525064
O11   O     O_R   0.021360 0.875460 0.614540 -0.525026
O12   O     O_R   0.978640 0.124540 0.385460 -0.525064
O13   O     O_R   0.013780 0.867370 0.487190 -0.569099
O14   O     O_R   0.986220 0.132630 0.512810 -0.578088
O15   O     O_R   0.867370 0.487190 0.013780 -0.569099
O16   O     O_R   0.132630 0.512810 0.986220 -0.578089
O17   O     O_R   0.487190 0.013780 0.867370 -0.569100
O18   O     O_R   0.512810 0.986220 0.132630 -0.578088
O19   O     O_R   0.512810 0.132630 0.986220 -0.569100
O20   O     O_R   0.487190 0.867370 0.013780 -0.578089
O21   O     O_R   0.986220 0.512810 0.132630 -0.569100
O22   O     O_R   0.013780 0.487190 0.867370 -0.578088
O23   O     O_R   0.132630 0.986220 0.512810 -0.569099
O24   O     O_R   0.867370 0.013780 0.487190 -0.578088
C67   C     C_R   0.402600 0.999633 0.697580 0.167005
C68   C     C_R   0.323877 0.066403 0.723647 -0.014750
C69   C     C_R   0.276703 0.056995 0.813927 -0.126049
C70   C     C_R   0.307836 0.981838 0.879015 -0.099096
C71   C     C_R   0.386054 0.916138 0.853782 -0.089359
C72   C     C_R   0.433407 0.924360 0.763618 -0.171874
H1    H     H_    0.298846 0.125048 0.673706 0.131171
H2    H     H_    0.215777 0.107571 0.833519 0.119732
H3    H     H_    0.271755 0.974732 0.949066 0.110481
H4    H     H_    0.410558 0.859725 0.904505 0.213417
H5    H     H_    0.493161 0.871943 0.745241 0.151969
C73   C     C_R   0.597328 0.918112 0.374932 0.158210
C74   C     C_R   0.648993 0.947283 0.286705 -0.086003
C75   C     C_R   0.701125 0.887151 0.235481 -0.157304
C76   C     C_R   0.702736 0.797042 0.271970 -0.080654
C77   C     C_R   0.653242 0.766737 0.360112 -0.138985
C78   C     C_R   0.600702 0.826830 0.411305 -0.166196
H6    H     H_    0.647185 0.016940 0.256749 0.142027
H7    H     H_    0.739571 0.910649 0.167171 0.122699
H8    H     H_    0.742315 0.750631 0.232034 0.192522
H9    H     H_    0.654898 0.696797 0.388531 0.161156
H10   H     H_    0.561661 0.802402 0.479170 0.145755
C79   C     C_R   0.999633 0.697580 0.402599 0.167005
C80   C     C_R   0.066404 0.723647 0.323877 -0.014749
C81   C     C_R   0.056995 0.813927 0.276703 -0.126049
C82   C     C_R   0.981838 0.879015 0.307836 -0.099097
C83   C     C_R   0.916138 0.853782 0.386053 -0.089358
C84   C     C_R   0.924360 0.763618 0.433407 -0.171874
H11   H     H_    0.125049 0.673706 0.298846 0.131171
H12   H     H_    0.107571 0.833519 0.215777 0.119732
H13   H     H_    0.974732 0.949066 0.271755 0.110481
H14   H     H_    0.859725 0.904505 0.410558 0.213417
H15   H     H_    0.871944 0.745241 0.493160 0.151969
C85   C     C_R   0.918113 0.374931 0.597328 0.158210
C86   C     C_R   0.947284 0.286705 0.648993 -0.086003
C87   C     C_R   0.887152 0.235481 0.701125 -0.157304
C88   C     C_R   0.797043 0.271970 0.702736 -0.080654
C89   C     C_R   0.766738 0.360111 0.653242 -0.138985
C90   C     C_R   0.826831 0.411305 0.600702 -0.166196
H16   H     H_    0.016940 0.256749 0.647185 0.142027
H17   H     H_    0.910650 0.167170 0.739572 0.122699
H18   H     H_    0.750632 0.232033 0.742315 0.192522
H19   H     H_    0.696798 0.388531 0.654898 0.161156
H20   H     H_    0.802403 0.479170 0.561661 0.145755
C91   C     C_R   0.697580 0.402599 0.999633 0.167006
C92   C     C_R   0.723647 0.323877 0.066403 -0.014749
C93   C     C_R   0.813927 0.276703 0.056994 -0.126049
C94   C     C_R   0.879015 0.307836 0.981838 -0.099097
C95   C     C_R   0.853782 0.386054 0.916138 -0.089358
C96   C     C_R   0.763618 0.433407 0.924360 -0.171875
H21   H     H_    0.673706 0.298846 0.125048 0.131171
H22   H     H_    0.833519 0.215778 0.107570 0.119732
H23   H     H_    0.949066 0.271755 0.974732 0.110481
H24   H     H_    0.904505 0.410558 0.859724 0.213417
H25   H     H_    0.745240 0.493161 0.871943 0.151969
C97   C     C_R   0.374931 0.597328 0.918113 0.158210
C98   C     C_R   0.286704 0.648993 0.947285 -0.086003
C99   C     C_R   0.235480 0.701125 0.887153 -0.157304
C100  C     C_R   0.271968 0.702736 0.797044 -0.080654
C101  C     C_R   0.360110 0.653242 0.766739 -0.138985
C102  C     C_R   0.411304 0.600702 0.826831 -0.166196
H26   H     H_    0.256749 0.647185 0.016941 0.142027
H27   H     H_    0.167169 0.739571 0.910651 0.122698
H28   H     H_    0.232031 0.742315 0.750634 0.192522
H29   H     H_    0.388529 0.654897 0.696798 0.161156
H30   H     H_    0.479169 0.561661 0.802403 0.145755
C103  C     C_R   0.302420 0.000367 0.597401 0.167006
C104  C     C_R   0.276353 0.933596 0.676123 -0.014750
C105  C     C_R   0.186073 0.943005 0.723297 -0.126049
C106  C     C_R   0.120985 0.018162 0.692164 -0.099097
C107  C     C_R   0.146218 0.083862 0.613946 -0.089358
C108  C     C_R   0.236382 0.075640 0.566593 -0.171874
H31   H     H_    0.326294 0.874951 0.701154 0.131171
H32   H     H_    0.166481 0.892429 0.784223 0.119732
H33   H     H_    0.050934 0.025268 0.728245 0.110481
H34   H     H_    0.095495 0.140275 0.589442 0.213417
H35   H     H_    0.254760 0.128056 0.506839 0.151969
C109  C     C_R   0.625069 0.081887 0.402672 0.158211
C110  C     C_R   0.713295 0.052715 0.351007 -0.086003
C111  C     C_R   0.764519 0.112848 0.298875 -0.157304
C112  C     C_R   0.728030 0.202957 0.297264 -0.080654
C113  C     C_R   0.639889 0.233262 0.346758 -0.138985
C114  C     C_R   0.588696 0.173169 0.399298 -0.166196
H36   H     H_    0.743251 0.983059 0.352815 0.142027
H37   H     H_    0.832830 0.089349 0.260428 0.122698
H38   H     H_    0.767967 0.249367 0.257685 0.192522
H39   H     H_    0.611470 0.303202 0.345102 0.161156
H40   H     H_    0.520830 0.197597 0.438339 0.145755
C115  C     C_R   0.597400 0.302420 0.000367 0.167006
C116  C     C_R   0.676123 0.276353 0.933597 -0.014750
C117  C     C_R   0.723297 0.186073 0.943005 -0.126049
C118  C     C_R   0.692164 0.120985 0.018162 -0.099097
C119  C     C_R   0.613946 0.146218 0.083862 -0.089359
C120  C     C_R   0.566593 0.236382 0.075640 -0.171874
H41   H     H_    0.701154 0.326294 0.874952 0.131171
H42   H     H_    0.784222 0.166481 0.892430 0.119732
H43   H     H_    0.728245 0.050934 0.025268 0.110481
H44   H     H_    0.589442 0.095495 0.140275 0.213417
H45   H     H_    0.506839 0.254760 0.128057 0.151969
C121  C     C_R   0.402672 0.625069 0.081887 0.158210
C122  C     C_R   0.351007 0.713296 0.052715 -0.086003
C123  C     C_R   0.298875 0.764520 0.112847 -0.157304
C124  C     C_R   0.297264 0.728032 0.202956 -0.080654
C125  C     C_R   0.346758 0.639891 0.233261 -0.138985
C126  C     C_R   0.399298 0.588697 0.173169 -0.166196
H46   H     H_    0.352815 0.743251 0.983059 0.142027
H47   H     H_    0.260429 0.832831 0.089349 0.122698
H48   H     H_    0.257686 0.767969 0.249366 0.192522
H49   H     H_    0.345103 0.611471 0.303201 0.161156
H50   H     H_    0.438340 0.520831 0.197597 0.145756
C127  C     C_R   0.000367 0.597400 0.302420 0.167005
C128  C     C_R   0.933597 0.676123 0.276353 -0.014749
C129  C     C_R   0.943005 0.723297 0.186073 -0.126050
C130  C     C_R   0.018162 0.692164 0.120985 -0.099097
C131  C     C_R   0.083862 0.613946 0.146218 -0.089359
C132  C     C_R   0.075640 0.566593 0.236381 -0.171874
H51   H     H_    0.874952 0.701154 0.326294 0.131171
H52   H     H_    0.892429 0.784223 0.166481 0.119732
H53   H     H_    0.025267 0.728245 0.050934 0.110481
H54   H     H_    0.140275 0.589442 0.095495 0.213417
H55   H     H_    0.128057 0.506839 0.254759 0.151969
C133  C     C_R   0.081888 0.402672 0.625068 0.158210
C134  C     C_R   0.052717 0.351007 0.713295 -0.086003
C135  C     C_R   0.112850 0.298875 0.764518 -0.157304
C136  C     C_R   0.202959 0.297264 0.728029 -0.080654
C137  C     C_R   0.233263 0.346758 0.639888 -0.138984
C138  C     C_R   0.173170 0.399298 0.588695 -0.166196
H56   H     H_    0.983061 0.352815 0.743251 0.142027
H57   H     H_    0.089351 0.260428 0.832829 0.122699
H58   H     H_    0.249369 0.257685 0.767966 0.192522
H59   H     H_    0.303203 0.345102 0.611468 0.161156
H60   H     H_    0.197597 0.438340 0.520829 0.145756
F1    F     F_    0.464969 0.120329 0.693032 -0.663921
F2    F     F_    0.481145 0.049085 0.271847 -0.702018
F3    F     F_    0.120329 0.693032 0.464969 -0.663921
F4    F     F_    0.049086 0.271847 0.481145 -0.702017
F5    F     F_    0.693032 0.464969 0.120329 -0.663921
F6    F     F_    0.271847 0.481145 0.049086 -0.702017
F7    F     F_    0.306968 0.879671 0.535031 -0.663921
F8    F     F_    0.728153 0.950914 0.518855 -0.702017
F9    F     F_    0.535031 0.306968 0.879671 -0.663921
F10   F     F_    0.518855 0.728153 0.950914 -0.702018
F11   F     F_    0.879671 0.535031 0.306968 -0.663921
F12   F     F_    0.950915 0.518854 0.728153 -0.702018
F13   F     F_    0.738667 0.051291 0.737065 -0.621581
F14   F     F_    0.262935 0.948709 0.261333 -0.621582
F15   F     F_    0.051291 0.737065 0.738667 -0.621582
F16   F     F_    0.948709 0.261333 0.262935 -0.621582
F17   F     F_    0.737065 0.738667 0.051291 -0.621582
F18   F     F_    0.261333 0.262935 0.948709 -0.621582

loop_
_geom_bond_atom_site_label_1
_geom_bond_atom_site_label_2
_ccdc_geom_bond_type
C25   C31   A    
C15   O3    A    
C41   F5    S    
C34   C91   S    
C26   C32   A    
C125  H49   S    
C6    C45   A    
Cu2   O14   S    
C31   C73   S    
C26   C103  S    
C7    O11   A    
C85   C90   A    
C70   H3    S    
C57   C66   A    
Cu4   O16   S    
C90   H20   S    
C109  C114  A    
C67   C68   A    
C133  C134  A    
C107  H34   S    
C115  C120  A    
C38   F2    S    
C21   C36   A    
C79   C84   A    
C32   C67   S    
C37   F1    S    
C22   C35   A    
C10   O16   A    
C59   C64   A    
C128  H51   S    
C88   C89   A    
C60   C63   A    
C23   C29   A    
C12   O18   A    
C104  C105  A    
C114  H40   S    
Cu6   O7    S    
C135  H57   S    
C44   F8    S    
C130  C131  A    
C95   C96   A    
C77   H9    S    
C13   C57   S    
C132  H55   S    
Cu2   O2    S    
C93   C94   A    
C55   C62   A    
C29   C33   A    
C3    C48   A    
C98   H26   S    
C18   O24   A    
C73   C74   A    
C16   C60   S    
C82   H13   S    
C36   C79   S    
Cu4   O9    S    
C2    C38   A    
C109  C110  A    
C77   C78   A    
Cu6   O6    S    
Cu3   O10   S    
C1    C44   A    
C134  H56   S    
C75   C76   A    
C91   C92   A    
C25   C109  S    
C99   C100  A    
Cu5   O20   S    
C4    C40   A    
C128  C129  A    
C5    C23   S    
C22   C28   A    
C125  C126  A    
C126  H50   S    
C5    C41   A    
C48   C60   A    
C76   H8    S    
Cu1   O1    S    
C40   F4    S    
C53   C65   A    
C17   C55   S    
C67   C72   A    
Cu3   O15   S    
C18   C56   S    
C83   C84   A    
C14   O6    A    
C131  H54   S    
C21   C27   A    
C3    C39   A    
Cu1   O12   S    
C18   O2    A    
C16   O4    A    
C46   C58   A    
C17   O1    A    
C106  C107  A    
C111  H37   S    
C11   O7    A    
C10   C54   S    
C19   C32   A    
C119  H44   S    
C96   H25   S    
C135  C136  A    
C48   F12   S    
C107  C108  A    
C62   F14   S    
C100  C101  A    
C24   C30   A    
Cu3   Cu4   S    
C61   F13   S    
C108  H35   S    
C14   C58   S    
C13   O5    A    
Cu1   O13   S    
Cu2   O23   S    
C49   C61   A    
C30   C34   A    
C2    C20   S    
Cu1   Cu2   S    
C71   C72   A    
C113  C114  A    
C133  C138  A    
C71   H4    S    
C104  H31   S    
Cu3   O22   S    
C52   C64   A    
C89   H19   S    
Cu6   O19   S    
C138  H60   S    
C87   C88   A    
C102  H30   S    
C27   C35   A    
C87   H17   S    
C40   C52   A    
C1    C19   S    
C47   C59   A    
C136  H58   S    
C10   O10   A    
C119  C120  A    
C127  C128  A    
C118  C119  A    
C73   C78   A    
C113  H39   S    
C30   C115  S    
C28   C36   A    
C39   F3    S    
C94   H23   S    
C11   C49   S    
C129  H52   S    
C45   C57   A    
C136  C137  A    
C37   C49   A    
C44   C56   A    
C58   C65   A    
C131  C132  A    
Cu5   O17   S    
C2    C43   A    
C79   C80   A    
C23   C34   A    
C63   F15   S    
C11   O17   A    
Cu4   O21   S    
C129  C130  A    
C39   C51   A    
Cu5   O8    S    
C51   C63   A    
C122  H46   S    
C56   C61   A    
C88   H18   S    
C35   C85   S    
C41   C53   A    
Cu1   O24   S    
C123  C124  A    
C106  H33   S    
C74   H6    S    
C17   O23   A    
C120  H45   S    
C43   C55   A    
C111  C112  A    
C13   O19   A    
C14   O20   A    
C101  H29   S    
C112  C113  A    
C65   F17   S    
Cu4   O4    S    
C124  H48   S    
C50   C62   A    
C47   F11   S    
C3    C21   S    
C9    C53   S    
Cu3   O3    S    
C86   C87   A    
C72   H5    S    
Cu5   O5    S    
C99   H27   S    
C80   C81   A    
C112  H38   S    
C116  H41   S    
C105  H32   S    
C134  C135  A    
C4    C22   S    
C8    C52   S    
C97   C102  A    
C101  C102  A    
C76   C77   A    
C66   F18   S    
C100  H28   S    
C8    O12   A    
Cu2   O11   S    
C15   C59   S    
C92   H21   S    
C95   H24   S    
C121  C122  A    
C33   C97   S    
C64   F16   S    
C15   O21   A    
C12   C50   S    
C127  C132  A    
C81   C82   A    
C82   C83   A    
C6    C24   S    
C38   C50   A    
C1    C37   A    
C29   C121  S    
C5    C46   A    
C89   C90   A    
C16   O22   A    
C24   C33   A    
C69   C70   A    
C94   C95   A    
C86   H16   S    
C85   C86   A    
C116  C117  A    
C103  C108  A    
C81   H12   S    
C110  C111  A    
C43   F7    S    
C74   C75   A    
C42   C54   A    
C42   F6    S    
C115  C116  A    
C7    O13   A    
C20   C26   A    
C137  H59   S    
C12   O8    A    
C75   H7    S    
C80   H11   S    
C117  H42   S    
C84   H15   S    
C69   H2    S    
C8    O14   A    
C46   F10   S    
C122  C123  A    
C19   C25   A    
C45   F9    S    
C93   H22   S    
C103  C104  A    
C118  H43   S    
C130  H53   S    
C110  H36   S    
C7    C51   S    
C78   H10   S    
C105  C106  A    
C124  C125  A    
Cu5   Cu6   S    
C97   C98   A    
C117  C118  A    
C27   C133  S    
C68   C69   A    
C6    C42   A    
C83   H14   S    
C123  H47   S    
C91   C96   A    
C28   C127  S    
C92   C93   A    
C70   C71   A    
Cu6   O18   S    
C121  C126  A    
C54   C66   A    
C137  C138  A    
C4    C47   A    
C9    O15   A    
C68   H1    S    
C9    O9    A    
C98   C99   A    
C20   C31   A    
