data_mof_unit_55700.cif
_audit_creation_date              2012-12-10T18:53:01-0500
_audit_creation_method            fapswitch 2.2
_symmetry_space_group_name_H-M    P1
_symmetry_Int_Tables_number       1
_space_group_crystal_system       triclinic
_cell_length_a                    9.897473
_cell_length_b                    10.677098
_cell_length_c                    16.859184
_cell_angle_alpha                 91.059066
_cell_angle_beta                  86.304555
_cell_angle_gamma                 90.992575
_cell_volume                      1777.37550388

loop_
_atom_site_label
_atom_site_type_symbol
_atom_type_description
_atom_site_fract_x
_atom_site_fract_y
_atom_site_fract_z
_atom_type_partial_charge
C1    C     C_R   0.500788 0.739889 0.500532 0.867424
C2    C     C_R   0.499215 0.260113 0.499460 0.865804
C3    C     C_R   0.614919 0.936847 0.468553 -0.202515
C4    C     C_R   0.385116 0.063166 0.531455 -0.201366
C5    C     C_R   0.613518 0.065169 0.467445 -0.183611
C6    C     C_R   0.386493 0.934845 0.532533 -0.184997
C7    C     C_R   0.498611 0.127592 0.498925 -0.008013
C8    C     C_R   0.501400 0.872418 0.501058 -0.009703
C9    C     C_R   0.929173 0.408871 0.460426 -0.121361
C10   C     C_R   0.070814 0.591024 0.539682 -0.121175
C11   C     C_R   0.072455 0.407681 0.460257 0.246473
C12   C     C_R   0.927464 0.591967 0.540120 0.246957
C13   C     C_R   0.482459 0.502804 0.652810 0.873073
C14   C     C_R   0.517450 0.493867 0.347231 0.873273
C15   C     C_R   0.474088 0.510833 0.738933 -0.081251
C16   C     C_R   0.525000 0.461914 0.262846 -0.080908
C17   C     C_R   0.588674 0.548549 0.778447 -0.211652
C18   C     C_R   0.408744 0.415122 0.228415 -0.222980
C19   C     C_R   0.585044 0.550215 0.861054 0.243449
C20   C     C_R   0.413905 0.377883 0.149005 0.243856
C21   C     C_R   0.464729 0.511306 0.903499 0.168353
C22   C     C_R   0.536587 0.393915 0.102771 0.179239
C23   C     C_R   0.348103 0.481370 0.864311 -0.217212
C24   C     C_R   0.654670 0.432709 0.138030 -0.212373
C25   C     C_R   0.352588 0.481056 0.782051 -0.208171
C26   C     C_R   0.649151 0.466184 0.218088 -0.208526
C27   C     C_2   0.460671 0.491959 0.988182 -0.215495
C28   C     C_2   0.536275 0.403396 0.017194 -0.234463
H1    H     H_    0.681372 0.575531 0.745018 0.153596
H2    H     H_    0.313140 0.407305 0.262988 0.162779
H3    H     H_    0.740674 0.499159 0.244208 0.163573
H4    H     H_    0.262686 0.453449 0.752297 0.165209
H5    H     H_    0.606988 0.349151 0.979047 0.158621
H6    H     H_    0.390782 0.546743 0.026611 0.167095
H7    H     H_    0.255445 0.452890 0.897371 0.146638
H8    H     H_    0.748790 0.445696 0.102370 0.143006
H9    H     H_    0.703002 0.888254 0.442968 0.148220
H10   H     H_    0.297082 0.111759 0.557100 0.147919
H11   H     H_    0.701248 0.115364 0.441565 0.145909
H12   H     H_    0.298758 0.884656 0.558410 0.145591
H13   H     H_    0.874928 0.336026 0.429478 0.141914
H14   H     H_    0.125089 0.663681 0.570773 0.141699
N1    N     N_R   0.142790 0.500030 0.500020 -0.097359
N2    N     N_R   0.857210 0.499970 0.499980 -0.097098
O1    O     O_R   0.385380 0.683250 0.500010 -0.622874
O2    O     O_R   0.614620 0.316750 0.499990 -0.623467
O3    O     O_R   0.614710 0.683220 0.500000 -0.623807
O4    O     O_R   0.385290 0.316780 0.500000 -0.625344
O5    O     O_R   0.371780 0.500040 0.615800 -0.617116
O6    O     O_R   0.628220 0.499960 0.384200 -0.616236
O7    O     O_R   0.601110 0.500010 0.615800 -0.622876
O8    O     O_R   0.398890 0.499990 0.384200 -0.624013
Zn1   Zn    Zn3+2 0.346870 0.500020 0.500000 0.941140
Zn2   Zn    Zn3+2 0.653130 0.499980 0.500000 0.942313
C29   C     C_3   0.286403 0.326319 0.115306 -0.959525
H15   H     H_    0.245361 0.247685 0.152279 0.244146
H16   H     H_    0.209507 0.400859 0.115802 0.239027
H17   H     H_    0.304470 0.289508 0.053637 0.256812
C30   C     C_3   0.708354 0.594394 0.902481 -0.934409
H18   H     H_    0.787546 0.633786 0.859897 0.234913
H19   H     H_    0.679682 0.668900 0.946898 0.249977
H20   H     H_    0.753427 0.515493 0.932805 0.238758
C31   C     C_3   0.142910 0.299689 0.418384 -0.854224
H21   H     H_    0.078221 0.254063 0.374385 0.194697
H22   H     H_    0.236592 0.330446 0.385240 0.268237
H23   H     H_    0.164942 0.228161 0.462336 0.242431
C32   C     C_3   0.856659 0.698593 0.583433 -0.851478
H24   H     H_    0.923187 0.746037 0.625740 0.193259
H25   H     H_    0.830145 0.769610 0.540229 0.244400
H26   H     H_    0.765932 0.665852 0.618873 0.265817

loop_
_geom_bond_atom_site_label_1
_geom_bond_atom_site_label_2
_ccdc_geom_bond_type
C30   H18   S    
C29   H15   S    
C31   H22   S    
C14   O8    A    
C11   N1    A    
C18   H2    S    
C5    C7    A    
C10   H14   S    
C1    C8    S    
C17   H1    S    
C18   C20   A    
C2    C7    S    
C13   C15   S    
C32   H26   S    
C2    O4    A    
O7    Zn2   S    
C25   H4    S    
C29   H16   S    
C21   C27   S    
C31   H23   S    
O1    Zn1   S    
C26   H3    S    
C12   N2    A    
C22   C28   S    
C2    O2    A    
C9    C11   A    
C24   C26   A    
C1    O1    A    
C6    H12   S    
C24   H8    S    
C10   C12   A    
C20   C29   S    
C13   O5    A    
C22   C24   A    
C16   C18   A    
C19   C21   A    
O2    Zn2   S    
C4    H10   S    
C28   H5    S    
C23   H7    S    
C5    H11   S    
C27   H6    S    
C16   C26   A    
O4    Zn1   S    
C12   C32   S    
C14   C16   S    
C30   H19   S    
O5    Zn1   S    
C15   C25   A    
C14   O6    A    
C31   H21   S    
N2    Zn2   S    
O6    Zn2   S    
C23   C25   A    
O8    Zn1   S    
C3    H9    S    
C4    C6    A    
C3    C8    A    
C29   H17   S    
C32   H25   S    
C27   C28   D    
C15   C17   A    
C4    C7    A    
C17   C19   A    
C9    N2    A    
C6    C8    A    
C30   H20   S    
C19   C30   S    
C10   N1    A    
C13   O7    A    
C11   C31   S    
C9    H13   S    
C21   C23   A    
N1    Zn1   S    
C1    O3    A    
C32   H24   S    
O3    Zn2   S    
C20   C22   A    
C3    C5    A    
