data_mof_unit_21449.cif
_audit_creation_date              2012-12-11T14:34:05-0500
_audit_creation_method            fapswitch 2.2
_symmetry_space_group_name_H-M    P1
_symmetry_Int_Tables_number       1
_space_group_crystal_system       triclinic
_cell_length_a                    14.37171
_cell_length_b                    14.468278
_cell_length_c                    27.516904
_cell_angle_alpha                 89.697924
_cell_angle_beta                  90.900686
_cell_angle_gamma                 119.27689
_cell_volume                      4990.20940128

loop_
_atom_site_label
_atom_site_type_symbol
_atom_type_description
_atom_site_fract_x
_atom_site_fract_y
_atom_site_fract_z
_atom_type_partial_charge
C1    C     C_R   0.244911 0.780366 0.571564 0.537094
C2    C     C_R   0.221054 0.464872 0.571693 0.541906
C3    C     C_R   0.542526 0.759057 0.570390 0.539641
C4    C     C_3   0.670474 0.722154 0.788546 0.060122
C5    C     C_3   0.277336 0.950128 0.787818 0.059756
C6    C     C_3   0.050742 0.327159 0.788040 0.064143
C7    C     C_3   0.635737 0.704445 0.733639 0.011465
C8    C     C_3   0.296245 0.933435 0.733831 0.010399
C9    C     C_3   0.068312 0.361913 0.733528 0.016477
C10   C     C_1   0.710391 0.849994 0.860176 0.011536
C11   C     C_1   0.150780 0.862782 0.859659 0.001307
C12   C     C_1   0.147372 0.298060 0.863777 0.008122
C13   C     C_1   0.597955 0.791111 0.662517 -0.018313
C14   C     C_1   0.205934 0.808401 0.662015 -0.017282
C15   C     C_1   0.194373 0.400312 0.662166 -0.016941
C16   C     C_1   0.574007 0.778325 0.620093 0.004281
C17   C     C_1   0.220501 0.795437 0.620039 0.003121
C18   C     C_1   0.208093 0.427260 0.620170 0.003231
C19   C     C_R   0.090426 0.195457 0.094302 0.603243
C20   C     C_R   0.790279 0.889105 0.090939 0.586424
C21   C     C_R   0.108986 0.905074 0.092332 0.587634
C22   C     C_R   0.089140 0.195848 0.946038 0.559542
C23   C     C_R   0.798983 0.893232 0.946742 0.550405
C24   C     C_R   0.105483 0.908820 0.945912 0.549026
C25   C     C_R   0.595765 0.877704 0.357284 -0.131867
C26   C     C_R   0.122720 0.717454 0.357273 -0.134181
C27   C     C_R   0.285652 0.409256 0.357252 -0.131613
C28   C     C_R   0.628715 0.897303 0.309127 -0.015693
C29   C     C_R   0.104083 0.732103 0.309113 -0.013793
C30   C     C_R   0.270833 0.374517 0.309258 -0.012035
C31   C     C_R   0.695508 0.935309 0.212067 0.055514
C32   C     C_R   0.065203 0.760180 0.212093 0.049056
C33   C     C_R   0.239270 0.305249 0.212184 0.063146
C34   C     C_R   0.243397 0.780070 0.428575 0.550855
C35   C     C_R   0.219585 0.462459 0.428683 0.554515
C36   C     C_R   0.539684 0.758074 0.429121 0.550557
C37   C     C_R   0.680236 0.016170 0.238239 0.165671
C38   C     C_R   0.986088 0.663952 0.238742 0.141345
C39   C     C_R   0.336168 0.321720 0.238568 0.159431
C40   C     C_R   0.648800 0.994808 0.286194 -0.089276
C41   C     C_R   0.013915 0.657260 0.287650 -0.092402
C42   C     C_R   0.349992 0.359131 0.285970 -0.093248
C43   C     C_R   0.731530 0.950568 0.163726 0.109154
C44   C     C_R   0.049342 0.779362 0.163668 0.057269
C45   C     C_R   0.220620 0.273326 0.163392 0.104204
C46   C     C_R   0.744997 0.870151 0.139735 0.023390
C47   C     C_R   0.130529 0.874450 0.139656 0.007348
C48   C     C_R   0.123813 0.255192 0.139471 0.027703
C49   C     C_R   0.588234 0.701898 0.355275 -0.116498
C50   C     C_R   0.295354 0.888347 0.355819 -0.114719
C51   C     C_R   0.111859 0.404788 0.355621 -0.118309
C52   C     C_R   0.623674 0.717365 0.307880 0.036633
C53   C     C_R   0.282046 0.907403 0.307888 0.032715
C54   C     C_R   0.093360 0.373767 0.307717 0.036189
C55   C     C_R   0.642862 0.816693 0.284351 0.024965
C56   C     C_R   0.183167 0.826667 0.284326 0.026353
C57   C     C_R   0.174107 0.356882 0.284315 0.025416
C58   C     C_R   0.638310 0.636903 0.283207 0.125361
C59   C     C_R   0.362496 0.002197 0.283459 0.128687
C60   C     C_R   0.996926 0.357277 0.283315 0.130383
C61   C     C_R   0.669703 0.657363 0.235251 -0.072682
C62   C     C_R   0.343570 0.013580 0.235472 -0.070284
C63   C     C_R   0.982312 0.323255 0.235553 -0.059222
C64   C     C_R   0.690538 0.754692 0.211288 0.008543
C65   C     C_R   0.246686 0.936900 0.211348 0.009718
C66   C     C_R   0.060967 0.306356 0.211198 0.008292
C67   C     C_3   0.543573 0.818432 0.744405 -0.226062
C68   C     C_3   0.178566 0.723514 0.744470 -0.204372
C69   C     C_3   0.277678 0.458182 0.744824 -0.201824
C70   C     C_R   0.676421 0.835678 0.235773 -0.036846
C71   C     C_R   0.164743 0.841907 0.235703 -0.027673
C72   C     C_R   0.158032 0.322527 0.235749 -0.042355
C73   C     C_R   0.724844 0.772080 0.163192 0.095239
C74   C     C_R   0.229889 0.952587 0.162933 0.098636
C75   C     C_R   0.044713 0.274398 0.162876 0.131894
C76   C     C_R   0.577201 0.781573 0.379813 0.001543
C77   C     C_R   0.216969 0.796405 0.380008 0.003107
C78   C     C_R   0.205608 0.422436 0.379907 -0.000761
C79   C     C_3   0.751098 0.914571 0.723499 0.021148
C80   C     C_3   0.085781 0.831159 0.721607 0.043084
C81   C     C_3   0.164978 0.250594 0.724410 0.014575
C82   C     C_3   0.782813 0.932091 0.782982 -0.054417
C83   C     C_3   0.071749 0.839052 0.777637 -0.036579
C84   C     C_3   0.142371 0.214558 0.785537 -0.030788
C85   C     C_1   0.745942 0.871886 0.900790 -0.011030
C86   C     C_1   0.130237 0.878861 0.900374 -0.016595
C87   C     C_1   0.125005 0.255534 0.903557 0.005487
C88   C     C_3   0.631111 0.806793 0.714454 0.074300
C89   C     C_3   0.192133 0.824271 0.714171 0.068997
C90   C     C_3   0.177585 0.369182 0.714435 0.073267
C91   C     C_3   0.576235 0.837045 0.799116 -0.015171
C92   C     C_3   0.162740 0.738854 0.798678 0.011952
C93   C     C_3   0.262485 0.422732 0.798446 0.017351
C94   C     C_3   0.686061 0.835284 0.807888 0.097474
C95   C     C_3   0.167582 0.848038 0.807097 0.144306
C96   C     C_3   0.150712 0.315062 0.808915 0.134359
Cr1   Cr    Cr6+3 0.164410 0.584450 0.499910 1.020710
Cr2   Cr    Cr6+3 0.415550 0.579960 0.499910 1.019075
Cr3   Cr    Cr6+3 0.420040 0.835590 0.499910 1.019186
Cr4   Cr    Cr6+3 0.155170 0.075460 0.019960 1.016220
Cr5   Cr    Cr6+3 0.924540 0.079710 0.019960 1.004783
Cr6   Cr    Cr6+3 0.920290 0.844830 0.019960 1.028896
H1    H     H_    0.589263 0.916098 0.809720 0.124650
H2    H     H_    0.084231 0.672192 0.809866 0.111954
H3    H     H_    0.333274 0.415766 0.809832 0.116237
H4    H     H_    0.640826 0.056608 0.305163 0.138750
H5    H     H_    0.960363 0.587229 0.309520 0.128084
H6    H     H_    0.424192 0.376305 0.304712 0.132709
H7    H     H_    0.536903 0.888761 0.732009 0.110555
H8    H     H_    0.111576 0.646159 0.731656 0.100932
H9    H     H_    0.357785 0.470597 0.732901 0.092478
H10   H     H_    0.778756 0.001101 0.792359 0.165520
H11   H     H_    0.994320 0.772512 0.789438 0.142855
H12   H     H_    0.221822 0.212682 0.795672 0.130599
H13   H     H_    0.556328 0.632181 0.729617 0.156029
H14   H     H_    0.373417 0.930808 0.731107 0.156480
H15   H     H_    0.076036 0.442877 0.729978 0.155962
O1    O     O_R   0.137150 0.468200 0.553200 -0.501650
O2    O     O_R   0.531800 0.668950 0.553200 -0.505563
O3    O     O_R   0.331050 0.862850 0.553200 -0.500719
O4    O     O_R   0.179100 0.982980 0.967000 -0.514723
O5    O     O_R   0.017020 0.196120 0.967000 -0.516966
O6    O     O_R   0.803880 0.820900 0.967000 -0.515559
O7    O     O_R   0.173970 0.688730 0.549930 -0.500286
O8    O     O_R   0.311270 0.485240 0.549930 -0.500746
O9    O     O_R   0.514760 0.826030 0.549930 -0.500655
O10   O     O_R   0.140110 0.470540 0.446010 -0.529097
O11   O     O_R   0.529460 0.669570 0.446010 -0.531236
O12   O     O_R   0.330430 0.859890 0.446010 -0.527613
O13   O     O_R   0.176710 0.690910 0.450560 -0.509189
O14   O     O_R   0.309090 0.485800 0.450560 -0.510153
O15   O     O_R   0.514200 0.823290 0.450560 -0.509562
O16   O     O_3   0.333333 0.666667 0.499990 -0.324280
O17   O     O_R   0.176750 0.985260 0.074180 -0.514202
O18   O     O_R   0.014740 0.191490 0.074180 -0.522667
O19   O     O_R   0.808510 0.823250 0.074180 -0.510341
O20   O     O_R   0.146100 0.172630 0.068980 -0.506239
O21   O     O_R   0.827370 0.973470 0.068980 -0.512959
O22   O     O_R   0.026530 0.853900 0.068980 -0.489308
O23   O     O_3   0.000000 1.000000 0.020040 -0.271319
O24   O     O_R   0.148270 0.170520 0.969620 -0.505287
O25   O     O_R   0.829480 0.977750 0.969620 -0.511701
O26   O     O_R   0.022250 0.851730 0.969620 -0.506560
H16   H     H_    0.462725 0.748592 0.739398 0.114358
H17   H     H_    0.251388 0.715506 0.740504 0.135277
H18   H     H_    0.287862 0.540263 0.740652 0.130554
N1    N     N_3   0.489944 0.754386 0.827021 -0.661901
H19   H     H_    0.448379 0.774845 0.855154 0.222735
H20   H     H_    0.468736 0.684066 0.808557 0.285175
N2    N     N_3   0.244779 0.732264 0.828231 -0.661905
H21   H     H_    0.220146 0.678468 0.855150 0.213381
H22   H     H_    0.322739 0.770352 0.833658 0.235020
N3    N     N_3   0.269024 0.508028 0.828484 -0.626086
H23   H     H_    0.328028 0.538493 0.855679 0.207272
H24   H     H_    0.223139 0.538808 0.846923 0.218399
H25   H     H_    0.745333 0.719758 0.792491 0.136646
H26   H     H_    0.281707 0.029775 0.791724 0.154720
H27   H     H_    0.974506 0.252251 0.791792 0.153682
N4    N     N_3   0.760538 0.048714 0.139393 -0.614882
H28   H     H_    0.735311 0.100709 0.148301 0.244502
H29   H     H_    0.772286 0.064228 0.103216 0.250741
N5    N     N_3   0.958324 0.698753 0.138054 -0.566402
H30   H     H_    0.950984 0.628479 0.146749 0.246690
H31   H     H_    0.993647 0.705962 0.106464 0.226155
N6    N     N_3   0.297869 0.254044 0.138397 -0.619990
H32   H     H_    0.368446 0.265839 0.148026 0.267145
H33   H     H_    0.293024 0.237556 0.103350 0.267292
H34   H     H_    0.585166 0.937441 0.376671 0.126478
H35   H     H_    0.066940 0.645201 0.376190 0.127225
H36   H     H_    0.358723 0.425888 0.376644 0.128193
N7    N     N_3   0.693093 0.116996 0.219600 -0.677142
H37   H     H_    0.633377 0.138599 0.211554 0.216930
H38   H     H_    0.765028 0.181924 0.216175 0.230854
N8    N     N_3   0.888026 0.575109 0.220436 -0.571439
H39   H     H_    0.836618 0.582092 0.251408 0.153662
H40   H     H_    0.830186 0.583348 0.207391 0.216687
N9    N     N_3   0.421403 0.304449 0.221234 -0.681388
H41   H     H_    0.499170 0.365397 0.226135 0.231871
H42   H     H_    0.406368 0.227057 0.215780 0.245618
N10   N     N_3   0.747640 0.691157 0.140094 -0.582492
H43   H     H_    0.730079 0.619433 0.153157 0.215910
H44   H     H_    0.723726 0.679806 0.104043 0.266878
N11   N     N_3   0.307089 0.052523 0.139348 -0.584869
H45   H     H_    0.383808 0.085676 0.151184 0.178227
H46   H     H_    0.327035 0.041134 0.105491 0.247067
N12   N     N_3   0.946996 0.261248 0.138748 -0.612563
H47   H     H_    0.888042 0.272218 0.153655 0.196443
H48   H     H_    0.922919 0.250487 0.102883 0.263720
H49   H     H_    0.677097 0.593975 0.218809 0.100089
H50   H     H_    0.409582 0.081676 0.219808 0.098992
H51   H     H_    0.911173 0.317975 0.219767 0.110364
N13   N     N_3   0.623733 0.538033 0.305660 -0.680037
H52   H     H_    0.630850 0.479079 0.286203 0.221339
H53   H     H_    0.597672 0.518923 0.341053 0.229245
N14   N     N_3   0.460369 0.085473 0.306001 -0.671604
H54   H     H_    0.509592 0.155061 0.287052 0.234277
H55   H     H_    0.484065 0.076782 0.341032 0.227772
N15   N     N_3   0.915566 0.374941 0.305816 -0.666178
H56   H     H_    0.844538 0.352572 0.286575 0.243232
H57   H     H_    0.922384 0.404956 0.340888 0.225211
H58   H     H_    0.568190 0.628110 0.373420 0.144496
H59   H     H_    0.368481 0.943446 0.374273 0.147541
H60   H     H_    0.052982 0.415276 0.374587 0.148304
H61   H     H_    0.811778 0.906425 0.701768 0.161971
H62   H     H_    0.092699 0.902391 0.701645 0.161036
H63   H     H_    0.096200 0.191803 0.701489 0.163594
N16   N     N_3   0.749946 0.010812 0.703147 -0.692968
H64   H     H_    0.700315 0.037893 0.717703 0.236627
H65   H     H_    0.803780 0.054839 0.675994 0.247880
N17   N     N_3   0.989728 0.736063 0.702128 -0.683844
H66   H     H_    0.965057 0.660811 0.717040 0.236085
H67   H     H_    0.940706 0.745380 0.675847 0.245221
N18   N     N_3   0.261959 0.252044 0.703443 -0.694587
H68   H     H_    0.337807 0.305969 0.716471 0.244565
H69   H     H_    0.252040 0.199374 0.674826 0.245580
N19   N     N_3   0.878220 0.947054 0.811093 -0.715525
H70   H     H_    0.867232 0.871643 0.803577 0.245719
H71   H     H_    0.925141 0.005224 0.841971 0.250027
N20   N     N_3   0.072148 0.932261 0.789399 -0.724030
H72   H     H_    0.129446 0.996458 0.769365 0.238078
H73   H     H_    0.011741 0.917315 0.812478 0.256808
N21   N     N_3   0.044673 0.126090 0.805356 -0.695231
H74   H     H_    0.965563 0.102880 0.788037 0.258988
H75   H     H_    0.058142 0.063963 0.806182 0.280128
N22   N     N_3   0.713517 0.687604 0.706171 -0.689557
H76   H     H_    0.689095 0.612326 0.692401 0.250746
H77   H     H_    0.794412 0.740370 0.712622 0.239355
N23   N     N_3   0.313249 0.027452 0.705734 -0.693587
H78   H     H_    0.388228 0.077967 0.693027 0.253819
H79   H     H_    0.256935 0.052358 0.710226 0.234486
N24   N     N_3   0.973702 0.284732 0.704667 -0.681405
H80   H     H_    0.918439 0.309018 0.695668 0.247915
H81   H     H_    0.944473 0.204775 0.713010 0.234555
N25   N     N_3   0.595831 0.627863 0.817074 -0.638935
H82   H     H_    0.617895 0.574704 0.831693 0.218246
H83   H     H_    0.523912 0.601641 0.844521 0.206903
N26   N     N_3   0.366626 0.965481 0.817530 -0.684090
H84   H     H_    0.411988 0.036106 0.835006 0.232815
H85   H     H_    0.391404 0.911655 0.823895 0.246570
N27   N     N_3   0.035717 0.405084 0.815859 -0.683004
H86   H     H_    0.968365 0.379740 0.835172 0.229770
H87   H     H_    0.083115 0.483644 0.821915 0.242532

loop_
_geom_bond_atom_site_label_1
_geom_bond_atom_site_label_2
_ccdc_geom_bond_type
C15   C18   T    
N7    H37   S    
C10   C85   T    
N6    H32   S    
C82   C94   S    
C2    C18   S    
C9    H15   S    
C83   H11   S    
Cr2   O8    S    
N1    H19   S    
C48   C75   A    
Cr1   O16   S    
Cr1   O10   S    
C27   C78   A    
C6    C9    S    
C91   N1    S    
C2    O1    A    
C3    O9    A    
Cr2   O2    S    
C62   H50   S    
C54   C60   A    
N18   H68   S    
C25   C28   A    
N7    H38   S    
Cr2   O16   S    
C45   N6    S    
C67   C88   S    
C33   C39   A    
C5    N26   S    
Cr3   O15   S    
C60   C63   A    
C69   C93   S    
C80   N17   S    
N1    H20   S    
N19   H71   S    
Cr1   O13   S    
C37   C40   A    
C43   N4    S    
Cr4   O24   S    
C4    C7    S    
C34   C77   S    
C64   C70   A    
C63   H51   S    
C45   C48   A    
C28   C40   A    
C24   O26   A    
C19   O18   A    
N14   H55   S    
C30   C57   A    
Cr1   O1    S    
C33   C45   A    
N16   H65   S    
Cr3   O16   S    
C68   H17   S    
Cr4   O4    S    
C84   C96   S    
C20   O21   A    
C80   C89   S    
N8    H39   S    
N23   H78   S    
C36   C76   S    
C33   C72   A    
C39   N9    S    
Cr3   O3    S    
C79   H61   S    
C73   N10   S    
C67   H7    S    
C31   C70   A    
C66   C72   A    
C7    C88   S    
C26   H35   S    
N10   H44   S    
N9    H42   S    
Cr2   O14   S    
C64   C73   A    
N4    H29   S    
C23   O25   A    
N15   H56   S    
C32   C38   A    
C39   C42   A    
Cr4   O23   S    
C62   C65   A    
C44   C47   A    
C60   N15   S    
C93   H3    S    
C49   C52   A    
C58   C61   A    
Cr2   O11   S    
C80   H62   S    
C63   C66   A    
N6    H33   S    
C49   H58   S    
N26   H84   S    
C27   C30   A    
C61   H49   S    
C69   H18   S    
C14   C17   T    
C36   O11   A    
N25   H83   S    
C80   C83   S    
C67   H16   S    
N27   H87   S    
C79   C88   S    
C6    H27   S    
C28   C55   A    
C51   H60   S    
C22   O5    A    
Cr3   O9    S    
N5    H31   S    
Cr5   O18   S    
C25   H34   S    
C53   C59   A    
N22   H77   S    
C81   N18   S    
C26   C77   A    
Cr3   O12   S    
N16   H64   S    
C50   C53   A    
C3    O2    A    
N19   H70   S    
C34   O12   A    
C38   C41   A    
C1    O7    A    
C68   H8    S    
N20   H72   S    
C8    H14   S    
C19   C48   S    
C23   O6    A    
C74   N11   S    
C7    N22   S    
C59   N14   S    
C65   C71   A    
C6    N27   S    
C92   C95   S    
C65   C74   A    
C31   C37   A    
C22   O24   A    
C1    O3    A    
C82   H10   S    
C10   C94   S    
C61   C64   A    
C35   O10   A    
N11   H45   S    
C14   C89   S    
C31   C43   A    
N20   H73   S    
C83   N20   S    
Cr5   O25   S    
N4    H28   S    
C19   O20   A    
C56   C71   A    
C83   C95   S    
C67   C91   S    
C68   C89   S    
C32   C44   A    
C49   C76   A    
N24   H81   S    
C32   C71   A    
C22   C87   S    
C20   O19   A    
N21   H75   S    
C27   H36   S    
Cr6   O19   S    
C36   O15   A    
C52   C58   A    
C82   N19   S    
C81   C90   S    
N17   H67   S    
C4    H25   S    
Cr5   O23   S    
Cr6   O23   S    
C93   C96   S    
C6    C96   S    
N26   H85   S    
C58   N13   S    
N23   H79   S    
C4    C94   S    
C75   N12   S    
N3    H24   S    
N25   H82   S    
C21   O22   A    
N12   H48   S    
Cr6   O6    S    
C50   C77   A    
C35   O14   A    
C21   O17   A    
Cr4   O17   S    
C81   C84   S    
N10   H43   S    
C40   H4    S    
N5    H30   S    
C53   C56   A    
C11   C95   S    
C59   C62   A    
C84   H12   S    
C41   H5    S    
C12   C87   T    
C29   C41   A    
C4    N25   S    
C7    H13   S    
C30   C42   A    
C47   C74   A    
C91   H1    S    
C9    C90   S    
C37   N7    S    
C79   C82   S    
Cr5   O21   S    
C52   C55   A    
C50   H59   S    
C29   C56   A    
Cr1   O7    S    
C35   C78   S    
C5    H26   S    
Cr5   O5    S    
C9    N24   S    
C51   C54   A    
N13   H52   S    
C25   C76   A    
N11   H46   S    
N12   H47   S    
N18   H69   S    
C23   C85   S    
C44   N5    S    
C84   N21   S    
C91   C94   S    
C92   N2    S    
C69   H9    S    
C15   C90   S    
C5    C95   S    
C42   H6    S    
C8    N23   S    
C79   N16   S    
C66   C75   A    
C13   C88   S    
C93   N3    S    
C24   O4    A    
C68   C92   S    
N2    H22   S    
Cr6   O22   S    
N17   H66   S    
C57   C72   A    
N21   H74   S    
C43   C46   A    
N8    H40   S    
C51   C78   A    
C55   C70   A    
C38   N8    S    
Cr4   O20   S    
C92   H2    S    
N14   H54   S    
C2    O8    A    
C1    C17   S    
C34   O13   A    
C26   C29   A    
N9    H41   S    
Cr6   O26   S    
C13   C16   T    
N24   H80   S    
N27   H86   S    
C5    C8    S    
N2    H21   S    
C12   C96   S    
N15   H57   S    
C8    C89   S    
C11   C86   T    
C21   C47   S    
N3    H23   S    
C24   C86   S    
C46   C73   A    
C20   C46   S    
C3    C16   S    
C69   C90   S    
N13   H53   S    
C81   H63   S    
N22   H76   S    
C54   C57   A    
