data_mof_unit_37294.cif
_audit_creation_date              2012-12-10T18:23:08-0500
_audit_creation_method            fapswitch 2.2
_symmetry_space_group_name_H-M    P1
_symmetry_Int_Tables_number       1
_space_group_crystal_system       triclinic
_cell_length_a                    14.890573
_cell_length_b                    14.032074
_cell_length_c                    10.489963
_cell_angle_alpha                 90.502867
_cell_angle_beta                  89.945638
_cell_angle_gamma                 89.727085
_cell_volume                      2191.72148885

loop_
_atom_site_label
_atom_site_type_symbol
_atom_type_description
_atom_site_fract_x
_atom_site_fract_y
_atom_site_fract_z
_atom_type_partial_charge
C1    C     C_R   0.327031 0.500320 0.500282 0.911919
C2    C     C_R   0.949157 0.575366 0.295493 -0.222869
C3    C     C_R   0.552237 0.797397 0.414322 -0.038940
C4    C     C_R   0.447779 0.202598 0.585694 -0.042925
C5    C     C_R   0.447765 0.799037 0.585678 -0.039034
C6    C     C_R   0.552206 0.200959 0.414287 -0.051024
C7    C     C_R   0.446538 0.899680 0.587773 0.012925
C8    C     C_R   0.553428 0.100312 0.412185 0.011571
C9    C     C_R   0.553439 0.897996 0.412200 0.010517
C10   C     C_R   0.446552 0.101996 0.587785 0.012110
C11   C     C_R   0.499985 0.949406 0.499981 0.087632
C12   C     C_R   0.673054 0.499875 0.500799 0.862767
C13   C     C_R   0.499989 0.050586 0.499984 0.088974
C14   C     C_R   0.393410 0.951572 0.675132 -0.183737
C15   C     C_R   0.606554 0.048418 0.324823 -0.188015
C16   C     C_R   0.606566 0.948206 0.324838 -0.186420
C17   C     C_R   0.393419 0.051785 0.675140 -0.190062
C18   C     C_R   0.499515 0.499593 0.257169 0.877265
C19   C     C_R   0.500604 0.500397 0.742837 0.850762
C20   C     C_3   0.429883 0.551672 0.042495 -0.158358
C21   C     C_3   0.570495 0.448246 0.957534 -0.171590
C22   C     C_3   0.507551 0.590642 0.961007 -0.133638
C23   C     C_R   0.953256 0.515695 0.513537 -0.020296
C24   C     C_3   0.492821 0.409293 0.039028 -0.137035
C25   C     C_3   0.423158 0.462173 0.956526 -0.169206
C26   C     C_3   0.577219 0.537761 0.043515 -0.171532
C27   C     C_3   0.500800 0.501058 0.877737 0.016215
C28   C     C_3   0.499562 0.498882 0.122281 0.012800
C29   C     C_R   0.813283 0.534173 0.401075 -0.219798
C30   C     C_R   0.187964 0.486119 0.613870 -0.253002
C31   C     C_R   0.768535 0.500822 0.506796 -0.104821
C32   C     C_R   0.231669 0.502587 0.500074 -0.049561
C33   C     C_R   0.813087 0.476627 0.619932 0.086484
C34   C     C_R   0.047114 0.517754 0.509073 -0.001610
C35   C     C_R   0.186414 0.528440 0.389199 0.086617
C36   C     C_R   0.907352 0.487064 0.627019 -0.012884
C37   C     C_R   0.092789 0.544617 0.394856 -0.038467
C38   C     C_R   0.905384 0.540610 0.402713 0.063368
C39   C     C_R   0.095507 0.490698 0.618295 0.075455
C40   C     C_R   0.958517 0.469567 0.739949 0.475029
C41   C     C_R   0.042113 0.583267 0.292376 0.455234
C42   C     C_R   0.051849 0.469541 0.731789 -0.262500
H1    H     H_    0.360537 0.431660 0.916189 0.138729
H2    H     H_    0.909863 0.600056 0.215201 0.203150
H3    H     H_    0.592959 0.756636 0.347680 0.135771
H4    H     H_    0.407084 0.243355 0.652370 0.135171
H5    H     H_    0.407089 0.759544 0.652354 0.138084
H6    H     H_    0.592868 0.240450 0.347593 0.138958
H7    H     H_    0.351849 0.914677 0.743467 0.153302
H8    H     H_    0.648109 0.085312 0.256481 0.155109
H9    H     H_    0.648134 0.909994 0.256512 0.154371
H10   H     H_    0.351862 0.089995 0.743481 0.149872
H11   H     H_    0.712565 0.489737 0.749606 0.189034
H12   H     H_    0.639787 0.568334 0.083917 0.136730
H13   H     H_    0.730968 0.376701 0.695316 0.202100
H14   H     H_    0.252790 0.588001 0.238695 0.255935
H15   H     H_    0.198141 0.481838 0.204643 0.234651
H16   H     H_    0.810041 0.519766 0.011044 0.362523
H17   H     H_    0.190588 0.766560 0.166382 0.380184
H18   H     H_    0.372875 0.594124 0.081163 0.154181
H19   H     H_    0.627523 0.405637 0.919132 0.163448
H20   H     H_    0.513603 0.664534 0.925078 0.151905
H21   H     H_    0.486774 0.335402 0.074960 0.151144
H22   H     H_    0.775690 0.554438 0.316704 0.129907
H23   H     H_    0.226393 0.467743 0.698218 0.134578
H24   H     H_    0.091664 0.452707 0.815110 0.206894
N1    N     N_R   0.500000 0.750030 0.500000 -0.105278
N2    N     N_R   0.500000 0.249970 0.500000 -0.105134
N3    N     N_3   0.762036 0.439916 0.724267 -0.356529
N4    N     N_3   0.235131 0.520882 0.271415 -0.466108
O1    O     O_R   0.367850 0.580280 0.500030 -0.607329
O2    O     O_2   0.985591 0.457726 0.994745 -0.275629
O3    O     O_3   0.836417 0.537850 0.928014 -0.546806
O4    O     O_2   0.127566 0.602401 0.066626 -0.315783
O5    O     O_2   0.012878 0.720895 0.119605 -0.256342
O6    O     O_3   0.164103 0.731933 0.239098 -0.574077
O7    O     O_R   0.632150 0.419720 0.499970 -0.625266
O8    O     O_R   0.632150 0.580280 0.499970 -0.609140
O9    O     O_R   0.367850 0.419720 0.500030 -0.617010
O10   O     O_R   0.499970 0.580260 0.313950 -0.626626
O11   O     O_R   0.500030 0.419740 0.686050 -0.630913
O12   O     O_R   0.500030 0.580260 0.686050 -0.627983
O13   O     O_R   0.499970 0.419740 0.313950 -0.625126
O14   O     O_2   0.869853 0.356004 0.902032 -0.303059
S1    S     S_3+6 0.913005 0.452489 0.895429 0.036445
S2    S     S_3+6 0.086559 0.659762 0.173633 0.022678
Zn1   Zn    Zn3+2 0.500000 0.607200 0.500000 0.960661
Zn2   Zn    Zn3+2 0.500000 0.392800 0.500000 0.948300

loop_
_geom_bond_atom_site_label_1
_geom_bond_atom_site_label_2
_ccdc_geom_bond_type
O8    Zn1   S    
C21   C26   S    
C8    C13   A    
C34   C37   A    
C16   H9    S    
C5    N1    A    
H11   N3    S    
C25   H1    S    
O2    S1    D    
C4    H4    S    
C7    C11   A    
C41   S2    S    
C5    H5    S    
C1    O1    A    
C6    H6    S    
C35   C37   A    
C9    C16   A    
O10   Zn1   S    
C14   H7    S    
C20   C25   S    
C10   C17   A    
O12   Zn1   S    
C33   C36   A    
C15   H8    S    
C7    C14   A    
C35   N4    S    
C2    H2    S    
C12   O8    A    
C29   C38   A    
C31   C33   A    
H15   N4    S    
C20   H18   S    
C19   O12   A    
C19   C27   S    
C21   H19   S    
C33   N3    S    
C40   C42   A    
O13   Zn2   S    
C21   C27   S    
C29   H22   S    
C14   C17   A    
C26   H12   S    
C17   H10   S    
O9    Zn2   S    
C39   C42   A    
C34   C39   A    
O11   Zn2   S    
C32   C35   A    
C36   C40   A    
C18   C28   S    
C24   C25   S    
O7    Zn2   S    
C4    N2    A    
C6    C8    A    
C20   C28   S    
C3    H3    S    
C1    C32   S    
O4    S2    D    
C40   S1    S    
C3    C9    A    
C22   H20   S    
C2    C38   A    
O5    S2    D    
C23   C34   A    
C12   O7    A    
C18   O13   A    
O14   S1    D    
C9    C11   A    
O3    S1    S    
H13   N3    S    
O1    Zn1   S    
C20   C22   S    
C24   H21   S    
H14   N4    S    
C22   C27   S    
C12   C31   S    
C1    O9    A    
C25   C27   S    
C4    C10   A    
O6    S2    S    
C5    C7    A    
N1    Zn1   S    
C3    N1    A    
C24   C28   S    
C10   C13   A    
C8    C15   A    
C23   C38   A    
C26   C28   S    
C29   C31   A    
C30   C32   A    
C11   C13   A    
N2    Zn2   S    
C6    N2    A    
C30   C39   A    
C37   C41   A    
C30   H23   S    
C18   O10   A    
C23   C36   A    
C22   C26   S    
C21   C24   S    
C42   H24   S    
C2    C41   A    
C19   O11   A    
H17   O6    S    
C15   C16   A    
H16   O3    S    
