data_mof_unit_35170.cif
_audit_creation_date              2012-12-10T18:44:29-0500
_audit_creation_method            fapswitch 2.2
_symmetry_space_group_name_H-M    P1
_symmetry_Int_Tables_number       1
_space_group_crystal_system       triclinic
_cell_length_a                    12.899529
_cell_length_b                    10.717024
_cell_length_c                    9.886626
_cell_angle_alpha                 90.576024
_cell_angle_beta                  98.326021
_cell_angle_gamma                 91.106126
_cell_volume                      1352.00061792

loop_
_atom_site_label
_atom_site_type_symbol
_atom_type_description
_atom_site_fract_x
_atom_site_fract_y
_atom_site_fract_z
_atom_type_partial_charge
C1    C     C_R   0.500111 0.260022 0.499566 0.867605
C2    C     C_R   0.702162 0.500115 0.528150 0.920916
C3    C     C_R   0.815216 0.501278 0.546666 -0.106129
C4    C     C_R   0.184784 0.498722 0.453334 -0.106129
C5    C     C_R   0.015231 0.454909 0.321920 -0.301116
C6    C     C_R   0.984769 0.545091 0.678080 -0.301116
C7    C     C_R   0.123988 0.463207 0.328207 0.445019
C8    C     C_R   0.876012 0.536793 0.671793 0.445019
C9    C     C_R   0.137623 0.528582 0.567810 -0.322236
C10   C     C_R   0.862377 0.471418 0.432190 -0.322236
C11   C     C_R   0.030709 0.518748 0.561738 0.135114
C12   C     C_R   0.499889 0.739978 0.500434 0.867605
C13   C     C_R   0.969291 0.481252 0.438262 0.135113
C14   C     C_R   0.479087 0.062223 0.375417 -0.177980
C15   C     C_R   0.520913 0.937777 0.624583 -0.177980
C16   C     C_R   0.478596 0.934359 0.375918 -0.179565
C17   C     C_R   0.521403 0.065641 0.624081 -0.179565
C18   C     C_R   0.499577 0.872499 0.500515 -0.018869
C19   C     C_R   0.500422 0.127500 0.499485 -0.018869
C20   C     C_R   0.561687 0.582319 0.085820 -0.147865
C21   C     C_R   0.438313 0.417681 0.914180 -0.147865
C22   C     C_R   0.562657 0.582757 0.943128 0.482366
C23   C     C_R   0.437343 0.417243 0.056872 0.482366
C24   C     C_R   0.297838 0.499885 0.471850 0.920916
H1    H     H_    0.815674 0.441867 0.336612 0.188228
H2    H     H_    0.117198 0.411592 0.137446 0.337763
H3    H     H_    0.611147 0.647827 0.151165 0.181901
H4    H     H_    0.388853 0.352173 0.848835 0.181901
H5    H     H_    0.630397 0.650485 0.798469 0.403323
H6    H     H_    0.369603 0.349515 0.201531 0.403323
H7    H     H_    0.184326 0.558133 0.663388 0.188228
H8    H     H_    0.966774 0.426877 0.227153 0.143370
H9    H     H_    0.033225 0.573123 0.772847 0.143370
H10   H     H_    0.462055 0.109519 0.278618 0.185852
H11   H     H_    0.537945 0.890481 0.721382 0.185852
H12   H     H_    0.461303 0.884342 0.279228 0.168534
H13   H     H_    0.538697 0.115658 0.720772 0.168534
H14   H     H_    0.882802 0.588408 0.862554 0.337763
N1    N     N_R   0.499970 0.499970 0.857200 -0.178415
N2    N     N_R   0.500030 0.500030 0.142800 -0.178415
O1    O     O_R   0.499990 0.316750 0.614620 -0.629127
O2    O     O_3   0.171631 0.434603 0.215637 -0.744012
O3    O     O_3   0.628544 0.668644 0.895374 -0.759529
O4    O     O_3   0.371456 0.331356 0.104626 -0.759529
O5    O     O_R   0.500010 0.683250 0.385380 -0.629127
O6    O     O_R   0.499990 0.316780 0.385290 -0.642091
O7    O     O_R   0.500010 0.683220 0.614710 -0.642091
O8    O     O_R   0.346360 0.499970 0.595710 -0.635917
O9    O     O_R   0.653640 0.500030 0.404290 -0.635917
O10   O     O_R   0.346360 0.499990 0.366380 -0.581750
O11   O     O_R   0.653640 0.500010 0.633620 -0.581750
O12   O     O_3   0.828368 0.565396 0.784363 -0.744012
Zn1   Zn    Zn3+2 0.500000 0.499980 0.653120 0.964611
Zn2   Zn    Zn3+2 0.500000 0.500020 0.346880 0.964611

loop_
_geom_bond_atom_site_label_1
_geom_bond_atom_site_label_2
_ccdc_geom_bond_type
C14   H10   S    
C15   C18   A    
C5    C7    A    
C20   H3    S    
C17   H13   S    
C11   C13   A    
C8    O12   S    
C5    C13   A    
C22   O3    S    
C21   N1    A    
C6    H9    S    
O7    Zn1   S    
C5    H8    S    
O1    Zn1   S    
O6    Zn2   S    
C21   C23   A    
C2    C3    S    
C3    C10   A    
N1    Zn1   S    
H5    O3    S    
C1    O1    A    
C9    C11   A    
H6    O4    S    
O10   Zn2   S    
C12   O7    A    
C4    C24   S    
C22   N1    A    
C10   H1    S    
C15   H11   S    
C2    O9    A    
C21   H4    S    
C20   C22   A    
O5    Zn2   S    
N2    Zn2   S    
C4    C7    A    
C24   O10   A    
O8    Zn1   S    
C20   N2    A    
C14   C16   A    
C1    O6    A    
C1    C19   S    
H14   O12   S    
C2    O11   A    
C9    H7    S    
O9    Zn2   S    
C24   O8    A    
H2    O2    S    
C16   C18   A    
C3    C8    A    
C7    O2    S    
C12   C18   S    
C6    C11   A    
C15   C17   A    
C6    C8    A    
C17   C19   A    
C4    C9    A    
C14   C19   A    
C16   H12   S    
C23   O4    S    
C23   N2    A    
C12   O5    A    
O11   Zn1   S    
C10   C13   A    
