data_mof_unit_46765.cif
_audit_creation_date              2013-03-05T16:45:33-0500
_audit_creation_method            fapswitch 2.2
_symmetry_space_group_name_H-M    P1
_symmetry_Int_Tables_number       1
_space_group_crystal_system       triclinic
_cell_length_a                    15.793992
_cell_length_b                    10.674823
_cell_length_c                    9.903558
_cell_angle_alpha                 90.101522
_cell_angle_beta                  90.263289
_cell_angle_gamma                 89.829601
_cell_volume                      1669.69316143

loop_
_atom_site_label
_atom_site_type_symbol
_atom_site_description
_atom_site_fract_x
_atom_site_fract_y
_atom_site_fract_z
_atom_type_partial_charge
O1    O     O_R   0.500010 0.316790 0.614690 -0.630063
O2    O     O_R   0.500000 0.316760 0.385350 -0.551316
C1    C     C_R   0.506413 0.260593 0.499907 0.953718
O3    O     O_R   0.378030 0.499990 0.614640 -0.584294
O4    O     O_R   0.378020 0.499950 0.385300 -0.587531
C2    C     C_R   0.339431 0.500575 0.499738 0.932048
Zn1   Zn    Zn3+2 0.500010 0.500020 0.653130 1.061141
Zn2   Zn    Zn3+2 0.499990 0.499980 0.346870 1.091929
O5    O     O_R   0.500000 0.683240 0.614650 -0.588052
O6    O     O_R   0.499990 0.683210 0.385310 -0.548732
O7    O     O_R   0.621980 0.500050 0.614700 -0.580608
O8    O     O_R   0.621970 0.500010 0.385360 -0.613531
C3    C     C_R   0.503801 0.739899 0.500097 0.968865
C4    C     C_R   0.660547 0.500203 0.500378 0.866290
C5    C     C_R   0.954676 0.625957 0.479287 0.402430
C6    C     C_R   0.912782 0.514980 0.515509 -0.180504
C7    C     C_R   0.957336 0.407736 0.555978 0.481599
C8    C     C_R   0.045175 0.410687 0.557772 -0.270190
H1    H     H_    0.080391 0.328055 0.588495 0.221013
C9    C     C_R   0.087330 0.518088 0.515719 -0.126606
C10   C     C_R   0.043138 0.627827 0.479960 0.440731
C11   C     C_1   0.823794 0.509188 0.507062 0.092868
C12   C     C_1   0.176129 0.512030 0.505530 0.164574
C13   C     C_1   0.250976 0.506168 0.500283 -0.016439
C14   C     C_1   0.748950 0.504364 0.502131 -0.142628
C15   C     C_R   0.507360 0.065181 0.620124 -0.110737
C16   C     C_R   0.524661 0.129742 0.502223 -0.204081
C17   C     C_R   0.558990 0.064673 0.390394 0.223129
C18   C     C_R   0.557244 0.933091 0.391403 0.448383
C19   C     C_R   0.519104 0.871364 0.501757 -0.209399
C20   C     C_R   0.503048 0.938266 0.619353 -0.178666
C21   C     C_3   0.432490 0.939090 0.723123 0.813966
C22   C     C_3   0.438721 0.081592 0.722092 -0.397581
H2    H     H_    0.382325 0.129785 0.678527 0.224178
H3    H     H_    0.462664 0.123625 0.817492 0.230368
C23   C     C_R   0.437276 0.441260 0.070805 0.069279
N1    N     N_R   0.499440 0.499140 0.142800 -0.100043
C24   C     C_R   0.565750 0.548585 0.072941 -0.145954
H4    H     H_    0.616135 0.592936 0.129271 0.151425
C25   C     C_R   0.567061 0.547066 0.928055 0.574484
N2    N     N_R   0.499440 0.499180 0.857150 -0.112989
C26   C     C_R   0.437221 0.440648 0.929124 -0.081586
C27   C     C_3   0.341925 0.457794 0.923627 0.315080
C28   C     C_3   0.343113 0.462400 0.079763 0.290199
O9    O     O_3   0.084792 0.733168 0.433460 -0.556111
C29   C     C_3   0.120912 0.797768 0.544086 -0.061219
H5    H     H_    0.180445 0.751928 0.577776 0.208568
H6    H     H_    0.076896 0.806591 0.631086 0.116391
H7    H     H_    0.137188 0.893953 0.511096 0.216830
O10   O     O_3   0.631349 0.604592 0.856647 -0.616214
C30   C     C_3   0.711681 0.564358 0.902562 -0.303650
H8    H     H_    0.758667 0.583923 0.822419 0.201590
H9    H     H_    0.713889 0.461666 0.922572 0.181455
H10   H     H_    0.731383 0.618183 0.993405 0.160837
N3    N     N_R   0.312026 0.575778 0.862952 0.232958
O11   O     O_R   0.365139 0.662179 0.827354 -0.294375
O12   O     O_R   0.231533 0.602269 0.862983 -0.292851
N4    N     N_R   0.299642 0.346968 0.865854 0.220412
O13   O     O_R   0.239866 0.359029 0.775977 -0.355330
O14   O     O_R   0.321531 0.234745 0.903841 -0.339889
N5    N     N_R   0.319516 0.585600 0.136189 0.223650
O15   O     O_R   0.242563 0.605313 0.177708 -0.275360
O16   O     O_R   0.371136 0.680317 0.129846 -0.299494
N6    N     N_R   0.298211 0.359048 0.145977 0.232240
O17   O     O_R   0.339209 0.275611 0.216515 -0.330291
O18   O     O_R   0.216224 0.350922 0.135911 -0.284293
O19   O     O_3   0.910125 0.727504 0.428399 -0.557167
C31   C     C_3   0.880405 0.801039 0.536874 -0.286661
H11   H     H_    0.933648 0.842565 0.595003 0.170854
H12   H     H_    0.838554 0.747033 0.605378 0.146963
H13   H     H_    0.842333 0.879565 0.495217 0.178016
O20   O     O_3   0.914734 0.301950 0.598679 -0.583954
C32   C     C_3   0.914723 0.213192 0.493025 -0.218677
H14   H     H_    0.979978 0.179979 0.470257 0.173089
H15   H     H_    0.884046 0.251480 0.400285 0.177069
H16   H     H_    0.877418 0.130696 0.525329 0.182029
N7    N     N_R   0.594533 0.129841 0.277273 0.231540
O21   O     O_R   0.650795 0.216872 0.296941 -0.419214
O22   O     O_R   0.576703 0.095041 0.154457 -0.345743
O23   O     O_3   0.587866 0.866612 0.281911 -0.564665
C33   C     C_3   0.673479 0.836671 0.307340 -0.243078
H17   H     H_    0.698427 0.783258 0.219914 0.190510
H18   H     H_    0.680455 0.776407 0.398371 0.124627
H19   H     H_    0.712585 0.922704 0.318437 0.175038
N8    N     N_R   0.349482 0.898510 0.672111 0.220615
O24   O     O_R   0.283912 0.907383 0.750632 -0.284232
O25   O     O_R   0.337924 0.867808 0.546143 -0.430692
O26   O     O_3   0.449968 0.884837 0.852173 -0.535415
C34   C     C_3   0.536403 0.886801 0.890252 -0.117820
H20   H     H_    0.562024 0.983444 0.893330 0.159579
H21   H     H_    0.574998 0.827301 0.822186 0.174386
H22   H     H_    0.542362 0.847277 0.993384 0.240988

loop_
_geom_bond_atom_site_label_1
_geom_bond_atom_site_label_2
_geom_bond_distance
_ccdc_geom_bond_type
N3    O11   1.298897 A    
C32   H14   1.112858 S    
C23   C26   1.403145 A    
C33   H17   1.109082 S    
N7    O21   1.301292 A    
C28   N6    1.470247 S    
Zn1   O7    1.965344 S    
C29   H7    1.109321 S    
C15   C16   1.385605 A    
N1    C24   1.365765 A    
O4    C2    1.289289 A    
C17   C18   1.405022 A    
C19   C20   1.389020 A    
O7    C4    1.288118 A    
C6    C7    1.400235 A    
N4    O14   1.301584 A    
C5    C6    1.406509 A    
C21   O26   1.429500 S    
C8    H1    1.084656 S    
N2    C26   1.369598 A    
N5    O16   1.302513 A    
O5    C3    1.288308 A    
C27   N4    1.473682 S    
C31   H11   1.109919 S    
C11   C14   1.184141 T    
C12   C13   1.184961 T    
C34   H21   1.108766 S    
N8    O25   1.301493 A    
C2    C13   1.398203 S    
C15   C20   1.356715 A    
C32   H15   1.114189 S    
O3    Zn1   1.962182 S    
C33   H18   1.113307 S    
C7    C8    1.387808 A    
C10   O9    1.385071 S    
N7    O22   1.300998 A    
C29   H6    1.113263 S    
C30   H8    1.109595 S    
C3    C19   1.424790 S    
O3    C2    1.288492 A    
O20   C32   1.410334 S    
O10   C30   1.411791 S    
N4    O13   1.300814 A    
N8    O24   1.301046 A    
O19   C31   1.410696 S    
O1    C1    1.288645 A    
N6    O18   1.301410 A    
C27   C28   1.547031 S    
C18   C19   1.415067 A    
C15   C22   1.494657 S    
C20   C21   1.519381 S    
C9    C12   1.407872 S    
Zn2   O8    1.962182 S    
C5    O19   1.385023 S    
C22   H2    1.112983 S    
C9    C10   1.406836 A    
C34   H22   1.109269 S    
C17   N7    1.437015 S    
C27   N3    1.472021 S    
C25   N2    1.374817 A    
O8    C4    1.289332 A    
N3    O12   1.301563 A    
C32   H16   1.109426 S    
C23   C28   1.506559 S    
Zn2   N1    2.021002 S    
C33   H19   1.113263 S    
Zn1   O5    1.993285 S    
C29   H5    1.108982 S    
C23   N1    1.360044 A    
C6    C11   1.409109 S    
O1    Zn1   1.991988 S    
O2    Zn2   1.993283 S    
O23   C33   1.410154 S    
O6    C3    1.288136 A    
O4    Zn2   1.965344 S    
C28   N5    1.475518 S    
C30   H10   1.110407 S    
C21   C22   1.524706 S    
C1    C16   1.425600 S    
O2    C1    1.287588 A    
N6    O17   1.302010 A    
C24   C25   1.435192 A    
C24   H4    1.079758 S    
C18   O23   1.383255 S    
C31   H13   1.109233 S    
C25   O10   1.385652 S    
C21   N8    1.469083 S    
C22   H3    1.110495 S    
C8    C9    1.392818 A    
Zn1   N2    2.020621 S    
C4    C14   1.397110 S    
N5    O15   1.301267 A    
O9    C29   1.412515 S    
C5    C10   1.397346 A    
O26   C34   1.414807 S    
C7    O20   1.384044 S    
Zn2   O6    1.991989 S    
C26   C27   1.516393 S    
C16   C17   1.415473 A    
C31   H12   1.112353 S    
C30   H9    1.114755 S    
C34   H20   1.109611 S    
