data_mof_unit_60856.cif
_audit_creation_date              2013-03-05T16:15:59-0500
_audit_creation_method            fapswitch 2.2
_symmetry_space_group_name_H-M    P1
_symmetry_Int_Tables_number       1
_space_group_crystal_system       triclinic
_cell_length_a                    27.87047
_cell_length_b                    14.256419
_cell_length_c                    13.366454
_cell_angle_alpha                 89.999084
_cell_angle_beta                  90.001577
_cell_angle_gamma                 89.999828
_cell_volume                      5310.93457501

loop_
_atom_site_label
_atom_site_type_symbol
_atom_site_description
_atom_site_fract_x
_atom_site_fract_y
_atom_site_fract_z
_atom_type_partial_charge
O1    O     O_R   0.500000 0.373710 0.576470 -0.595325
O2    O     O_R   0.500000 0.626290 0.423530 -0.595324
O3    O     O_R   0.500000 0.626290 0.576470 -0.595364
O4    O     O_R   0.500000 0.373710 0.423530 -0.595364
C1    C     C_R   0.500000 0.326546 0.500000 0.935732
C2    C     C_R   0.500000 0.673454 0.499999 0.935732
O5    O     O_R   0.428750 0.500000 0.576440 -0.611925
O6    O     O_R   0.571250 0.500000 0.423560 -0.611896
O7    O     O_R   0.571250 0.500000 0.576440 -0.611895
O8    O     O_R   0.428750 0.500000 0.423560 -0.611931
C3    C     C_R   0.404712 0.500000 0.499998 0.960893
C4    C     C_R   0.595286 0.499999 0.500001 0.960870
Zn1   Zn    Zn3+2 0.500000 0.500000 0.602090 1.009416
Zn2   Zn    Zn3+2 0.500000 0.500000 0.397910 1.009415
C5    C     C_R   0.177653 0.416973 0.489192 0.664889
C6    C     C_R   0.822337 0.583056 0.488623 0.664871
C7    C     C_R   0.177654 0.583122 0.510730 0.664934
C8    C     C_R   0.822340 0.417046 0.511349 0.664772
O9    O     O_2   0.203440 0.338349 0.473098 -0.456937
O10   O     O_2   0.796549 0.661576 0.471968 -0.456879
O11   O     O_2   0.203441 0.661743 0.526840 -0.456936
O12   O     O_2   0.796555 0.338524 0.528012 -0.456892
N1    N     N_R   0.201177 0.500046 0.499967 -0.333998
N2    N     N_R   0.798815 0.500050 0.499991 -0.334047
C9    C     C_R   0.277495 0.523384 0.411338 0.330249
C10   C     C_R   0.722501 0.476103 0.411544 0.330375
C11   C     C_R   0.277487 0.476681 0.588615 0.330280
C12   C     C_R   0.722503 0.523971 0.588456 0.330368
C13   C     C_R   0.327554 0.523109 0.412753 -0.246560
C14   C     C_R   0.672443 0.476370 0.412938 -0.246593
C15   C     C_R   0.327546 0.476931 0.587221 -0.246547
C16   C     C_R   0.672444 0.523667 0.587066 -0.246611
C17   C     C_R   0.252394 0.500043 0.499974 0.057416
C18   C     C_R   0.747599 0.500047 0.499997 0.057394
C19   C     C_R   0.101758 0.500051 0.499947 -0.100390
C20   C     C_R   0.898235 0.500053 0.499971 -0.100401
C21   C     C_R   0.127252 0.414110 0.493100 -0.127253
C22   C     C_R   0.872739 0.585947 0.492511 -0.127289
C23   C     C_R   0.127253 0.585990 0.506797 -0.127251
C24   C     C_R   0.872741 0.414157 0.507444 -0.127283
C25   C     C_R   0.101578 0.328931 0.487176 0.333106
C26   C     C_R   0.898411 0.671089 0.485979 0.333128
C27   C     C_R   0.101581 0.671172 0.512700 0.333097
C28   C     C_R   0.898414 0.329017 0.513973 0.333136
C29   C     C_R   0.352474 0.500014 0.499992 -0.172260
C30   C     C_R   0.647520 0.500010 0.500002 -0.172100
H1    H     H_    0.347208 0.459388 0.654600 0.206354
H2    H     H_    0.652779 0.541636 0.654310 0.206241
H3    H     H_    0.347222 0.540637 0.345382 0.206379
H4    H     H_    0.652780 0.458386 0.345695 0.206223
C31   C     C_R   0.974572 0.413978 0.503701 0.030747
C32   C     C_R   0.025421 0.586152 0.503070 0.030749
C33   C     C_R   0.974571 0.586130 0.496210 0.030747
C34   C     C_R   0.025421 0.413956 0.496821 0.030748
C35   C     C_R   0.949235 0.500054 0.499960 0.094729
C36   C     C_R   0.050757 0.500054 0.499945 0.094725
C37   C     C_R   0.948210 0.330192 0.514579 -0.226124
C38   C     C_R   0.051785 0.670004 0.513321 -0.226116
C39   C     C_R   0.948206 0.669916 0.485353 -0.226110
C40   C     C_R   0.051782 0.330104 0.486549 -0.226125
H5    H     H_    0.965170 0.262996 0.524209 0.188660
H6    H     H_    0.034828 0.737263 0.522450 0.188666
H7    H     H_    0.965163 0.737115 0.475729 0.188655
H8    H     H_    0.034823 0.262849 0.477398 0.188666
C41   C     C_1   0.500000 0.225903 0.500002 -0.184980
C42   C     C_1   0.500000 0.774097 0.499998 -0.184983
C43   C     C_1   0.500000 0.141335 0.500002 0.034021
C44   C     C_1   0.500000 0.858665 0.499998 0.034020
C45   C     C_1   0.500000 0.042281 0.500000 0.052752
C46   C     C_1   0.500000 0.957719 0.499999 0.052751
N3    N     N_1   0.500000 0.500000 0.261870 -0.061052
N4    N     N_1   0.500000 0.500000 0.738130 -0.061051
C47   C     C_1   0.500000 0.500000 0.169416 0.120854
C48   C     C_1   0.500000 0.500000 0.830584 0.120853
C49   C     C_1   0.500000 0.500000 0.049525 -0.001981
C50   C     C_1   0.500000 0.500000 0.950475 -0.001982
N5    N     N_R   0.252860 0.452356 0.679917 0.238664
O13   O     O_R   0.274097 0.400751 0.746951 -0.313848
O14   O     O_R   0.210878 0.487171 0.700667 -0.336622
N6    N     N_R   0.747128 0.548922 0.679564 0.238626
O15   O     O_R   0.725909 0.601071 0.746143 -0.313847
O16   O     O_R   0.789089 0.514176 0.700633 -0.336598
N7    N     N_R   0.252876 0.547698 0.320016 0.238702
O17   O     O_R   0.274142 0.599195 0.252929 -0.313895
O18   O     O_R   0.210873 0.512962 0.299296 -0.336642
N8    N     N_R   0.747127 0.451165 0.320437 0.238583
O19   O     O_R   0.725932 0.398919 0.253908 -0.313812
O20   O     O_R   0.789057 0.486021 0.299314 -0.336583
N9    N     N_R   0.125002 0.239357 0.486061 0.254963
O21   O     O_R   0.114980 0.179304 0.415807 -0.285213
O22   O     O_R   0.147486 0.210568 0.565674 -0.253381
N10   N     N_R   0.874984 0.760651 0.484232 0.254957
O23   O     O_R   0.885000 0.820268 0.413553 -0.285366
O24   O     O_R   0.852503 0.789933 0.563642 -0.253250
N11   N     N_R   0.125007 0.760745 0.513794 0.254962
O25   O     O_R   0.147505 0.789501 0.434187 -0.253389
O26   O     O_R   0.114977 0.820826 0.584015 -0.285216
N12   N     N_R   0.874989 0.239454 0.515743 0.254960
O27   O     O_R   0.852503 0.210156 0.436343 -0.253247
O28   O     O_R   0.885011 0.179851 0.586432 -0.285367

loop_
_geom_bond_atom_site_label_1
_geom_bond_atom_site_label_2
_geom_bond_distance
_ccdc_geom_bond_type
C38   H6    1.075955 S    
C42   C44   1.205635 T    
N4    C48   1.235786 T    
C47   C49   1.602515 S    
Zn2   N3    1.818372 S    
C25   N9    1.434274 S    
N11   O25   1.301348 A    
O3    C2    1.223457 A    
C33   C39   1.409881 A    
C13   H3    1.083462 S    
N5    O13   1.301673 A    
C11   C17   1.415544 A    
O5    C3    1.221802 A    
C7    N1    1.361331 A    
C48   C50   1.602515 S    
O1    C1    1.223463 A    
C19   C21   1.419282 A    
C22   C26   1.411695 A    
N8    O20   1.300882 A    
C7    C23   1.406276 A    
O7    Zn1   2.015160 S    
C5    C21   1.406273 A    
C20   C24   1.419298 A    
C8    C24   1.406263 A    
C27   C38   1.387969 A    
C5    O9    1.348772 S    
C28   N12   1.434270 S    
C10   C18   1.415496 A    
C41   C43   1.205635 T    
C27   N11   1.434277 S    
C31   C37   1.409875 A    
N9    O22   1.301345 A    
C24   C28   1.411696 A    
C26   N10   1.434270 S    
O3    Zn1   1.832715 S    
C6    O10   1.348774 S    
N5    O14   1.300910 A    
C14   H4    1.083464 S    
C12   C18   1.415505 A    
C6    N2    1.361338 A    
C15   H1    1.083483 S    
C21   C25   1.411703 A    
C16   H2    1.083486 S    
O2    C2    1.223463 A    
C12   N6    1.442408 S    
C33   C35   1.416684 A    
C9    C13   1.395298 A    
C34   C36   1.416679 A    
C11   C15   1.395286 A    
C12   C16   1.395276 A    
C1    C41   1.434817 S    
O8    Zn2   2.015160 S    
N3    C47   1.235786 T    
N8    O19   1.301724 A    
N6    O15   1.301716 A    
C34   C40   1.409868 A    
C10   N8    1.442399 S    
N1    C17   1.427425 S    
N2    C18   1.427417 S    
C13   C29   1.396588 A    
C43   C45   1.412150 S    
C4    C30   1.455778 S    
C19   C23   1.419275 A    
C49   C50   1.323943 T    
N7    O17   1.301681 A    
C2    C42   1.434817 S    
C28   C37   1.387957 A    
O6    C4    1.221757 A    
N10   O24   1.301362 A    
C32   C38   1.409874 A    
N6    O16   1.300897 A    
N7    O18   1.300899 A    
C10   C14   1.395251 A    
N12   O28   1.301063 A    
C8    N2    1.361332 A    
C3    C29   1.455884 S    
O1    Zn1   1.832727 S    
C32   C33   1.420180 A    
O6    Zn2   2.015141 S    
C19   C36   1.421436 A    
C8    O12   1.348771 S    
C16   C30   1.396616 A    
C14   C30   1.396590 A    
C25   C40   1.387961 A    
O4    C1    1.223457 A    
C11   N5    1.442468 S    
C26   C39   1.387956 A    
C23   C27   1.411701 A    
N11   O26   1.301083 A    
C37   H5    1.075963 S    
Zn1   N4    1.818372 S    
C39   H7    1.075960 S    
C40   H8    1.075962 S    
C31   C34   1.420163 A    
C20   C22   1.419293 A    
C20   C35   1.421411 A    
C5    N1    1.361331 A    
N10   O23   1.301071 A    
C31   C35   1.416677 A    
O4    Zn2   1.832716 S    
C45   C46   1.205561 T    
O2    Zn2   1.832725 S    
O7    C4    1.221762 A    
C7    O11   1.348771 S    
O8    C3    1.221793 A    
O5    Zn1   2.015141 S    
C44   C46   1.412150 S    
N12   O27   1.301367 A    
C15   C29   1.396590 A    
C9    C17   1.415560 A    
C9    N7    1.442511 S    
N9    O21   1.301083 A    
C32   C36   1.416683 A    
C6    C22   1.406275 A    
