data_mof_unit_41864.cif
_audit_creation_date              2012-12-11T15:14:47-0500
_audit_creation_method            fapswitch 2.2
_symmetry_space_group_name_H-M    P1
_symmetry_Int_Tables_number       1
_space_group_crystal_system       triclinic
_cell_length_a                    22.266399
_cell_length_b                    7.225655
_cell_length_c                    19.215129
_cell_angle_alpha                 90.008112
_cell_angle_beta                  99.161128
_cell_angle_gamma                 90.009424
_cell_volume                      3052.07518366

loop_
_atom_site_label
_atom_site_type_symbol
_atom_type_description
_atom_site_fract_x
_atom_site_fract_y
_atom_site_fract_z
_atom_type_partial_charge
O1    O     O_R   0.448470 0.506130 0.415700 -0.534553
O2    O     O_R   0.551530 0.006130 0.584300 -0.534465
O3    O     O_R   0.436320 0.174490 0.555800 -0.530834
O4    O     O_R   0.563680 0.674490 0.444200 -0.530743
C1    C     C_R   0.421008 0.344399 0.574983 0.699981
C2    C     C_R   0.578994 0.844406 0.425022 0.699855
O5    O     O_R   0.441350 0.176340 0.414480 -0.535957
O6    O     O_R   0.558650 0.676340 0.585520 -0.535939
O7    O     O_R   0.556600 0.007100 0.441970 -0.535254
O8    O     O_R   0.443400 0.507100 0.558030 -0.535256
C3    C     C_R   0.427162 0.344636 0.389018 0.720598
C4    C     C_R   0.572832 0.844685 0.610982 0.720619
O9    O     O_3   0.537810 0.339550 0.509190 -0.373576
O10   O     O_3   0.462190 0.839550 0.490810 -0.373701
V1    V     V_3+5 0.492990 0.064280 0.498300 1.424024
V2    V     V_3+5 0.507010 0.564280 0.501700 1.424195
C5    C     C_R   0.869457 0.938481 0.693209 -0.217522
C6    C     C_R   0.130651 0.441433 0.306783 -0.218361
C7    C     C_R   0.885694 0.939929 0.820742 -0.159671
C8    C     C_R   0.114323 0.440216 0.179248 -0.159593
C9    C     C_R   0.589761 0.819007 0.739771 -0.354782
C10   C     C_R   0.410121 0.316830 0.260294 -0.354695
C11   C     C_R   0.626882 0.792044 0.804962 0.457747
C12   C     C_R   0.372918 0.288835 0.195221 0.457726
C13   C     C_R   0.690337 0.808159 0.810476 0.395509
C14   C     C_R   0.309488 0.305714 0.189727 0.395547
C15   C     C_R   0.717603 0.862774 0.751029 -0.091568
C16   C     C_R   0.282346 0.362209 0.249036 -0.091716
C17   C     C_R   0.678995 0.871115 0.683883 -0.060983
C18   C     C_R   0.321016 0.371675 0.316122 -0.061263
C19   C     C_R   0.781782 0.898913 0.754741 0.056321
C20   C     C_R   0.218215 0.399132 0.245276 0.056276
C21   C     C_R   0.806265 0.917011 0.690947 -0.028952
C22   C     C_R   0.193808 0.419125 0.309041 -0.029138
C23   C     C_R   0.767609 0.916290 0.625407 0.455391
C24   C     C_R   0.232521 0.419488 0.374542 0.455471
C25   C     C_R   0.704936 0.895034 0.622578 -0.220959
C26   C     C_R   0.295155 0.397499 0.377381 -0.221044
C27   C     C_R   0.822674 0.921599 0.819233 -0.257151
C28   C     C_R   0.177308 0.420866 0.180749 -0.257335
C29   C     C_R   0.909046 0.949984 0.757391 0.437178
C30   C     C_R   0.091033 0.452143 0.242596 0.437301
C31   C     C_R   0.614966 0.849710 0.678932 -0.110709
C32   C     C_R   0.385011 0.349396 0.321076 -0.110884
H1    H     H_    0.540795 0.809232 0.735796 0.137870
H2    H     H_    0.459067 0.306313 0.264253 0.137917
H3    H     H_    0.676724 0.893017 0.571199 0.114957
H4    H     H_    0.323391 0.396590 0.428755 0.115474
C33   C     C_3   0.765789 0.757322 0.294839 0.535223
C34   C     C_3   0.234236 0.257244 0.705202 0.535279
C35   C     C_3   0.806909 0.927403 0.290689 -0.221519
C36   C     C_3   0.193119 0.427297 0.709345 -0.221039
H5    H     H_    0.852492 0.950931 0.322336 0.120333
H6    H     H_    0.147536 0.450764 0.677698 0.120528
H7    H     H_    0.748792 0.182955 0.320928 0.155392
H8    H     H_    0.251239 0.682874 0.679104 0.155471
C37   C     C_1   0.875857 0.940541 0.121970 -0.168117
C38   C     C_1   0.124154 0.440548 0.878044 -0.167989
C39   C     C_1   0.625516 0.854121 0.380077 -0.170191
C40   C     C_1   0.374497 0.354099 0.619942 -0.169616
C41   C     C_3   0.752256 0.740746 0.213862 -0.212107
C42   C     C_3   0.247767 0.240759 0.786179 -0.212071
C43   C     C_3   0.792602 0.913347 0.209364 0.104152
C44   C     C_3   0.207423 0.413332 0.790670 0.103890
C45   C     C_3   0.696278 0.869326 0.213470 -0.191961
C46   C     C_3   0.303748 0.369384 0.786570 -0.192251
C47   C     C_3   0.710265 0.882345 0.294592 0.099168
C48   C     C_3   0.289763 0.382313 0.705447 0.099080
C49   C     C_3   0.737043 0.041525 0.207994 -0.096476
C50   C     C_3   0.262985 0.541556 0.792039 -0.096895
C51   C     C_3   0.750439 0.054375 0.289711 -0.209499
C52   C     C_3   0.249591 0.554316 0.710323 -0.208710
C53   C     C_1   0.838281 0.929592 0.161276 -0.031585
C54   C     C_1   0.161737 0.429592 0.838748 -0.031458
C55   C     C_1   0.663977 0.865450 0.341918 0.001087
C56   C     C_1   0.336044 0.365420 0.658113 0.001652
H9    H     H_    0.650560 0.846578 0.182036 0.134640
H10   H     H_    0.349465 0.346703 0.818005 0.134704
O11   O     O_R   0.056650 0.288730 0.942060 -0.532989
O12   O     O_R   0.943350 0.788730 0.057940 -0.532873
O13   O     O_R   0.058660 0.616870 0.085540 -0.545227
O14   O     O_R   0.941340 0.116870 0.914460 -0.545336
C57   C     C_R   0.072570 0.448704 0.111288 0.751649
C58   C     C_R   0.927435 0.948656 0.888709 0.751542
O15   O     O_R   0.063700 0.618520 0.944220 -0.531499
O16   O     O_R   0.936300 0.118520 0.055780 -0.531569
O17   O     O_R   0.948460 0.787610 0.915680 -0.528944
O18   O     O_R   0.051540 0.287610 0.084320 -0.529145
C59   C     C_R   0.078721 0.450067 0.924416 0.709880
C60   C     C_R   0.921282 0.950063 0.075587 0.709818
O19   O     O_3   0.962230 0.453430 0.990860 -0.376926
O20   O     O_3   0.037770 0.953430 0.009140 -0.376978
V3    V     V_3+5 0.007010 0.728750 0.001700 1.444022
V4    V     V_3+5 0.992990 0.228750 0.998300 1.443673
O21   O     O_3   0.971200 0.961131 0.758330 -0.557717
C61   C     C_3   0.986282 0.145212 0.743857 -0.253983
H11   H     H_    0.971526 0.243689 0.782414 0.140303
H12   H     H_    0.966564 0.185558 0.689109 0.134978
H13   H     H_    0.036490 0.156041 0.748700 0.159811
O22   O     O_3   0.028899 0.464336 0.241652 -0.557757
C62   C     C_3   0.014141 0.648699 0.256126 -0.253678
H14   H     H_    0.029247 0.746915 0.217713 0.140105
H15   H     H_    0.033758 0.688686 0.310950 0.134819
H16   H     H_    0.963941 0.660436 0.251054 0.159883
O23   O     O_3   0.778192 0.609121 0.342787 -0.550618
C63   C     C_3   0.830912 0.515689 0.330063 -0.249841
H17   H     H_    0.871128 0.609084 0.336633 0.137248
H18   H     H_    0.823962 0.451079 0.276855 0.135743
H19   H     H_    0.840908 0.402688 0.369271 0.164328
O24   O     O_3   0.221837 0.108969 0.657265 -0.550698
C64   C     C_3   0.169084 0.015605 0.669951 -0.250503
H20   H     H_    0.128879 0.109000 0.663286 0.137128
H21   H     H_    0.175972 0.951183 0.723183 0.135825
H22   H     H_    0.159116 0.902468 0.630780 0.164342
H23   H     H_    0.725465 0.160201 0.171650 0.122864
H24   H     H_    0.274564 0.660277 0.828380 0.122917
H25   H     H_    0.753188 0.611619 0.182735 0.120814
H26   H     H_    0.246831 0.111661 0.817308 0.120924
O25   O     O_3   0.791770 0.925543 0.563337 -0.552264
C65   C     C_3   0.778242 0.099970 0.531699 -0.226600
H27   H     H_    0.794007 0.215022 0.568747 0.133267
H28   H     H_    0.728834 0.114005 0.511391 0.138649
H29   H     H_    0.802687 0.112630 0.485911 0.169624
O26   O     O_3   0.208486 0.430826 0.436637 -0.552292
C66   C     C_3   0.221529 0.606960 0.467018 -0.227693
H30   H     H_    0.204824 0.719856 0.429392 0.133284
H31   H     H_    0.270997 0.623680 0.486482 0.138890
H32   H     H_    0.197605 0.620565 0.513195 0.169905
H33   H     H_    0.888732 0.946473 0.644969 0.175917
H34   H     H_    0.111435 0.450761 0.355030 0.175734
H35   H     H_    0.807129 0.932294 0.869272 0.185461
H36   H     H_    0.192837 0.430198 0.130664 0.185426
O27   O     O_3   0.724528 0.758158 0.874085 -0.547816
C67   C     C_3   0.740687 0.569899 0.870560 -0.216479
H37   H     H_    0.768413 0.544623 0.828135 0.129632
H38   H     H_    0.699751 0.479297 0.862896 0.142563
H39   H     H_    0.768858 0.530561 0.921307 0.163847
O28   O     O_3   0.275185 0.254536 0.126322 -0.547739
C68   C     C_3   0.258799 0.066624 0.130514 -0.216278
H40   H     H_    0.231084 0.042899 0.173061 0.129528
H41   H     H_    0.299624 0.975609 0.138447 0.142323
H42   H     H_    0.230541 0.026358 0.079928 0.163848
O29   O     O_3   0.602603 0.755292 0.865770 -0.529291
C69   C     C_3   0.563299 0.600735 0.856019 -0.212791
H43   H     H_    0.581558 0.486758 0.826323 0.115560
H44   H     H_    0.517285 0.642469 0.829587 0.131561
H45   H     H_    0.558319 0.545051 0.908590 0.170164
O30   O     O_3   0.397098 0.250167 0.134501 -0.529271
C70   C     C_3   0.436168 0.095171 0.144703 -0.212565
H46   H     H_    0.417760 0.982253 0.174772 0.115400
H47   H     H_    0.482258 0.136751 0.170969 0.131504
H48   H     H_    0.441028 0.038098 0.092297 0.170191

loop_
_geom_bond_atom_site_label_1
_geom_bond_atom_site_label_2
_ccdc_geom_bond_type
C46   C48   S    
C62   H14   S    
O14   V4    S    
C15   C17   A    
C23   O25   S    
O21   C61   S    
O1    C3    A    
C58   O17   A    
O2    C4    A    
C67   H39   S    
O27   C67   S    
O28   C68   S    
C46   C50   S    
O5    C3    A    
C5    C21   A    
C24   O26   S    
C12   C14   A    
C4    C31   S    
C6    C30   A    
C8    C28   A    
C68   H42   S    
C27   H35   S    
C63   H17   S    
O29   C69   S    
C61   H13   S    
C34   O24   S    
C12   O30   S    
C18   C26   A    
C41   C43   S    
C33   C35   S    
C37   C53   T    
C49   C51   S    
O24   C64   S    
O20   V3    S    
C42   C44   S    
O16   V4    S    
C9    C31   A    
O15   V3    S    
C10   C32   A    
C43   C49   S    
C36   H6    S    
C45   C47   S    
C61   H12   S    
C66   H32   S    
C34   C36   S    
C19   C21   A    
C44   C50   S    
C25   H3    S    
C13   O27   S    
C26   H4    S    
C1    C40   S    
C65   H29   S    
C48   C52   S    
O5    V1    S    
C57   O18   A    
C28   H36   S    
C62   H15   S    
C17   C31   A    
C18   C32   A    
C35   C51   S    
C2    O7    A    
C69   H45   S    
O13   C57   A    
C65   H28   S    
C9    H1    S    
C46   H10   S    
C68   H40   S    
O18   V4    S    
C11   O29   S    
C45   H9    S    
C37   C60   S    
C42   C46   S    
C5    H33   S    
C16   C20   A    
C35   C43   S    
O30   C70   S    
O11   V4    S    
C69   H44   S    
O16   C60   A    
C70   H48   S    
O15   C59   A    
C33   O23   S    
C43   C53   S    
C50   H24   S    
C41   H25   S    
C40   C56   T    
C35   H5    S    
C20   C22   A    
O4    V2    S    
C36   C52   S    
C30   O22   S    
O13   V3    S    
C8    C30   A    
O6    C4    A    
C61   H11   S    
C3    C32   S    
C64   H21   S    
O1    V2    S    
O2    V1    S    
C6    C22   A    
C7    C27   A    
O4    C2    A    
C10   H2    S    
C62   H16   S    
O14   C58   A    
C9    C11   A    
C15   C19   A    
C36   C44   S    
C66   H30   S    
C34   C42   S    
C10   C12   A    
C6    H34   S    
C48   C56   S    
C7    C58   S    
C39   C55   T    
O3    V1    S    
C65   H27   S    
C38   C54   T    
C23   C25   A    
C49   H23   S    
C33   C47   S    
C64   H20   S    
H8    C52   S    
C2    C39   S    
C14   O28   S    
C69   H43   S    
O3    C1    A    
C8    C57   S    
C67   H38   S    
O25   C65   S    
C67   H37   S    
C13   C15   A    
O23   C63   S    
C14   C16   A    
C70   H47   S    
O7    V1    S    
C1    O8    A    
O8    V2    S    
C70   H46   S    
O19   V4    S    
C68   H41   S    
C33   C41   S    
C29   O21   S    
C63   H18   S    
C45   C49   S    
O17   V3    S    
C16   C18   A    
O22   C62   S    
C21   C23   A    
C22   C24   A    
C19   C27   A    
C64   H22   S    
C47   C51   S    
C20   C28   A    
O12   C60   A    
C38   C59   S    
C5    C29   A    
C42   H26   S    
C24   C26   A    
C41   C45   S    
C11   C13   A    
C47   C55   S    
O6    V2    S    
O9    V2    S    
C17   C25   A    
C66   H31   S    
C44   C54   S    
O10   V1    S    
O11   C59   A    
C50   C52   S    
O12   V3    S    
C34   C48   S    
H7    C51   S    
C7    C29   A    
O26   C66   S    
C63   H19   S    
