data_mof_unit_44106.cif
_audit_creation_date              2012-12-11T14:01:10-0500
_audit_creation_method            fapswitch 2.2
_symmetry_space_group_name_H-M    P1
_symmetry_Int_Tables_number       1
_space_group_crystal_system       triclinic
_cell_length_a                    18.98317
_cell_length_b                    10.983125
_cell_length_c                    18.770624
_cell_angle_alpha                 90.089361
_cell_angle_beta                  89.932407
_cell_angle_gamma                 90.012547
_cell_volume                      3913.56483457

loop_
_atom_site_label
_atom_site_type_symbol
_atom_type_description
_atom_site_fract_x
_atom_site_fract_y
_atom_site_fract_z
_atom_type_partial_charge
C1    C     C_R   0.271361 0.045640 0.851741 0.553820
C2    C     C_R   0.727568 0.042048 0.146371 0.545446
C3    C     C_R   0.771361 0.545640 0.851741 0.553820
C4    C     C_R   0.227568 0.542048 0.146371 0.545446
C5    C     C_R   0.485733 0.059257 0.071553 0.263385
C6    C     C_R   0.529093 0.047802 0.928068 0.248833
C7    C     C_R   0.985736 0.559259 0.071552 0.263387
C8    C     C_R   0.029096 0.547799 0.928068 0.248831
C9    C     C_R   0.003413 0.665135 0.034685 -0.092253
C10   C     C_R   0.027397 0.659427 0.964763 -0.176023
C11   C     C_R   0.503407 0.165134 0.034685 -0.092254
C12   C     C_R   0.527391 0.159429 0.964764 -0.176022
C13   C     C_2   0.248436 0.579185 0.920221 -0.099644
C14   C     C_2   0.736606 0.634860 0.068001 -0.107834
C15   C     C_2   0.748436 0.079185 0.920221 -0.099643
C16   C     C_2   0.236604 0.134865 0.068000 -0.107835
C17   C     C_2   0.250037 0.585527 0.076786 -0.107295
C18   C     C_2   0.744125 0.607102 0.914539 -0.104285
C19   C     C_2   0.750037 0.085527 0.076786 -0.107296
C20   C     C_2   0.244125 0.107103 0.914538 -0.104285
C21   C     C_2   0.293996 0.518482 0.036617 -0.170392
C22   C     C_2   0.692406 0.559186 0.954200 -0.159909
C23   C     C_2   0.793996 0.018482 0.036617 -0.170392
C24   C     C_2   0.192406 0.059189 0.954199 -0.159908
C25   C     C_2   0.302911 0.543066 0.960560 -0.168452
C26   C     C_2   0.681613 0.599975 0.027917 -0.166077
C27   C     C_2   0.802911 0.043066 0.960560 -0.168453
C28   C     C_2   0.181612 0.099979 0.027916 -0.166076
C29   C     C_2   0.490969 0.828351 0.573472 0.279527
C30   C     C_2   0.482882 0.839386 0.413094 0.277022
C31   C     C_2   0.990969 0.328351 0.573472 0.279527
C32   C     C_2   0.982882 0.339386 0.413094 0.277022
C33   C     C_2   0.473385 0.742382 0.454532 -0.068048
C34   C     C_2   0.454622 0.755805 0.528583 -0.045304
C35   C     C_2   0.973385 0.242381 0.454532 -0.068048
C36   C     C_2   0.954622 0.255805 0.528583 -0.045303
C37   C     C_2   0.246608 0.567688 0.582526 -0.110536
C38   C     C_2   0.753529 0.567707 0.417309 -0.105773
C39   C     C_2   0.746608 0.067688 0.582526 -0.110536
C40   C     C_2   0.253529 0.067707 0.417309 -0.105773
C41   C     C_2   0.238623 0.571443 0.427269 -0.101167
C42   C     C_2   0.761349 0.570959 0.572708 -0.104656
C43   C     C_2   0.738623 0.071443 0.427269 -0.101167
C44   C     C_2   0.261349 0.070959 0.572708 -0.104656
C45   C     C_R   0.471082 0.821744 0.853697 0.597435
C46   C     C_R   0.527760 0.822376 0.147269 0.532938
C47   C     C_R   0.971082 0.321743 0.853697 0.597438
C48   C     C_R   0.027760 0.322376 0.147269 0.532938
C49   C     C_2   0.182728 0.564247 0.471223 -0.124499
C50   C     C_2   0.817246 0.564384 0.528735 -0.131891
C51   C     C_2   0.682728 0.064247 0.471223 -0.124499
C52   C     C_2   0.317246 0.064384 0.528735 -0.131891
C53   C     C_2   0.187609 0.589396 0.546551 -0.144022
C54   C     C_2   0.812287 0.590292 0.453549 -0.124295
C55   C     C_2   0.687609 0.089396 0.546551 -0.144022
C56   C     C_2   0.312287 0.090292 0.453549 -0.124295
C57   C     C_R   0.260782 0.635960 0.851325 0.564287
C58   C     C_R   0.727478 0.678871 0.140347 0.559677
C59   C     C_R   0.760782 0.135960 0.851325 0.564289
C60   C     C_R   0.227477 0.178873 0.140347 0.559678
C61   C     C_R   0.273658 0.042863 0.646547 0.549651
C62   C     C_R   0.726380 0.043102 0.353407 0.550480
C63   C     C_R   0.773658 0.542863 0.646547 0.549651
C64   C     C_R   0.226380 0.543102 0.353407 0.550480
C65   C     C_R   0.469674 0.823331 0.647384 0.524731
C66   C     C_R   0.526631 0.824726 0.349851 0.538319
C67   C     C_R   0.969673 0.323331 0.647384 0.524732
C68   C     C_R   0.026631 0.324726 0.349851 0.538319
C69   C     C_R   0.260045 0.634389 0.647283 0.553751
C70   C     C_R   0.739976 0.634429 0.352679 0.565101
C71   C     C_R   0.760045 0.134389 0.647283 0.553751
C72   C     C_R   0.239976 0.134429 0.352679 0.565101
C73   C     C_R   0.495486 0.831909 0.076383 -0.015889
C74   C     C_R   0.497451 0.827810 0.927177 0.039325
C75   C     C_R   0.995485 0.331910 0.076384 -0.015890
C76   C     C_R   0.997449 0.327809 0.927178 0.039325
C77   C     C_R   0.495243 0.943785 0.038122 -0.029591
C78   C     C_R   0.507148 0.940126 0.963410 0.033348
C79   C     C_R   0.995243 0.443785 0.038122 -0.029592
C80   C     C_R   0.007149 0.440125 0.963411 0.033348
C81   C     C_R   0.490390 0.720001 0.966576 -0.169697
C82   C     C_R   0.488545 0.722196 0.039476 -0.165169
C83   C     C_R   0.990385 0.220000 0.966577 -0.169697
C84   C     C_R   0.988540 0.222197 0.039478 -0.165170
Cr1   Cr    Cr6+3 0.230530 0.836340 0.748870 1.022142
Cr2   Cr    Cr6+3 0.769470 0.836340 0.251130 1.039335
Cr3   Cr    Cr6+3 0.730530 0.336340 0.748870 1.022142
Cr4   Cr    Cr6+3 0.269470 0.336340 0.251130 1.039335
Cr5   Cr    Cr6+3 0.387420 0.989430 0.750820 1.054365
Cr6   Cr    Cr6+3 0.612580 0.989430 0.249180 1.060283
Cr7   Cr    Cr6+3 0.887420 0.489430 0.750820 1.054367
Cr8   Cr    Cr6+3 0.112580 0.489430 0.249180 1.060283
Cr9   Cr    Cr6+3 0.385640 0.677860 0.749230 1.018197
Cr10  Cr    Cr6+3 0.614360 0.677860 0.250770 1.024723
Cr11  Cr    Cr6+3 0.885640 0.177860 0.749230 1.018198
Cr12  Cr    Cr6+3 0.114360 0.177860 0.250770 1.024723
H1    H     H_    0.483773 0.632096 0.941184 0.138123
H2    H     H_    0.485893 0.635621 0.066996 0.142944
H3    H     H_    0.983766 0.132096 0.941186 0.138123
H4    H     H_    0.985887 0.135623 0.066998 0.142944
H5    H     H_    0.130029 0.547236 0.450811 0.198727
H6    H     H_    0.869984 0.547732 0.549091 0.195785
H7    H     H_    0.630029 0.047236 0.450811 0.198726
H8    H     H_    0.369984 0.047732 0.549091 0.195785
H9    H     H_    0.143279 0.636347 0.570878 0.162491
H10   H     H_    0.856246 0.638737 0.429641 0.172005
H11   H     H_    0.643279 0.136347 0.570878 0.162491
H12   H     H_    0.356246 0.138737 0.429641 0.172005
H13   H     H_    0.291870 0.587849 0.446029 0.086625
H14   H     H_    0.708077 0.586940 0.553957 0.102273
H15   H     H_    0.791870 0.087849 0.446029 0.086625
H16   H     H_    0.208077 0.086940 0.553957 0.102273
H17   H     H_    0.289237 0.514599 0.559423 0.105954
H18   H     H_    0.711183 0.513627 0.440080 0.108078
H19   H     H_    0.789237 0.014599 0.559423 0.105954
H20   H     H_    0.211182 0.013627 0.440080 0.108078
H21   H     H_    0.998300 0.752933 0.060524 0.138525
H22   H     H_    0.043423 0.742837 0.938653 0.098580
H23   H     H_    0.498292 0.252931 0.060525 0.138525
H24   H     H_    0.543415 0.242839 0.938654 0.098578
H25   H     H_    0.323006 0.442436 0.059066 0.153663
H26   H     H_    0.660991 0.483433 0.934789 0.146844
H27   H     H_    0.823006 0.942436 0.059066 0.153664
H28   H     H_    0.160990 0.983436 0.934789 0.146844
H29   H     H_    0.355576 0.534707 0.938420 0.150256
H30   H     H_    0.628985 0.594806 0.050447 0.155520
H31   H     H_    0.855576 0.034706 0.938420 0.150255
H32   H     H_    0.128984 0.094810 0.050447 0.155521
H33   H     H_    0.222688 0.663430 0.054302 0.113851
H34   H     H_    0.773090 0.686406 0.933092 0.111814
H35   H     H_    0.722688 0.163430 0.054302 0.113851
H36   H     H_    0.273089 0.186407 0.933091 0.111814
H37   H     H_    0.195551 0.583555 0.942345 0.128771
H38   H     H_    0.789845 0.634420 0.046634 0.122025
H39   H     H_    0.695551 0.083555 0.942345 0.128773
H40   H     H_    0.289844 0.134425 0.046634 0.122025
H41   H     H_    0.486247 0.650831 0.436790 0.095166
H42   H     H_    0.413566 0.695189 0.548019 0.088295
H43   H     H_    0.986247 0.150831 0.436790 0.095166
H44   H     H_    0.913566 0.195189 0.548019 0.088295
O1    O     O_R   0.215090 0.709860 0.828130 -0.520655
O2    O     O_R   0.784910 0.709860 0.171870 -0.494636
O3    O     O_R   0.715090 0.209860 0.828130 -0.520649
O4    O     O_R   0.284910 0.209860 0.171870 -0.494634
O5    O     O_R   0.445660 0.919250 0.676780 -0.499984
O6    O     O_R   0.554340 0.919250 0.323220 -0.504623
O7    O     O_R   0.945660 0.419250 0.676780 -0.499984
O8    O     O_R   0.054340 0.419250 0.323220 -0.504623
O9    O     O_R   0.456260 0.718170 0.670000 -0.535854
O10   O     O_R   0.543740 0.718170 0.330000 -0.537039
O11   O     O_R   0.956260 0.218170 0.670000 -0.535854
O12   O     O_R   0.043740 0.218170 0.330000 -0.537039
O13   O     O_R   0.320940 0.626760 0.674370 -0.504737
O14   O     O_R   0.679060 0.626760 0.325630 -0.491209
O15   O     O_R   0.820940 0.126760 0.674370 -0.504737
O16   O     O_R   0.179060 0.126760 0.325630 -0.491209
O17   O     O_3   0.334530 0.834540 0.749640 -0.258930
O18   O     O_3   0.665470 0.834540 0.250360 -0.271048
O19   O     O_3   0.834530 0.334540 0.749640 -0.258931
O20   O     O_3   0.165470 0.334540 0.250360 -0.271050
O21   O     O_R   0.236990 0.958390 0.823710 -0.499546
O22   O     O_R   0.763010 0.958390 0.176290 -0.513752
O23   O     O_R   0.736990 0.458390 0.823710 -0.499547
O24   O     O_R   0.263010 0.458390 0.176290 -0.513754
O25   O     O_R   0.332380 0.074750 0.830850 -0.511583
O26   O     O_R   0.667620 0.074750 0.169150 -0.498171
O27   O     O_R   0.832380 0.574750 0.830850 -0.511583
O28   O     O_R   0.167620 0.574750 0.169150 -0.498169
O29   O     O_R   0.445800 0.917770 0.825070 -0.446276
O30   O     O_R   0.554200 0.917770 0.174930 -0.462219
O31   O     O_R   0.945800 0.417770 0.825070 -0.446276
O32   O     O_R   0.054200 0.417770 0.174930 -0.462219
O33   O     O_R   0.456410 0.716580 0.829970 -0.539307
O34   O     O_R   0.543590 0.716580 0.170030 -0.535948
O35   O     O_R   0.956410 0.216580 0.829970 -0.539307
O36   O     O_R   0.043590 0.216580 0.170030 -0.535948
O37   O     O_R   0.321080 0.625290 0.822650 -0.499537
O38   O     O_R   0.678920 0.625290 0.177350 -0.492717
O39   O     O_R   0.821080 0.125290 0.822650 -0.499539
O40   O     O_R   0.178920 0.125290 0.177350 -0.492716
O41   O     O_R   0.214930 0.711450 0.668160 -0.511745
O42   O     O_R   0.785070 0.711450 0.331840 -0.508355
O43   O     O_R   0.714930 0.211450 0.668160 -0.511745
O44   O     O_R   0.285070 0.211450 0.331840 -0.508355
O45   O     O_R   0.236850 0.959870 0.675420 -0.494029
O46   O     O_R   0.763150 0.959870 0.324580 -0.494501
O47   O     O_R   0.736850 0.459870 0.675420 -0.494029
O48   O     O_R   0.263150 0.459870 0.324580 -0.494501
O49   O     O_R   0.332230 0.076350 0.670880 -0.516020
O50   O     O_R   0.667770 0.076350 0.329120 -0.512258
O51   O     O_R   0.832230 0.576350 0.670880 -0.516019
O52   O     O_R   0.167770 0.576350 0.329120 -0.512257
O53   O     O_3   0.455122 0.073221 0.137809 -0.676277
H45   H     H_    0.427912 0.998661 0.149044 0.321777
O54   O     O_3   0.556952 0.040865 0.860111 -0.692217
H46   H     H_    0.570195 0.123668 0.843891 0.325696
O55   O     O_3   0.955125 0.573226 0.137808 -0.676277
H47   H     H_    0.927913 0.498668 0.149044 0.321777
O56   O     O_3   0.056957 0.540858 0.860111 -0.692223
H48   H     H_    0.070206 0.623657 0.843892 0.325702
O57   O     O_3   0.459062 0.952488 0.435279 -0.695163
H49   H     H_    0.468141 0.012803 0.397201 0.326571
O58   O     O_3   0.545364 0.902001 0.550419 -0.688948
H50   H     H_    0.564509 0.945203 0.592592 0.313497
O59   O     O_3   0.959062 0.452488 0.435279 -0.695163
H51   H     H_    0.968140 0.512803 0.397201 0.326570
O60   O     O_3   0.045364 0.402001 0.550419 -0.688948
H52   H     H_    0.064509 0.445204 0.592591 0.313498

loop_
_geom_bond_atom_site_label_1
_geom_bond_atom_site_label_2
_ccdc_geom_bond_type
C16   C28   D    
Cr3   O23   S    
O58   H50   S    
C38   C70   S    
C7    O55   S    
C72   O16   A    
C37   C69   S    
Cr8   O8    S    
C9    H21   S    
O57   H49   S    
Cr9   O9    S    
C35   C36   S    
C53   H9    S    
C11   H23   S    
C2    O22   A    
Cr7   O7    S    
C81   C82   A    
C3    O27   A    
C62   O50   A    
Cr12  O16   S    
C77   C78   A    
Cr5   O5    S    
C50   C54   S    
C7    C79   A    
Cr1   O17   S    
C29   O58   S    
Cr5   O49   S    
Cr7   O27   S    
C47   C76   S    
C66   O10   A    
Cr3   O43   S    
C38   H18   S    
C49   C53   S    
C75   C84   A    
Cr4   O44   S    
C37   H17   S    
C51   H7    S    
Cr12  O12   S    
C26   H30   S    
C24   H28   S    
Cr1   O21   S    
C3    C18   S    
C16   C60   S    
Cr9   O33   S    
C25   H29   S    
C56   H12   S    
Cr11  O35   S    
C35   H43   S    
C48   O32   A    
Cr11  O11   S    
C27   H31   S    
C70   O42   A    
C39   C55   D    
C20   C24   D    
C33   H41   S    
C40   C56   D    
C4    O24   A    
Cr2   O22   S    
C23   C27   S    
C18   C22   D    
Cr12  O36   S    
C9    C10   A    
C2    O26   A    
Cr7   O19   S    
C68   O8    A    
C3    O23   A    
C32   C68   S    
C37   C53   D    
C44   C52   D    
C1    O21   A    
O56   H48   S    
Cr10  O18   S    
C12   H24   S    
Cr6   O26   S    
C19   H35   S    
C47   O31   A    
C82   H2    S    
C48   C75   S    
C13   C25   D    
C28   H32   S    
C43   H15   S    
C20   H36   S    
C76   C83   A    
C41   C49   D    
C6    O54   S    
C64   O52   A    
C61   O45   A    
C22   H26   S    
Cr1   O45   S    
C14   C58   S    
C54   H10   S    
C17   H33   S    
O60   H52   S    
C84   H4    S    
C32   C35   D    
C71   O43   A    
C13   C57   S    
C79   C80   A    
C72   O44   A    
Cr1   O1    S    
Cr9   O37   S    
Cr3   O47   S    
C14   H38   S    
C51   C55   S    
O59   H51   S    
Cr7   O51   S    
C29   C34   D    
C34   H42   S    
C69   O13   A    
C46   O30   A    
C55   H11   S    
C45   C74   S    
Cr6   O18   S    
C19   C23   D    
C31   O60   S    
C68   O12   A    
C45   O33   A    
C10   H22   S    
Cr2   O46   S    
Cr2   O18   S    
Cr8   O28   S    
C15   C27   D    
C83   C84   A    
C38   C54   D    
C1    O25   A    
Cr10  O14   S    
C71   O15   A    
Cr6   O30   S    
C46   O34   A    
C33   C34   S    
C58   O38   A    
C64   O48   A    
C14   C26   D    
Cr9   O17   S    
C36   H44   S    
Cr5   O25   S    
C30   C66   S    
C22   C26   S    
C42   C50   D    
C29   C65   S    
C4    C17   S    
C44   H16   S    
Cr11  O39   S    
C41   H13   S    
Cr12  O20   S    
Cr10  O34   S    
C50   H6    S    
C39   H19   S    
Cr7   O31   S    
C5    C11   A    
C67   O7    A    
Cr11  O19   S    
C18   H34   S    
C76   C80   A    
C74   C81   A    
C5    C77   A    
C16   H40   S    
C6    C12   A    
C73   C82   A    
Cr2   O2    S    
C5    O53   S    
Cr6   O50   S    
C7    C9    A    
C30   O57   S    
C21   C25   S    
C52   H8    S    
C1    C20   S    
Cr1   O41   S    
C58   O2    A    
C40   C72   S    
C30   C33   D    
C2    C19   S    
C70   O14   A    
C4    O28   A    
C13   H37   S    
C24   C28   S    
Cr2   O42   S    
Cr10  O38   S    
C45   O29   A    
C23   H27   S    
C11   C12   A    
Cr5   O17   S    
C57   O1    A    
C44   C61   S    
C60   O40   A    
C63   O47   A    
C41   C64   S    
C62   O46   A    
Cr8   O20   S    
Cr12  O40   S    
C59   O39   A    
C42   H14   S    
Cr5   O29   S    
Cr6   O6    S    
Cr4   O24   S    
C75   C79   A    
C60   O4    A    
C57   O37   A    
C43   C51   D    
C40   H20   S    
C81   H1    S    
Cr8   O32   S    
C67   O11   A    
C63   O51   A    
Cr9   O13   S    
Cr3   O19   S    
Cr11  O15   S    
Cr4   O20   S    
C21   H25   S    
O55   H47   S    
C15   C59   S    
C66   O6    A    
C6    C78   A    
C31   C67   S    
C59   O3    A    
O54   H46   S    
Cr8   O52   S    
Cr10  O10   S    
Cr4   O48   S    
C15   H39   S    
C43   C62   S    
C73   C77   A    
C8    C10   A    
O53   H45   S    
C74   C78   A    
C8    C80   A    
C65   O9    A    
C39   C71   S    
C31   C36   D    
C8    O56   S    
C83   H3    S    
C61   O49   A    
Cr3   O3    S    
C32   O59   S    
C65   O5    A    
C42   C63   S    
Cr4   O4    S    
C46   C73   S    
C47   O35   A    
C52   C56   S    
C49   H5    S    
C69   O41   A    
C48   O36   A    
C17   C21   D    
