data_mof_unit_67070.cif
_audit_creation_date              2013-03-05T15:58:17-0500
_audit_creation_method            fapswitch 2.2
_symmetry_space_group_name_H-M    P1
_symmetry_Int_Tables_number       1
_space_group_crystal_system       triclinic
_cell_length_a                    8.239853
_cell_length_b                    13.000976
_cell_length_c                    14.394492
_cell_angle_alpha                 93.22607
_cell_angle_beta                  91.223454
_cell_angle_gamma                 98.187631
_cell_volume                      1523.21659811

loop_
_atom_site_label
_atom_site_type_symbol
_atom_site_description
_atom_site_fract_x
_atom_site_fract_y
_atom_site_fract_z
_atom_type_partial_charge
P1    P     P_3+3 0.054400 0.427280 0.286870 0.494236
O1    O     O_2   0.887370 0.460630 0.272300 -0.405778
O2    O     O_3   0.129410 0.451380 0.388510 -0.328787
O3    O     O_3   0.670210 0.653170 0.329170 -0.390004
O4    O     O_2   0.798203 0.598160 0.167405 -0.379334
O5    O     O_3   0.030318 0.293423 0.257157 -0.619387
O6    O     O_3   0.671883 0.772877 0.177732 -0.500145
H1    H     H_    0.625523 0.851269 0.301185 0.139663
C1    C     C_3   0.517529 0.914678 0.183118 -0.675383
H2    H     H_    0.455457 0.964756 0.231516 0.227482
P2    P     P_3+3 0.668300 0.742890 0.573060 0.494241
P3    P     P_3+3 0.141259 0.839788 0.377877 0.531172
O7    O     O_2   0.845380 0.761330 0.544970 -0.340129
O8    O     O_3   0.088930 0.704860 0.376040 -0.416091
O9    O     O_2   0.997984 0.886485 0.423273 -0.264608
O10   O     O_3   0.681596 0.759373 0.694567 -0.506070
O11   O     O_3   0.144529 0.883843 0.265092 -0.510661
C2    C     C_3   0.088865 0.802063 0.199316 0.269093
H3    H     H_    0.970772 0.759847 0.220242 0.189318
H4    H     H_    0.180531 0.747202 0.192469 0.030152
C3    C     C_3   0.062867 0.848997 0.105838 -0.030305
H5    H     H_    0.945540 0.881647 0.105794 0.205441
C4    C     C_3   0.245036 0.755135 0.661922 0.432298
H6    H     H_    0.150391 0.755499 0.606014 0.135392
C5    C     C_3   0.313628 0.865835 0.694589 -0.824179
H7    H     H_    0.424061 0.865065 0.739606 0.271610
H8    H     H_    0.346755 0.914260 0.635198 0.220936
H9    H     H_    0.219742 0.900695 0.735110 0.298769
Ba1   Ba    Ba6+2 0.855630 0.555280 0.454520 1.628357
C6    C     C_3   0.895403 0.240025 0.298735 0.642674
H10   H     H_    0.794384 0.287176 0.304504 0.018045
C7    C     C_3   0.827349 0.143690 0.235123 -0.207918
H11   H     H_    0.700673 0.113880 0.256601 0.126409
H12   H     H_    0.818829 0.166176 0.161560 0.237212
C8    C     C_3   0.708960 0.667107 0.733644 0.374616
H13   H     H_    0.828288 0.646246 0.711559 0.087250
H14   H     H_    0.609405 0.602319 0.713824 0.117877
C9    C     C_3   0.711956 0.685636 0.838877 -0.734568
H15   H     H_    0.812116 0.749368 0.860904 0.314049
P4    P     P_3+3 0.135310 0.572810 0.713130 0.474902
O12   O     O_2   0.302330 0.539400 0.727760 -0.384165
O13   O     O_3   0.060300 0.548700 0.611500 -0.405599
O14   O     O_3   0.519500 0.346920 0.670840 -0.357348
O15   O     O_3   0.175309 0.706645 0.738459 -0.531225
P5    P     P_3+3 0.058816 0.162261 0.631669 0.622858
O16   O     O_3   0.614310 0.373510 0.452640 -0.388203
O17   O     O_3   0.100780 0.295230 0.623970 -0.314331
O18   O     O_2   0.183299 0.118779 0.566836 -0.277566
O19   O     O_3   0.125677 0.132973 0.741640 -0.496455
Ba2   Ba    Ba6+2 0.334200 0.444810 0.545490 1.642664
P6    P     P_3+3 0.650572 0.644137 0.208589 0.471747
C10   C     C_3   0.564443 0.823591 0.233114 0.348035
H16   H     H_    0.432238 0.884703 0.124105 0.259343
O20   O     O_3   0.575400 0.626570 0.547370 -0.432080
C11   C     C_3   0.460008 0.303965 0.266382 0.245123
H17   H     H_    0.372215 0.343054 0.308313 0.099575
H18   H     H_    0.572248 0.360763 0.258215 0.070511
C12   C     C_3   0.378963 0.273202 0.170499 -0.072176
H19   H     H_    0.368327 0.343648 0.131522 0.043826
P7    P     P_3+3 0.527564 0.240301 0.427946 0.458045
O21   O     O_2   0.344320 0.238700 0.455090 -0.290115
O22   O     O_3   0.500816 0.214486 0.307591 -0.585112
H20   H     H_    0.162888 0.913952 0.095918 0.179334
C13   C     C_3   0.015515 0.161052 0.808241 0.208934
H21   H     H_    0.016402 0.246887 0.812875 0.072048
C14   C     C_3   0.070803 0.126581 0.902036 -0.041965
H22   H     H_    0.184089 0.178087 0.927170 0.138844
P8    P     P_3+3 0.538578 0.352512 0.792138 0.472808
C15   C     C_3   0.555370 0.165404 0.838825 0.170401
H23   H     H_    0.655531 0.196765 0.889918 0.136400
O23   O     O_2   0.426728 0.429551 0.829418 -0.387206
O24   O     O_3   0.442054 0.235452 0.831169 -0.499998
H24   H     H_    0.606311 0.147891 0.769558 0.059566
C16   C     C_3   0.462849 0.065797 0.873980 -0.040002
H25   H     H_    0.371737 0.030408 0.819971 0.118865
H26   H     H_    0.395345 0.085052 0.936538 0.171958
C17   C     C_R   0.980986 0.451283 0.060421 -0.007686
C18   C     C_R   0.180225 0.496530 0.196222 0.233034
C19   C     C_R   0.337878 0.540308 0.225878 -0.541213
C20   C     C_R   0.452232 0.580177 0.163127 0.253734
C21   C     C_R   0.409203 0.584423 0.069304 -0.256179
C22   C     C_R   0.250799 0.543978 0.035884 0.054518
C23   C     C_R   0.135156 0.496425 0.098465 -0.040422
H27   H     H_    0.374118 0.540934 0.298672 0.169768
C24   C     C_R   0.056305 0.502492 0.901908 -0.011321
C25   C     C_R   0.941425 0.453945 0.964300 0.113640
C26   C     C_R   0.012077 0.500421 0.803958 0.259170
C27   C     C_R   0.860968 0.445195 0.772822 -0.509491
C28   C     C_R   0.747128 0.402473 0.835257 0.162707
C29   C     C_R   0.785310 0.409311 0.930254 -0.234631
C30   C     C_R   0.209318 0.549735 0.940331 -0.003327
H28   H     H_    0.499192 0.620409 0.022749 0.171555
H29   H     H_    0.692076 0.380275 0.977493 0.194716
H30   H     H_    0.826323 0.442005 0.699645 0.170203
H31   H     H_    0.890511 0.412324 0.104658 0.172284
C31   C     C_R   0.741113 0.176029 0.560090 -0.388648
C32   C     C_R   0.432346 0.817143 0.470350 -0.562739
C33   C     C_R   0.403686 0.993868 0.440478 -0.154440
C34   C     C_R   0.340259 0.888341 0.436032 0.244248
C35   C     C_R   0.580042 0.849241 0.519658 0.299311
C36   C     C_R   0.643700 0.958841 0.532594 -0.173269
C37   C     C_R   0.553408 0.031292 0.488610 -0.087319
C38   C     C_R   0.610113 0.140203 0.498201 0.222775
C39   C     C_R   0.843993 0.108604 0.592192 0.084924
C40   C     C_R   0.792910 0.001013 0.584404 0.296364
H32   H     H_    0.331976 0.046177 0.408228 0.219082
H33   H     H_    0.384066 0.735134 0.461956 0.166503
N1    N     N_R   0.944814 0.216193 0.391995 0.189299
O25   O     O_R   0.960669 0.292819 0.455348 -0.384718
O26   O     O_R   0.029119 0.139905 0.403626 -0.330936
N2    N     N_R   0.928253 0.059331 0.238382 0.287832
O27   O     O_R   0.077038 0.070092 0.206456 -0.324480
O28   O     O_R   0.874803 0.977171 0.284683 -0.366147
H34   H     H_    0.732013 0.614102 0.872948 0.198508
H35   H     H_    0.593155 0.708068 0.861562 0.248485
H36   H     H_    0.447839 0.773320 0.247916 0.021463
H37   H     H_    0.253681 0.231794 0.178717 0.210311
N3    N     N_R   0.472449 0.204910 0.117048 0.264707
O29   O     O_R   0.610745 0.242791 0.081578 -0.441775
O30   O     O_R   0.418963 0.105616 0.105612 -0.377701
H38   H     H_    0.627805 0.960850 0.155731 0.296720
H39   H     H_    0.889386 0.121299 0.790820 0.078632
N4    N     N_R   0.946203 0.132459 0.971187 0.245923
O31   O     O_R   0.885784 0.049304 0.011925 -0.332684
O32   O     O_R   0.917148 0.222934 0.003930 -0.444857
H40   H     H_    0.097300 0.045022 0.893348 0.158176
N5    N     N_R   0.571819 0.991668 0.896944 0.268995
O33   O     O_R   0.556575 0.945771 0.974844 -0.320023
O34   O     O_R   0.664915 0.958051 0.834132 -0.365139
H41   H     H_    0.298691 0.590417 0.896433 0.163430
N6    N     N_R   0.896843 0.939389 0.630615 0.256099
O35   O     O_R   0.037254 0.929112 0.594982 -0.385292
O36   O     O_R   0.886264 0.931841 0.719774 -0.350500
H42   H     H_    0.773702 0.258838 0.575461 0.186211
N7    N     N_R   0.058824 0.771318 0.028523 0.227917
O37   O     O_R   0.164321 0.784976 0.962749 -0.384856
O38   O     O_R   0.938627 0.694885 0.019323 -0.400125
H43   H     H_    0.345971 0.715550 0.634776 0.073488

loop_
_geom_bond_atom_site_label_1
_geom_bond_atom_site_label_2
_geom_bond_distance
_ccdc_geom_bond_type
C11   H17   1.111176 S    
C36   C37   1.445065 A    
C7    N2    1.469753 S    
Ba1   O13   2.803133 S    
C2    C3    1.531705 S    
C4    H43   1.105624 S    
N2    O27   1.310039 A    
C26   C27   1.397146 A    
C21   C22   1.400276 A    
C24   C30   1.408616 A    
N7    O37   1.301413 A    
C40   N6    1.431365 S    
C30   H41   1.080689 S    
C24   C25   1.425103 A    
C5    H9    1.110612 S    
Ba2   O20   2.861389 S    
C16   H26   1.103904 S    
O1    Ba1   2.867100 S    
P4    C26   1.883919 S    
O7    Ba1   2.924914 S    
C8    H14   1.109038 S    
O6    C10   1.411103 S    
P1    O1    1.514619 D    
C10   H36   1.114113 S    
P2    C35   1.847615 S    
O10   C8    1.397751 S    
C6    H10   1.103674 S    
C9    H34   1.106544 S    
P4    Ba2   3.431001 S    
N4    O32   1.298343 A    
Ba1   O20   2.928995 S    
C17   C23   1.407076 A    
C11   O22   1.413791 S    
C12   N3    1.454949 S    
N1    O25   1.302583 A    
P7    O22   1.749211 S    
C2    H3    1.103556 S    
O2    Ba1   2.937968 S    
P6    C20   1.815658 S    
P3    C34   1.837123 S    
N3    O29   1.301953 A    
C21   H28   1.084192 S    
C18   C23   1.447526 A    
C8    H13   1.104988 S    
O14   P8    1.746236 S    
P3    O11   1.751169 S    
C1    H38   1.108139 S    
C4    H6    1.109301 S    
C15   H24   1.114324 S    
P7    C38   1.884097 S    
C1    H2    1.108971 S    
H1    C10   1.109310 S    
O3    Ba1   2.811440 S    
C6    N1    1.457158 S    
P4    O13   1.573204 S    
C14   H22   1.109469 S    
O19   C13   1.403016 S    
C3    H5    1.109820 S    
P1    C18   1.874087 S    
C37   C38   1.424461 A    
C1    C10   1.511351 S    
C39   C40   1.399638 A    
C32   C34   1.382789 A    
O2    Ba2   2.803695 S    
P8    C28   1.830650 S    
O17   Ba2   2.834067 S    
Ba1   Ba2   4.575118 S    
P5    O17   1.724314 S    
C36   C40   1.446103 A    
C9    H15   1.110257 S    
C27   H30   1.082416 S    
C16   H25   1.102781 S    
C24   C26   1.446529 A    
P1    O5    1.750734 S    
N4    O31   1.300390 A    
C8    C9    1.519482 S    
C25   C29   1.400036 A    
C18   C19   1.389982 A    
C31   H42   1.080936 S    
O3    P6    1.735589 S    
C5    H7    1.107320 S    
C33   C37   1.411855 A    
C17   H31   1.080186 S    
C12   H37   1.106150 S    
C4    O15   1.394031 S    
C14   H40   1.113469 S    
P7    O21   1.565269 D    
P1    O2    1.573324 S    
C7    H12   1.117665 S    
C15   O24   1.400860 S    
N5    O34   1.295216 A    
P5    C39   1.871777 S    
P2    O10   1.749286 S    
C16   N5    1.453944 S    
P3    O9    1.543294 D    
P5    O19   1.744901 S    
P8    O24   1.742111 S    
P1    Ba1   3.430544 S    
O11   C2    1.402325 S    
C15   C16   1.524238 S    
N2    O28   1.318251 A    
P2    O20   1.613979 S    
O13   Ba2   2.938727 S    
P4    O12   1.514987 D    
O5    C6    1.389721 S    
P3    O8    1.744326 S    
C17   C25   1.418157 A    
C33   C34   1.394261 A    
C11   H18   1.110994 S    
C11   C12   1.527504 S    
C1    H16   1.107513 S    
O8    Ba1   2.833484 S    
N5    O33   1.299680 A    
O12   Ba2   2.867620 S    
C32   C35   1.394310 A    
C29   H29   1.078724 S    
P5    O18   1.545721 D    
N7    O38   1.298136 A    
O16   P7    1.789921 S    
C20   C21   1.395067 A    
N6    O36   1.296479 A    
O14   Ba2   2.810852 S    
C5    H8    1.106048 S    
O16   Ba2   2.928214 S    
C33   H32   1.079542 S    
Ba1   O16   2.862053 S    
C7    H11   1.116841 S    
C31   C39   1.393237 A    
C12   H19   1.113490 S    
O6    P6    1.741512 S    
C13   H21   1.113148 S    
C6    C7    1.539636 S    
C9    H35   1.110927 S    
P2    O7    1.512101 D    
C19   H27   1.082672 S    
P8    O23   1.537556 D    
C13   H39   1.109679 S    
C35   C36   1.446806 A    
N1    O26   1.305470 A    
C2    H4    1.112491 S    
C4    C5    1.514160 S    
C15   H23   1.110297 S    
N3    O30   1.303364 A    
C3    H20   1.110460 S    
C22   C30   1.418812 A    
C19   C20   1.386483 A    
C32   H33   1.082719 S    
P4    O15   1.740466 S    
C27   C28   1.392792 A    
P2    Ba1   3.458302 S    
C22   C23   1.425914 A    
C31   C38   1.394548 A    
Ba2   O21   2.925146 S    
C14   N4    1.451953 S    
O4    P6    1.544837 D    
C28   C29   1.391676 A    
C3    N7    1.456674 S    
N6    O35   1.296601 A    
C13   C14   1.526842 S    
