data_mof_unit_28044.cif
_audit_creation_date              2012-12-11T14:01:17-0500
_audit_creation_method            fapswitch 2.2
_symmetry_space_group_name_H-M    P1
_symmetry_Int_Tables_number       1
_space_group_crystal_system       triclinic
_cell_length_a                    19.151669
_cell_length_b                    11.000599
_cell_length_c                    18.801606
_cell_angle_alpha                 90.14296
_cell_angle_beta                  90.248909
_cell_angle_gamma                 89.860189
_cell_volume                      3961.05777442

loop_
_atom_site_label
_atom_site_type_symbol
_atom_type_description
_atom_site_fract_x
_atom_site_fract_y
_atom_site_fract_z
_atom_type_partial_charge
C1    C     C_R   0.271706 0.045925 0.851379 0.581301
C2    C     C_R   0.708930 0.996244 0.139941 0.620124
C3    C     C_R   0.771705 0.545930 0.851375 0.581342
C4    C     C_R   0.208931 0.496244 0.139940 0.620122
C5    C     C_R   0.444275 0.018653 0.082970 0.223719
C6    C     C_R   0.476664 0.066045 0.939043 0.259257
C7    C     C_R   0.944282 0.518683 0.082988 0.223745
C8    C     C_R   0.976645 0.566046 0.939052 0.259250
C9    C     C_R   0.928328 0.630309 0.052265 0.369398
C10   C     C_R   0.944387 0.653933 0.981562 0.391924
C11   C     C_R   0.428333 0.130292 0.052253 0.369409
C12   C     C_R   0.444406 0.153929 0.981555 0.391951
C13   C     C_2   0.249827 0.569489 0.913920 -0.072948
C14   C     C_2   0.746613 0.591037 0.077448 -0.071138
C15   C     C_2   0.749826 0.069491 0.913920 -0.072943
C16   C     C_2   0.246610 0.091090 0.077431 -0.071174
C17   C     C_2   0.219762 0.521753 0.065648 0.374667
C18   C     C_2   0.743990 0.613641 0.911536 0.381132
C19   C     C_2   0.719761 0.021755 0.065648 0.374635
C20   C     C_2   0.243994 0.113630 0.911546 0.381110
C21   C     C_2   0.282071 0.558509 0.041035 0.253256
C22   C     C_2   0.701711 0.562687 0.959483 0.216072
C23   C     C_2   0.782067 0.058518 0.041035 0.253229
C24   C     C_2   0.201687 0.062696 0.959477 0.216075
C25   C     C_2   0.289068 0.605923 0.968794 -0.092176
C26   C     C_2   0.699809 0.623226 0.028732 -0.097095
C27   C     C_2   0.789064 0.105929 0.968794 -0.092146
C28   C     C_2   0.199774 0.123218 0.028732 -0.097130
C29   C     C_2   0.512083 0.839057 0.584968 -0.110887
C30   C     C_2   0.515173 0.829750 0.428811 -0.106826
C31   C     C_2   0.012081 0.339057 0.584966 -0.110885
C32   C     C_2   0.015168 0.329751 0.428809 -0.106830
C33   C     C_2   0.546390 0.748989 0.472497 -0.148578
C34   C     C_2   0.531301 0.741529 0.547871 -0.161184
C35   C     C_2   0.046386 0.248991 0.472495 -0.148563
C36   C     C_2   0.031297 0.241530 0.547869 -0.161188
C37   C     C_2   0.246600 0.565848 0.583179 -0.106234
C38   C     C_2   0.745139 0.612827 0.430536 -0.106338
C39   C     C_2   0.746600 0.065848 0.583179 -0.106235
C40   C     C_2   0.245139 0.112827 0.430536 -0.106334
C41   C     C_2   0.237683 0.568417 0.428061 -0.104545
C42   C     C_2   0.743615 0.603419 0.585888 -0.104437
C43   C     C_2   0.737683 0.068417 0.428061 -0.104548
C44   C     C_2   0.243615 0.103419 0.585888 -0.104438
C45   C     C_R   0.470641 0.823654 0.853460 0.528354
C46   C     C_R   0.531863 0.820403 0.145171 0.578256
C47   C     C_R   0.970635 0.323654 0.853464 0.528373
C48   C     C_R   0.031857 0.320404 0.145174 0.578252
C49   C     C_2   0.182617 0.558099 0.471962 -0.149378
C50   C     C_2   0.782751 0.680438 0.549164 -0.162377
C51   C     C_2   0.682617 0.058100 0.471962 -0.149378
C52   C     C_2   0.282751 0.180438 0.549164 -0.162376
C53   C     C_2   0.187320 0.583566 0.547459 -0.163381
C54   C     C_2   0.770565 0.700002 0.473976 -0.150645
C55   C     C_2   0.687320 0.083567 0.547459 -0.163381
C56   C     C_2   0.270565 0.200003 0.473977 -0.150642
C57   C     C_R   0.259952 0.631273 0.847846 0.519605
C58   C     C_R   0.738445 0.638564 0.148359 0.540208
C59   C     C_R   0.759952 0.131272 0.847846 0.519614
C60   C     C_R   0.238443 0.138574 0.148353 0.540310
C61   C     C_R   0.271206 0.047860 0.649626 0.549416
C62   C     C_R   0.725825 0.041809 0.353847 0.545326
C63   C     C_R   0.771206 0.547860 0.649626 0.549413
C64   C     C_R   0.225825 0.541809 0.353847 0.545324
C65   C     C_R   0.472147 0.824418 0.649510 0.540502
C66   C     C_R   0.533109 0.823382 0.354261 0.532331
C67   C     C_R   0.972146 0.324418 0.649510 0.540516
C68   C     C_R   0.033104 0.323383 0.354258 0.532285
C69   C     C_R   0.260077 0.634295 0.647431 0.546887
C70   C     C_R   0.738171 0.642745 0.356119 0.543759
C71   C     C_R   0.760078 0.134295 0.647431 0.546885
C72   C     C_R   0.238171 0.142745 0.356119 0.543772
C73   C     C_R   0.506956 0.823606 0.072094 0.050021
C74   C     C_R   0.501050 0.839508 0.924316 0.021472
C75   C     C_R   0.006925 0.323604 0.072107 0.050054
C76   C     C_R   0.001028 0.339504 0.924328 0.021489
C77   C     C_R   0.479463 0.929532 0.041429 -0.082495
C78   C     C_R   0.486681 0.945655 0.966775 -0.072725
C79   C     C_R   0.979447 0.429542 0.041443 -0.082474
C80   C     C_R   0.986661 0.445656 0.966786 -0.072735
C81   C     C_R   0.523671 0.732908 0.956731 -0.149774
C82   C     C_R   0.526378 0.725307 0.029261 -0.161984
C83   C     C_R   0.023626 0.232894 0.956746 -0.149780
C84   C     C_R   0.026319 0.225288 0.029275 -0.161982
Cr1   Cr    Cr6+3 0.230530 0.836340 0.748870 1.031850
Cr2   Cr    Cr6+3 0.769470 0.836340 0.251130 1.059462
Cr3   Cr    Cr6+3 0.730530 0.336340 0.748870 1.031840
Cr4   Cr    Cr6+3 0.269470 0.336340 0.251130 1.059506
Cr5   Cr    Cr6+3 0.387420 0.989430 0.750820 1.078523
Cr6   Cr    Cr6+3 0.612580 0.989430 0.249180 1.064330
Cr7   Cr    Cr6+3 0.887420 0.489430 0.750820 1.078518
Cr8   Cr    Cr6+3 0.112580 0.489430 0.249180 1.064329
Cr9   Cr    Cr6+3 0.385640 0.677860 0.749230 1.050445
Cr10  Cr    Cr6+3 0.614360 0.677860 0.250770 0.988996
Cr11  Cr    Cr6+3 0.885640 0.177860 0.749230 1.050455
Cr12  Cr    Cr6+3 0.114360 0.177860 0.250770 0.988992
H1    H     H_    0.536055 0.652228 0.925978 0.157595
H2    H     H_    0.544905 0.641064 0.051994 0.121357
H3    H     H_    0.036004 0.152207 0.925996 0.157629
H4    H     H_    0.044825 0.141030 0.052008 0.121342
H5    H     H_    0.130663 0.538998 0.451273 0.157594
H6    H     H_    0.828909 0.722161 0.572419 0.155264
H7    H     H_    0.630663 0.038999 0.451273 0.157592
H8    H     H_    0.328909 0.222161 0.572419 0.155265
H9    H     H_    0.142782 0.628242 0.571936 0.150002
H10   H     H_    0.788583 0.786374 0.452962 0.159225
H11   H     H_    0.642782 0.128242 0.571936 0.150001
H12   H     H_    0.288583 0.286374 0.452962 0.159223
H13   H     H_    0.290243 0.586825 0.446956 0.092006
H14   H     H_    0.695265 0.567664 0.563817 0.103694
H15   H     H_    0.790242 0.086825 0.446956 0.092003
H16   H     H_    0.195265 0.067664 0.563817 0.103694
H17   H     H_    0.289370 0.514215 0.560085 0.104193
H18   H     H_    0.726442 0.525917 0.449794 0.093119
H19   H     H_    0.789370 0.014215 0.560085 0.104193
H20   H     H_    0.226442 0.025917 0.449794 0.093120
H21   H     H_    0.328466 0.675849 0.961057 0.128947
H22   H     H_    0.660548 0.691379 0.039750 0.131629
H23   H     H_    0.828463 0.175853 0.961056 0.128984
H24   H     H_    0.160456 0.191251 0.039783 0.131585
H25   H     H_    0.212685 0.495755 0.916633 0.173237
H26   H     H_    0.789769 0.532040 0.063270 0.086589
H27   H     H_    0.712683 0.995758 0.916634 0.173246
H28   H     H_    0.289813 0.032225 0.063217 0.086788
H29   H     H_    0.580372 0.678277 0.451507 0.160549
H30   H     H_    0.530418 0.651304 0.571253 0.154025
H31   H     H_    0.080370 0.178281 0.451505 0.160553
H32   H     H_    0.030416 0.151305 0.571250 0.154024
H33   H     H_    0.481345 0.901927 0.447957 0.092662
H34   H     H_    0.516977 0.929848 0.562884 0.101205
H35   H     H_    0.981339 0.401926 0.447954 0.092641
H36   H     H_    0.016974 0.429849 0.562882 0.101204
O1    O     O_R   0.215090 0.709860 0.828130 -0.523713
O2    O     O_R   0.784910 0.709860 0.171870 -0.421776
O3    O     O_R   0.715090 0.209860 0.828130 -0.523704
O4    O     O_R   0.284910 0.209860 0.171870 -0.421728
O5    O     O_R   0.445660 0.919250 0.676780 -0.511054
O6    O     O_R   0.554340 0.919250 0.323220 -0.495397
O7    O     O_R   0.945660 0.419250 0.676780 -0.511062
O8    O     O_R   0.054340 0.419250 0.323220 -0.495412
O9    O     O_R   0.456260 0.718170 0.670000 -0.511981
O10   O     O_R   0.543740 0.718170 0.330000 -0.519797
O11   O     O_R   0.956260 0.218170 0.670000 -0.511978
O12   O     O_R   0.043740 0.218170 0.330000 -0.519804
O13   O     O_R   0.320940 0.626760 0.674370 -0.496849
O14   O     O_R   0.679060 0.626760 0.325630 -0.500210
O15   O     O_R   0.820940 0.126760 0.674370 -0.496849
O16   O     O_R   0.179060 0.126760 0.325630 -0.500205
O17   O     O_3   0.334530 0.834540 0.749640 -0.267373
O18   O     O_3   0.665470 0.834540 0.250360 -0.297280
O19   O     O_3   0.834530 0.334540 0.749640 -0.267373
O20   O     O_3   0.165470 0.334540 0.250360 -0.297284
O21   O     O_R   0.236990 0.958390 0.823710 -0.486539
O22   O     O_R   0.763010 0.958390 0.176290 -0.480891
O23   O     O_R   0.736990 0.458390 0.823710 -0.486549
O24   O     O_R   0.263010 0.458390 0.176290 -0.480876
O25   O     O_R   0.332380 0.074750 0.830850 -0.439406
O26   O     O_R   0.667620 0.074750 0.169150 -0.505122
O27   O     O_R   0.832380 0.574750 0.830850 -0.439404
O28   O     O_R   0.167620 0.574750 0.169150 -0.505122
O29   O     O_R   0.445800 0.917770 0.825070 -0.454642
O30   O     O_R   0.554200 0.917770 0.174930 -0.445934
O31   O     O_R   0.945800 0.417770 0.825070 -0.454627
O32   O     O_R   0.054200 0.417770 0.174930 -0.445888
O33   O     O_R   0.456410 0.716580 0.829970 -0.520352
O34   O     O_R   0.543590 0.716580 0.170030 -0.566925
O35   O     O_R   0.956410 0.216580 0.829970 -0.520357
O36   O     O_R   0.043590 0.216580 0.170030 -0.566963
O37   O     O_R   0.321080 0.625290 0.822650 -0.476961
O38   O     O_R   0.678920 0.625290 0.177350 -0.527633
O39   O     O_R   0.821080 0.125290 0.822650 -0.476961
O40   O     O_R   0.178920 0.125290 0.177350 -0.527636
O41   O     O_R   0.214930 0.711450 0.668160 -0.524602
O42   O     O_R   0.785070 0.711450 0.331840 -0.510934
O43   O     O_R   0.714930 0.211450 0.668160 -0.524605
O44   O     O_R   0.285070 0.211450 0.331840 -0.510918
O45   O     O_R   0.236850 0.959870 0.675420 -0.504475
O46   O     O_R   0.763150 0.959870 0.324580 -0.504594
O47   O     O_R   0.736850 0.459870 0.675420 -0.504481
O48   O     O_R   0.263150 0.459870 0.324580 -0.504598
O49   O     O_R   0.332230 0.076350 0.670880 -0.511940
O50   O     O_R   0.667770 0.076350 0.329120 -0.512515
O51   O     O_R   0.832230 0.576350 0.670880 -0.511945
O52   O     O_R   0.167770 0.576350 0.329120 -0.512512
O53   O     O_3   0.429373 0.003037 0.154845 -0.499921
C85   C     C_3   0.377534 0.912816 0.165157 -0.001227
H37   H     H_    0.379233 0.837002 0.125852 0.129325
H38   H     H_    0.325522 0.954831 0.162754 0.135516
C86   C     C_3   0.383802 0.859988 0.239692 -0.341225
H39   H     H_    0.384696 0.934154 0.279876 0.164607
H40   H     H_    0.338434 0.800155 0.250419 0.110584
H41   H     H_    0.431866 0.804806 0.244811 0.170914
O54   O     O_3   0.493824 0.101729 0.870344 -0.486160
C87   C     C_3   0.565964 0.088914 0.856204 -0.011447
H42   H     H_    0.593990 0.025651 0.892524 0.144993
H43   H     H_    0.589717 0.179922 0.860517 0.173911
C88   C     C_3   0.577164 0.047330 0.779512 -0.333907
H44   H     H_    0.544126 0.101603 0.742646 0.165350
H45   H     H_    0.632602 0.059191 0.764391 0.120312
H46   H     H_    0.564899 0.949602 0.773189 0.141228
O55   O     O_3   0.929426 0.503107 0.154878 -0.499917
C89   C     C_3   0.877557 0.412956 0.165240 -0.001220
H47   H     H_    0.879163 0.337159 0.125917 0.129232
H48   H     H_    0.825572 0.455075 0.162915 0.135665
C90   C     C_3   0.883879 0.360087 0.239768 -0.341104
H49   H     H_    0.884971 0.434305 0.279982 0.164704
H50   H     H_    0.838399 0.300439 0.250562 0.110498
H51   H     H_    0.931889 0.304613 0.244784 0.170865
O56   O     O_3   0.993809 0.601728 0.870354 -0.486157
C91   C     C_3   0.065950 0.588928 0.856217 -0.011477
H52   H     H_    0.093986 0.525720 0.892563 0.145031
H53   H     H_    0.089690 0.679953 0.860496 0.173912
C92   C     C_3   0.077160 0.547268 0.779541 -0.333934
H54   H     H_    0.044080 0.601430 0.742659 0.165418
H55   H     H_    0.132586 0.559215 0.764400 0.120327
H56   H     H_    0.064956 0.449508 0.773265 0.141154
F1    F     F_    0.898432 0.717889 0.092305 -0.617148
F2    F     F_    0.929100 0.764497 0.953670 -0.588185
F3    F     F_    0.398429 0.217867 0.092291 -0.617101
F4    F     F_    0.429124 0.264498 0.953667 -0.588181
O57   O     O_3   0.337351 0.574351 0.087949 -0.599417
C93   C     C_3   0.394898 0.504811 0.064727 0.019623
H57   H     H_    0.425086 0.557003 0.025050 0.139438
H58   H     H_    0.378855 0.417211 0.039933 0.263717
C94   C     C_3   0.441142 0.475981 0.128417 -0.304954
H59   H     H_    0.453525 0.560534 0.157719 0.168597
H60   H     H_    0.413418 0.414200 0.165312 0.213360
H61   H     H_    0.490223 0.431767 0.110516 0.114691
O58   O     O_3   0.672928 0.447418 0.947663 -0.568169
C95   C     C_3   0.642655 0.398250 0.009934 -0.026161
H62   H     H_    0.603924 0.461479 0.033801 0.124596
H63   H     H_    0.683967 0.374874 0.049416 0.142734
C96   C     C_3   0.604001 0.283251 0.991755 -0.333140
H64   H     H_    0.640796 0.218033 0.967341 0.204087
H65   H     H_    0.581720 0.242636 0.040662 0.146725
H66   H     H_    0.561188 0.305288 0.954100 0.200986
O59   O     O_3   0.837349 0.074358 0.087946 -0.599401
C97   C     C_3   0.894880 0.004768 0.064735 0.019665
H67   H     H_    0.925076 0.056913 0.025042 0.139455
H68   H     H_    0.878817 0.917163 0.039961 0.263730
C98   C     C_3   0.941123 0.975951 0.128428 -0.304954
H69   H     H_    0.953545 0.060520 0.157695 0.168549
H70   H     H_    0.913381 0.914245 0.165350 0.213346
H71   H     H_    0.990183 0.931656 0.110535 0.114772
O60   O     O_3   0.172873 0.947457 0.947638 -0.568157
C99   C     C_3   0.142629 0.898256 0.009915 -0.026164
H72   H     H_    0.103893 0.961461 0.033796 0.124605
H73   H     H_    0.183956 0.874899 0.049384 0.142704
C100  C     C_3   0.103994 0.783237 0.991741 -0.333154
H74   H     H_    0.140795 0.718042 0.967317 0.204064
H75   H     H_    0.081731 0.742604 0.040653 0.146744
H76   H     H_    0.061167 0.805255 0.954098 0.200991
F5    F     F_    0.161182 0.521108 0.024639 -0.736331
F6    F     F_    0.773015 0.724486 0.925398 -0.617716
F7    F     F_    0.661181 0.021103 0.024640 -0.736329
F8    F     F_    0.273039 0.224452 0.925427 -0.617683

loop_
_geom_bond_atom_site_label_1
_geom_bond_atom_site_label_2
_ccdc_geom_bond_type
C16   C28   D    
C71   O15   A    
C38   C70   S    
Cr10  O14   S    
C14   H26   S    
C37   C69   S    
C86   H41   S    
C69   O13   A    
O55   C89   S    
C87   H43   S    
C35   C36   S    
C5    O53   S    
Cr6   O18   S    
Cr7   O31   S    
Cr10  O34   S    
C95   H63   S    
C81   C82   A    
C45   O33   A    
Cr1   O1    S    
C4    O28   A    
C77   C78   A    
C18   F6    S    
C61   O45   A    
C97   C98   S    
Cr9   O37   S    
C100  H74   S    
C50   C54   S    
C75   C79   A    
C89   H48   S    
Cr6   O30   S    
Cr4   O24   S    
Cr2   O22   S    
C58   O38   A    
C94   H59   S    
C47   C76   S    
C5    C11   A    
Cr7   O51   S    
Cr2   O18   S    
C91   H52   S    
C6    C12   A    
C23   O59   S    
Cr5   O5    S    
C49   C53   S    
C75   C84   A    
C90   H51   S    
C87   C88   S    
C13   C57   S    
C51   H7    S    
C66   O6    A    
Cr12  O20   S    
C97   H68   S    
Cr2   O46   S    
C94   H61   S    
C63   O47   A    
C51   C55   S    
C95   C96   S    
C88   H45   S    
C98   H69   S    
C16   C60   S    
C41   C49   D    
C86   H40   S    
C45   O29   A    
C56   H12   S    
C97   H67   S    
Cr9   O17   S    
Cr2   O2    S    
C39   C55   D    
Cr6   O50   S    
C71   O43   A    
C40   C56   D    
C89   C90   S    
C38   C54   D    
C66   O10   A    
Cr8   O20   S    
Cr1   O41   S    
C76   C80   A    
Cr12  O36   S    
Cr9   O13   S    
C70   O14   A    
C23   C27   S    
C67   O7    A    
C96   H64   S    
C60   O4    A    
Cr7   O27   S    
Cr1   O17   S    
C32   H35   S    
C46   O34   A    
Cr11  O39   S    
C32   C68   S    
C64   O52   A    
C47   O31   A    
C44   C52   D    
Cr5   O17   S    
C87   H42   S    
Cr9   O33   S    
C2    O22   A    
Cr3   O19   S    
O59   C97   S    
C3    O27   A    
Cr4   O20   S    
C48   C75   S    
C57   O1    A    
C24   O60   S    
C36   H32   S    
C69   O41   A    
C59   O39   A    
C76   C83   A    
Cr5   O29   S    
C3    C18   S    
Cr6   O6    S    
C20   F8    S    
C57   O37   A    
C90   H50   S    
C64   O48   A    
C14   C58   S    
C99   H73   S    
C100  H75   S    
C63   O51   A    
C89   H47   S    
C82   H2    S    
C60   O40   A    
C32   C35   D    
Cr3   O3    S    
Cr11  O15   S    
Cr4   O4    S    
O56   C91   S    
C65   O9    A    
C28   H24   S    
C46   O30   A    
C54   H10   S    
C41   H13   S    
C93   C94   S    
C13   C25   D    
C72   O16   A    
C29   C34   D    
C58   O2    A    
C79   C80   A    
Cr12  O16   S    
C55   H11   S    
C45   C74   S    
Cr2   O42   S    
Cr10  O10   S    
Cr6   O26   S    
C88   H46   S    
C19   C23   D    
C37   C53   D    
O58   C95   S    
Cr4   O48   S    
C62   O50   A    
O57   C93   S    
C47   O35   A    
C15   C27   D    
C83   C84   A    
C48   O36   A    
C92   H54   S    
C34   H30   S    
C17   F5    S    
C33   H29   S    
C33   C34   S    
Cr1   O21   S    
C14   C26   D    
C39   H19   S    
C1    O21   A    
C70   O42   A    
C30   C66   S    
C15   H27   S    
C42   C50   D    
Cr7   O7    S    
C4    C17   S    
C44   H16   S    
C90   H49   S    
C19   F7    S    
C4    O24   A    
C50   H6    S    
C91   H53   S    
Cr8   O52   S    
C6    O54   S    
C29   C65   S    
C68   O8    A    
Cr11  O19   S    
C3    O23   A    
C74   C81   A    
C5    C77   A    
C8    O56   S    
C30   H33   S    
C11   F3    S    
C73   C82   A    
C35   H31   S    
Cr9   O9    S    
C10   F2    S    
C7    C79   A    
C9    C10   A    
C92   H56   S    
C9    F1    S    
C86   H39   S    
C7    C9    A    
C21   C25   S    
C99   H72   S    
C93   H58   S    
C100  H76   S    
C73   C77   A    
C21   O57   S    
C40   C72   S    
C30   C33   D    
C13   H25   S    
C2    C19   S    
C18   C22   D    
C15   C59   S    
C8    C10   A    
Cr11  O11   S    
C24   C28   S    
C1    C20   S    
Cr11  O35   S    
Cr12  O40   S    
C62   O46   A    
C84   H4    S    
C11   C12   A    
Cr5   O25   S    
C48   O32   A    
C27   H23   S    
C44   C61   S    
Cr10  O18   S    
C91   C92   S    
Cr3   O43   S    
C74   C78   A    
C61   O49   A    
Cr4   O44   S    
C26   H22   S    
C96   H65   S    
Cr8   O28   S    
C98   H71   S    
Cr7   O19   S    
C85   C86   S    
C1    O25   A    
Cr8   O32   S    
C16   H28   S    
C92   H55   S    
C65   O5    A    
C95   H62   S    
C7    O55   S    
Cr10  O38   S    
C49   H5    S    
C67   O11   A    
C43   C51   D    
O53   C85   S    
C40   H20   S    
C22   O58   S    
C81   H1    S    
C38   H18   S    
C42   C63   S    
C59   O3    A    
C94   H60   S    
C52   H8    S    
C68   O12   A    
Cr3   O23   S    
C72   O44   A    
C42   H14   S    
C88   H44   S    
C20   C24   D    
C96   H66   S    
C17   C21   D    
C6    C78   A    
C31   C67   S    
Cr3   O47   S    
Cr12  O12   S    
C43   H15   S    
C29   H34   S    
C53   H9    S    
C37   H17   S    
C2    O26   A    
Cr1   O45   S    
O54   C87   S    
C22   C26   S    
C25   H21   S    
C8    C80   A    
C39   C71   S    
C31   C36   D    
C83   H3    S    
C41   C64   S    
C98   H70   S    
C85   H37   S    
O60   C99   S    
C85   H38   S    
C93   H57   S    
C12   F4    S    
C46   C73   S    
C31   H36   S    
C52   C56   S    
C43   C62   S    
Cr5   O49   S    
C99   C100  S    
Cr8   O8    S    
