data_mof_unit_64499.cif
_audit_creation_date              2012-12-10T19:53:48-0500
_audit_creation_method            fapswitch 2.2
_symmetry_space_group_name_H-M    P1
_symmetry_Int_Tables_number       1
_space_group_crystal_system       triclinic
_cell_length_a                    14.916012
_cell_length_b                    14.293538
_cell_length_c                    10.579401
_cell_angle_alpha                 89.969973
_cell_angle_beta                  90.100221
_cell_angle_gamma                 90.002425
_cell_volume                      2255.55187158

loop_
_atom_site_label
_atom_site_type_symbol
_atom_type_description
_atom_site_fract_x
_atom_site_fract_y
_atom_site_fract_z
_atom_type_partial_charge
C1    C     C_R   0.328123 0.500078 0.499551 0.948332
C2    C     C_R   0.423666 0.796514 0.466016 0.202459
C3    C     C_R   0.498560 0.053927 0.497584 -0.000619
C4    C     C_R   0.499034 0.947734 0.497370 0.013355
C5    C     C_R   0.501685 0.500427 0.257913 1.030687
C6    C     C_R   0.502601 0.499553 0.742356 1.030028
C7    C     C_3   0.510871 0.589163 0.039147 0.295384
C8    C     C_3   0.499329 0.410758 0.962195 0.311909
C9    C     C_3   0.581077 0.537858 0.958661 0.274686
C10   C     C_3   0.428593 0.461653 0.042418 0.259534
C11   C     C_3   0.434866 0.548742 0.956958 0.265981
C12   C     C_R   0.671902 0.500056 0.500074 0.938817
C13   C     C_3   0.574561 0.451555 0.044612 0.303846
C14   C     C_3   0.505392 0.497801 0.877026 -0.436945
C15   C     C_3   0.504148 0.502090 0.123832 -0.439691
C16   C     C_R   0.094228 0.566218 0.572516 0.441814
C17   C     C_R   0.906676 0.434913 0.571207 0.448652
C18   C     C_R   0.905161 0.567323 0.424377 0.444359
C19   C     C_R   0.094109 0.437274 0.420320 0.449147
C20   C     C_R   0.186802 0.565931 0.572088 -0.193355
C21   C     C_R   0.814089 0.434446 0.571221 -0.215597
C22   C     C_R   0.812601 0.567129 0.426782 -0.192345
C23   C     C_R   0.549269 0.105269 0.409171 0.293609
C24   C     C_R   0.186685 0.436643 0.422334 -0.221197
C25   C     C_R   0.232427 0.500637 0.498243 -0.190214
C26   C     C_R   0.767634 0.500447 0.499320 -0.173719
C27   C     C_R   0.048169 0.501765 0.496342 -0.055479
C28   C     C_R   0.951910 0.501245 0.497123 -0.052108
C29   C     C_3   0.707065 0.248899 0.380402 -0.488268
C30   C     C_3   0.674077 0.740135 0.692836 -0.469057
C31   C     C_3   0.288334 0.247214 0.596941 -0.542019
C32   C     C_3   0.326257 0.732872 0.303823 -0.484731
C33   C     C_R   0.576618 0.897365 0.529534 0.291006
C34   C     C_R   0.447416 0.104821 0.585975 0.292730
C35   C     C_R   0.422264 0.896154 0.464494 0.291068
C36   C     C_R   0.553929 0.204401 0.417851 0.170325
C37   C     C_R   0.576167 0.797777 0.529957 0.186621
C38   C     C_R   0.443567 0.204087 0.578765 0.205974
Cl1   Cl    Cl    0.341345 0.612887 0.897296 -0.444085
Cl2   Cl    Cl    0.037618 0.357243 0.321612 -0.430099
Cl3   Cl    Cl    0.605443 0.046074 0.285719 -0.449042
Cl4   Cl    Cl    0.674934 0.959136 0.572854 -0.493333
Cl5   Cl    Cl    0.388343 0.044983 0.706144 -0.452072
Cl6   Cl    Cl    0.324058 0.956366 0.417069 -0.490282
Cl7   Cl    Cl    0.670653 0.391060 0.102277 -0.461151
Cl8   Cl    Cl    0.522237 0.708747 0.084481 -0.441306
Cl9   Cl    Cl    0.497794 0.290255 0.920272 -0.439119
Cl10  Cl    Cl    0.687438 0.580346 0.909530 -0.477425
Cl11  Cl    Cl    0.327203 0.411772 0.100754 -0.449799
Cl12  Cl    Cl    0.037912 0.646796 0.670340 -0.425161
Cl13  Cl    Cl    0.964078 0.352641 0.665528 -0.441667
Cl14  Cl    Cl    0.960602 0.650165 0.328926 -0.432837
H1    H     H_    0.223119 0.615224 0.630826 0.223637
H2    H     H_    0.689031 0.808869 0.736696 0.272345
H3    H     H_    0.733219 0.694059 0.705977 0.264860
H4    H     H_    0.615080 0.709103 0.740787 0.265792
H5    H     H_    0.378140 0.237766 0.743656 0.307834
H6    H     H_    0.259737 0.176625 0.614096 0.279224
H7    H     H_    0.244520 0.299862 0.643048 0.251561
H8    H     H_    0.288771 0.260535 0.493497 0.239294
H9    H     H_    0.287889 0.772379 0.484338 0.273355
H10   H     H_    0.264607 0.690121 0.292341 0.239566
H11   H     H_    0.382336 0.694532 0.259872 0.268425
H12   H     H_    0.778435 0.383928 0.628710 0.207418
H13   H     H_    0.316693 0.800476 0.253966 0.276573
H14   H     H_    0.775775 0.617711 0.370664 0.209603
H15   H     H_    0.222899 0.387488 0.363535 0.221414
H16   H     H_    0.606394 0.240400 0.245572 0.305408
H17   H     H_    0.713094 0.260079 0.483978 0.227412
H18   H     H_    0.747035 0.303446 0.331569 0.265234
H19   H     H_    0.735587 0.179382 0.356728 0.274168
H20   H     H_    0.711691 0.773738 0.510015 0.272969
N1    N     N_R   0.500000 0.252470 0.500000 -0.142314
N2    N     N_R   0.500000 0.747530 0.500000 -0.134301
N3    N     N_2   0.614278 0.254983 0.340316 -0.246431
N4    N     N_2   0.656609 0.749996 0.559355 -0.284401
N5    N     N_2   0.378032 0.253916 0.648924 -0.250972
N6    N     N_2   0.343417 0.747658 0.436948 -0.278631
O1    O     O_R   0.369060 0.579480 0.500010 -0.601653
O2    O     O_R   0.630940 0.420520 0.499990 -0.615438
O3    O     O_R   0.630940 0.579480 0.499990 -0.603893
O4    O     O_R   0.369060 0.420520 0.500010 -0.611126
O5    O     O_R   0.499980 0.579460 0.313950 -0.603866
O6    O     O_R   0.500020 0.420540 0.686050 -0.578773
O7    O     O_R   0.500020 0.579460 0.686050 -0.597106
O8    O     O_R   0.499980 0.420540 0.313950 -0.576486
Zn1   Zn    Zn3+2 0.500000 0.606140 0.500000 1.031720
Zn2   Zn    Zn3+2 0.500000 0.393860 0.500000 1.039977

loop_
_geom_bond_atom_site_label_1
_geom_bond_atom_site_label_2
_ccdc_geom_bond_type
C2    C35   A    
O5    Zn1   S    
C21   C26   A    
C8    C13   S    
C3    C23   A    
H20   N4    S    
C17   Cl13  S    
C37   N2    A    
O1    Zn1   S    
C18   Cl14  S    
H16   N3    S    
C7    C11   S    
C30   H2    S    
C6    O7    A    
C33   Cl4   S    
C31   H6    S    
C16   Cl12  S    
C10   C15   S    
C5    O5    A    
C11   C14   S    
O8    Zn2   S    
C20   C25   A    
C31   H7    S    
C9    C13   S    
C22   H14   S    
C21   H12   S    
C24   H15   S    
N2    Zn1   S    
C19   C27   A    
C2    N2    A    
C16   C27   A    
C7    C15   S    
C4    C35   A    
C34   C38   A    
C1    C25   S    
C31   N5    S    
C29   H17   S    
O7    Zn1   S    
C6    O6    A    
C7    Cl8   S    
H5    N5    S    
C18   C28   A    
C24   C25   A    
C10   C11   S    
C3    C34   A    
C1    O4    A    
C30   H4    S    
C17   C21   A    
C12   C26   S    
C31   H8    S    
C9    C14   S    
N1    Zn2   S    
C2    N6    S    
C36   N3    S    
C6    C14   S    
C30   N4    S    
H9    N6    S    
C16   C20   A    
C11   Cl1   S    
C35   Cl6   S    
O3    Zn1   S    
C5    O8    A    
C37   N4    S    
C13   C15   S    
C1    O1    A    
C3    C4    S    
C29   H18   S    
C7    C9    S    
C4    C33   A    
C8    C14   S    
C18   C22   A    
C17   C28   A    
C34   Cl5   S    
O6    Zn2   S    
C32   H11   S    
C20   H1    S    
C29   N3    S    
C38   N5    S    
C30   H3    S    
C23   Cl3   S    
C19   C24   A    
C8    Cl9   S    
C32   H10   S    
O2    Zn2   S    
C13   Cl7   S    
O4    Zn2   S    
C12   O2    A    
C12   O3    A    
C33   C37   A    
C5    C15   S    
C19   Cl2   S    
C32   N6    S    
C9    Cl10  S    
C8    C10   S    
C23   C36   A    
C22   C26   A    
C27   C28   S    
C10   Cl11  S    
C36   N1    A    
C32   H13   S    
C29   H19   S    
C38   N1    A    
