data_mof_unit_34053.cif
_audit_creation_date              2012-12-10T16:37:27-0500
_audit_creation_method            fapswitch 2.2
_symmetry_space_group_name_H-M    P1
_symmetry_Int_Tables_number       1
_space_group_crystal_system       triclinic
_cell_length_a                    16.864849
_cell_length_b                    16.864849
_cell_length_c                    16.864851
_cell_angle_alpha                 67.324218
_cell_angle_beta                  67.324216
_cell_angle_gamma                 67.324203
_cell_volume                      3922.57389283

loop_
_atom_site_label
_atom_site_type_symbol
_atom_type_description
_atom_site_fract_x
_atom_site_fract_y
_atom_site_fract_z
_atom_type_partial_charge
Br1   Br    Br    0.765009 0.941697 0.765008 -0.321916
Br2   Br    Br    0.843577 0.230120 0.630806 -0.398541
Br3   Br    Br    0.769880 0.369194 0.156423 -0.398541
Br4   Br    Br    0.230120 0.630806 0.843577 -0.398541
Br5   Br    Br    0.230120 0.843577 0.630806 -0.398541
Br6   Br    Br    0.769880 0.156423 0.369194 -0.398541
Br7   Br    Br    0.630806 0.230120 0.843577 -0.398541
Br8   Br    Br    0.369194 0.769880 0.156422 -0.398541
Br9   Br    Br    0.843577 0.630806 0.230120 -0.398541
Br10  Br    Br    0.156423 0.369194 0.769880 -0.398541
Br11  Br    Br    0.234991 0.058303 0.234991 -0.321916
Br12  Br    Br    0.941697 0.765009 0.765009 -0.321916
Br13  Br    Br    0.058303 0.234991 0.234991 -0.321916
Br14  Br    Br    0.765008 0.765008 0.941697 -0.321917
Br15  Br    Br    0.234991 0.234991 0.058303 -0.321917
Br16  Br    Br    0.369194 0.156422 0.769880 -0.398541
Br17  Br    Br    0.630806 0.843578 0.230120 -0.398541
Br18  Br    Br    0.156422 0.769880 0.369194 -0.398541
C1    C     C_R   0.405753 0.045771 0.662157 -0.240617
C2    C     C_R   0.405753 0.662157 0.045771 -0.240618
C3    C     C_R   0.954228 0.594247 0.337843 -0.240617
C4    C     C_R   0.045771 0.405753 0.662157 -0.240617
C5    C     C_R   0.967571 0.178695 0.436168 0.966797
C6    C     C_R   0.032429 0.821305 0.563832 0.966796
C7    C     C_R   0.178695 0.436168 0.967571 0.966797
C8    C     C_R   0.821305 0.563832 0.032429 0.966797
C9    C     C_R   0.436168 0.967571 0.178695 0.966797
C10   C     C_R   0.563832 0.032429 0.821305 0.966797
C11   C     C_R   0.563832 0.821305 0.032429 0.966797
C12   C     C_R   0.594247 0.954229 0.337843 -0.240617
C13   C     C_R   0.436168 0.178695 0.967571 0.966798
C14   C     C_R   0.032429 0.563832 0.821305 0.966796
C15   C     C_R   0.967571 0.436168 0.178695 0.966796
C16   C     C_R   0.821305 0.032429 0.563832 0.966797
C17   C     C_R   0.178695 0.967571 0.436168 0.966797
C18   C     C_R   0.447206 0.072967 0.701032 0.306494
C19   C     C_R   0.552794 0.927034 0.298968 0.306494
C20   C     C_R   0.072967 0.701032 0.447206 0.306494
C21   C     C_R   0.927033 0.298968 0.552794 0.306495
C22   C     C_R   0.701032 0.447206 0.072967 0.306494
C23   C     C_R   0.045771 0.662157 0.405753 -0.240617
C24   C     C_R   0.298968 0.552794 0.927033 0.306494
C25   C     C_R   0.298968 0.927033 0.552794 0.306494
C26   C     C_R   0.701032 0.072967 0.447206 0.306494
C27   C     C_R   0.552794 0.298968 0.927033 0.306494
C28   C     C_R   0.447206 0.701032 0.072967 0.306494
C29   C     C_R   0.927033 0.552794 0.298968 0.306494
C30   C     C_R   0.072967 0.447206 0.701032 0.306495
C31   C     C_R   0.540729 0.026626 0.540729 0.044888
C32   C     C_R   0.459271 0.973374 0.459271 0.044888
C33   C     C_R   0.026626 0.540729 0.540729 0.044888
C34   C     C_R   0.954229 0.337843 0.594247 -0.240617
C35   C     C_R   0.973374 0.459271 0.459271 0.044888
C36   C     C_R   0.540729 0.540729 0.026626 0.044888
C37   C     C_R   0.459271 0.459271 0.973374 0.044888
C38   C     C_R   0.585071 0.015696 0.453891 0.024162
C39   C     C_R   0.414929 0.984305 0.546109 0.024162
C40   C     C_R   0.015695 0.453891 0.585071 0.024162
C41   C     C_R   0.984305 0.546109 0.414929 0.024162
C42   C     C_R   0.453891 0.585071 0.015695 0.024162
C43   C     C_R   0.546109 0.414929 0.984305 0.024162
C44   C     C_R   0.546109 0.984305 0.414929 0.024162
C45   C     C_R   0.662157 0.405753 0.045771 -0.240617
C46   C     C_R   0.453891 0.015695 0.585071 0.024162
C47   C     C_R   0.414929 0.546109 0.984305 0.024162
C48   C     C_R   0.585071 0.453891 0.015695 0.024162
C49   C     C_R   0.984305 0.414929 0.546109 0.024162
C50   C     C_R   0.015695 0.585071 0.453891 0.024162
C51   C     C_R   0.541501 0.057013 0.671478 -0.030369
C52   C     C_R   0.458499 0.942987 0.328522 -0.030369
C53   C     C_R   0.057013 0.671478 0.541501 -0.030369
C54   C     C_R   0.942987 0.328522 0.458499 -0.030369
C55   C     C_R   0.671478 0.541501 0.057013 -0.030368
C56   C     C_R   0.337843 0.594247 0.954228 -0.240617
C57   C     C_R   0.328522 0.458499 0.942986 -0.030368
C58   C     C_R   0.328522 0.942986 0.458499 -0.030368
C59   C     C_R   0.671478 0.057013 0.541501 -0.030369
C60   C     C_R   0.458499 0.328522 0.942987 -0.030368
C61   C     C_R   0.541501 0.671478 0.057013 -0.030368
C62   C     C_R   0.942987 0.458499 0.328522 -0.030368
C63   C     C_R   0.057013 0.541501 0.671478 -0.030369
C64   C     C_R   0.596339 0.044661 0.724796 -0.169754
C65   C     C_R   0.403660 0.955339 0.275203 -0.169755
C66   C     C_R   0.044661 0.724796 0.596339 -0.169755
C67   C     C_R   0.337843 0.954228 0.594247 -0.240617
C68   C     C_R   0.955339 0.275204 0.403660 -0.169755
C69   C     C_R   0.724796 0.596339 0.044661 -0.169755
C70   C     C_R   0.275204 0.403661 0.955339 -0.169755
C71   C     C_R   0.275204 0.955339 0.403660 -0.169755
C72   C     C_R   0.724796 0.044661 0.596339 -0.169754
C73   C     C_R   0.403661 0.275204 0.955339 -0.169755
C74   C     C_R   0.596339 0.724796 0.044661 -0.169755
C75   C     C_R   0.955339 0.403660 0.275204 -0.169755
C76   C     C_R   0.044661 0.596339 0.724796 -0.169755
C77   C     C_R   0.688584 0.024366 0.688584 0.208565
C78   C     C_R   0.662156 0.045772 0.405753 -0.240617
C79   C     C_R   0.311416 0.975634 0.311416 0.208565
C80   C     C_R   0.024366 0.688584 0.688584 0.208565
C81   C     C_R   0.975634 0.311416 0.311416 0.208565
C82   C     C_R   0.688584 0.688584 0.024366 0.208565
C83   C     C_R   0.311416 0.311416 0.975634 0.208565
C84   C     C_R   0.584532 0.046717 0.584532 0.005527
C85   C     C_R   0.415468 0.953283 0.415468 0.005527
C86   C     C_R   0.046717 0.584532 0.584532 0.005527
C87   C     C_R   0.953283 0.415468 0.415468 0.005527
C88   C     C_R   0.584532 0.584532 0.046717 0.005527
C89   C     C_R   0.594247 0.337843 0.954229 -0.240618
C90   C     C_R   0.415468 0.415468 0.953283 0.005527
H1    H     H_    0.334174 0.055627 0.688183 0.179792
H2    H     H_    0.334174 0.688183 0.055627 0.179792
H3    H     H_    0.944372 0.665826 0.311817 0.179792
H4    H     H_    0.055627 0.334174 0.688183 0.179792
H5    H     H_    0.665826 0.944374 0.311817 0.179792
H6    H     H_    0.055627 0.688183 0.334174 0.179792
H7    H     H_    0.944373 0.311817 0.665826 0.179792
H8    H     H_    0.688183 0.334174 0.055627 0.179792
H9    H     H_    0.311817 0.665826 0.944373 0.179792
H10   H     H_    0.311818 0.944372 0.665826 0.179792
H11   H     H_    0.688182 0.055628 0.334174 0.179792
H12   H     H_    0.665826 0.311817 0.944373 0.179792
O1    O     O_R   0.982940 0.138950 0.510160 -0.628327
O2    O     O_R   0.982940 0.510160 0.138950 -0.628327
O3    O     O_R   0.861050 0.017060 0.489840 -0.628327
O4    O     O_R   0.138950 0.982940 0.510160 -0.628327
O5    O     O_R   0.867700 0.025880 0.612340 -0.549587
O6    O     O_R   0.132300 0.974120 0.387660 -0.549587
O7    O     O_R   0.025880 0.612340 0.867700 -0.549587
O8    O     O_R   0.974120 0.387660 0.132300 -0.549587
O9    O     O_R   0.612340 0.867700 0.025880 -0.549587
O10   O     O_R   0.387660 0.132300 0.974120 -0.549588
O11   O     O_R   0.387660 0.974120 0.132300 -0.549587
O12   O     O_R   0.017060 0.861050 0.489840 -0.628327
O13   O     O_R   0.612340 0.025880 0.867700 -0.549587
O14   O     O_R   0.132300 0.387660 0.974120 -0.549587
O15   O     O_R   0.867700 0.612340 0.025880 -0.549587
O16   O     O_R   0.974120 0.132300 0.387660 -0.549587
O17   O     O_R   0.025880 0.867700 0.612340 -0.549587
O18   O     O_R   0.138950 0.510160 0.982940 -0.628327
O19   O     O_R   0.861050 0.489840 0.017060 -0.628327
O20   O     O_R   0.510160 0.982940 0.138950 -0.628327
O21   O     O_R   0.489840 0.017060 0.861050 -0.628327
O22   O     O_R   0.489840 0.861050 0.017060 -0.628328
O23   O     O_R   0.510160 0.138950 0.982940 -0.628327
O24   O     O_R   0.017060 0.489840 0.861050 -0.628327
Zn1   Zn    Zn3+2 0.004880 0.004880 0.583590 1.142836
Zn2   Zn    Zn3+2 0.995120 0.995120 0.416410 1.142836
Zn3   Zn    Zn3+2 0.004880 0.583590 0.004880 1.142836
Zn4   Zn    Zn3+2 0.995120 0.416410 0.995120 1.142836
Zn5   Zn    Zn3+2 0.583590 0.004880 0.004880 1.142836
Zn6   Zn    Zn3+2 0.416410 0.995120 0.995120 1.142836

loop_
_geom_bond_atom_site_label_1
_geom_bond_atom_site_label_2
_ccdc_geom_bond_type
C14   C76   S    
C53   C86   A    
C16   O3    A    
C9    O11   A    
C78   H11   S    
C4    C30   A    
C23   H6    S    
O24   Zn4   S    
C70   C83   A    
O6    Zn2   S    
C72   C77   A    
C5    O1    A    
C36   C42   A    
C51   C84   A    
C22   C55   A    
C24   C57   A    
C22   C45   A    
C5    O16   A    
C68   C81   A    
Br7   C27   S    
C14   O7    A    
O17   Zn1   S    
C26   C59   A    
C3    C41   A    
C13   O10   A    
C1    C18   A    
C28   C61   A    
C76   C80   A    
C2    C28   A    
C30   C63   A    
C60   C90   A    
C55   C69   A    
C51   C64   A    
C37   C47   A    
Br2   C21   S    
C11   O9    A    
C8    C69   S    
C5    C68   S    
O10   Zn6   S    
C21   C54   A    
C27   C60   A    
C8    O15   A    
C2    C42   A    
C75   C81   A    
Br12  C80   S    
C58   C71   A    
C58   C85   A    
C21   C34   A    
Br5   C25   S    
C45   C48   A    
C32   C85   A    
C31   C46   A    
Br6   C26   S    
C19   C52   A    
C13   O23   A    
C59   C84   A    
C29   C62   A    
C73   C83   A    
C43   C89   A    
C43   C48   A    
C3    H3    S    
O21   Zn6   S    
C23   C50   A    
C53   C66   A    
C1    H1    S    
C35   C41   A    
O19   Zn4   S    
C6    O17   A    
C59   C72   A    
C24   C56   A    
C57   C70   A    
C36   C88   A    
C10   C64   S    
C10   O13   A    
C25   C67   A    
O13   Zn5   S    
C20   C23   A    
C8    O19   A    
C31   C84   A    
C52   C85   A    
O8    Zn4   S    
C33   C86   A    
C62   C87   A    
C15   O8    A    
C47   C56   A    
C61   C88   A    
C71   C79   A    
Br13  C81   S    
C17   O6    A    
C16   C72   S    
O9    Zn5   S    
C26   C78   A    
C41   C50   A    
C6    O12   A    
O3    Zn2   S    
O23   Zn5   S    
O18   Zn3   S    
Br1   C77   S    
C33   C40   A    
Br17  C19   S    
O2    Zn3   S    
Br15  C83   S    
C52   C65   A    
C61   C74   A    
C34   C49   A    
C2    H2    S    
C45   H8    S    
C17   C71   S    
C42   C47   A    
Br9   C29   S    
O15   Zn3   S    
C12   C44   A    
Br10  C30   S    
C15   O2    A    
C32   C44   A    
O1    Zn1   S    
C7    O14   A    
C89   H12   S    
C18   C51   A    
C74   C82   A    
C39   C46   A    
C69   C82   A    
C4    C40   A    
C34   H7    S    
C25   C58   A    
C38   C78   A    
C56   H9    S    
C20   C53   A    
C17   O4    A    
C64   C77   A    
C32   C39   A    
C15   C75   S    
Br3   C22   S    
C54   C68   A    
Br14  C82   S    
C36   C48   A    
C60   C73   A    
C31   C38   A    
O14   Zn4   S    
O4    Zn1   S    
C13   C73   S    
C9    O20   A    
C37   C90   A    
Br11  C79   S    
C66   C80   A    
O22   Zn6   S    
C9    C65   S    
C7    O18   A    
C6    C66   S    
O12   Zn2   S    
O5    Zn1   S    
Br16  C18   S    
C63   C76   A    
C55   C88   A    
Br4   C24   S    
C16   O5    A    
C11   O22   A    
C37   C43   A    
C1    C46   A    
C39   C67   A    
C38   C44   A    
C33   C50   A    
C7    C70   S    
Br18  C20   S    
C67   H10   S    
C35   C49   A    
Br8   C28   S    
C14   O24   A    
C35   C87   A    
C40   C49   A    
C57   C90   A    
C54   C87   A    
C12   C19   A    
C65   C79   A    
O11   Zn6   S    
C10   O21   A    
C62   C75   A    
O20   Zn5   S    
C12   H5    S    
C11   C74   S    
O16   Zn2   S    
C27   C89   A    
C4    H4    S    
O7    Zn3   S    
C3    C29   A    
C63   C86   A    
