data_mof_unit_42625.cif
_audit_creation_date              2012-10-26T20:27:50-0400
_audit_creation_method            fapswitch 2.2
_symmetry_space_group_name_H-M    P1
_symmetry_Int_Tables_number       1
_space_group_crystal_system       triclinic
_cell_length_a                    15.125777
_cell_length_b                    13.850856
_cell_length_c                    23.520157
_cell_angle_alpha                 90.261462
_cell_angle_beta                  90.150641
_cell_angle_gamma                 90.000419
_cell_volume                      4927.52119183

loop_
_atom_site_label
_atom_site_type_symbol
_atom_type_description
_atom_site_fract_x
_atom_site_fract_y
_atom_site_fract_z
_atom_type_partial_charge
C1    C     C_R   0.329919 0.499994 0.499968 0.555964
C2    C     C_R   0.501075 0.589461 0.701636 -0.113248
C3    C     C_R   0.499325 0.408280 0.238785 0.056249
C4    C     C_R   0.501147 0.591489 0.761308 0.057571
C5    C     C_R   0.499403 0.496632 0.208779 0.257464
C6    C     C_R   0.500488 0.503386 0.791145 0.208188
C7    C     C_R   0.095319 0.577496 0.475265 0.243194
C8    C     C_R   0.904468 0.422033 0.475351 0.241952
C9    C     C_R   0.904685 0.577916 0.524701 0.242950
C10   C     C_R   0.095537 0.422456 0.524701 0.242017
C11   C     C_R   0.187333 0.578107 0.477001 -0.133895
C12   C     C_R   0.670082 0.499995 0.500032 0.555791
C13   C     C_R   0.812472 0.421432 0.477141 -0.138006
C14   C     C_R   0.812670 0.578497 0.522965 -0.134201
C15   C     C_R   0.187533 0.421821 0.522904 -0.137592
C16   C     C_R   0.233569 0.499973 0.499955 -0.082226
C17   C     C_R   0.766433 0.499974 0.500049 -0.082404
C18   C     C_R   0.048624 0.499988 0.500002 0.045928
C19   C     C_R   0.951379 0.499986 0.500009 0.045830
C20   C     C_R   0.499856 0.499748 0.390824 0.554813
C21   C     C_R   0.500142 0.500264 0.609175 0.551201
C22   C     C_R   0.568508 0.108081 0.526098 -0.136951
C23   C     C_R   0.499482 0.584357 0.238575 -0.089262
C24   C     C_R   0.458319 0.891780 0.456392 -0.137783
C25   C     C_R   0.431452 0.107679 0.473955 -0.138116
C26   C     C_R   0.541602 0.892417 0.543691 -0.130965
C27   C     C_R   0.566891 0.209593 0.525968 0.047003
C28   C     C_R   0.458524 0.790283 0.457421 0.048426
C29   C     C_R   0.433104 0.209192 0.474042 0.044655
C30   C     C_R   0.541403 0.790892 0.542626 0.054416
C31   C     C_R   0.499971 0.054667 0.500039 0.026267
C32   C     C_R   0.499967 0.945311 0.500044 0.025059
C33   C     C_R   0.579285 0.501127 0.880631 0.391432
C34   C     C_R   0.499860 0.415621 0.761446 -0.064837
C35   C     C_R   0.420606 0.500596 0.119311 0.435327
C36   C     C_R   0.421243 0.502177 0.880202 0.392227
C37   C     C_R   0.578667 0.499586 0.119741 0.436001
C38   C     C_R   0.419409 0.501957 0.939825 0.029810
C39   C     C_R   0.580498 0.500443 0.060122 0.036511
C40   C     C_R   0.500031 0.501356 0.969975 -0.027652
C41   C     C_R   0.499874 0.501119 0.029974 -0.023886
C42   C     C_R   0.580808 0.500896 0.940265 0.030013
C43   C     C_R   0.419092 0.501486 0.059681 0.036670
C44   C     C_R   0.339266 0.502485 0.969873 -0.121288
C45   C     C_R   0.499579 0.585624 0.297748 -0.151176
C46   C     C_R   0.660641 0.500192 0.030073 -0.121717
C47   C     C_R   0.339109 0.502281 0.029195 -0.121752
C48   C     C_R   0.660795 0.500383 0.970752 -0.121326
C49   C     C_2   0.499116 0.312387 0.210223 0.259494
C50   C     C_2   0.501868 0.685110 0.792241 0.261467
C51   C     C_3   0.030866 0.636255 0.395041 0.007039
C52   C     C_3   0.996032 0.728291 0.367378 -0.244725
C53   C     C_3   0.969870 0.710560 0.305496 -0.478693
C54   C     C_3   0.968314 0.361791 0.395206 0.008205
C55   C     C_3   0.003973 0.269550 0.367839 -0.245993
C56   C     C_R   0.499802 0.414392 0.702260 -0.151323
C57   C     C_3   0.029706 0.286170 0.305957 -0.478948
C58   C     C_3   0.968997 0.638130 0.604913 0.006744
C59   C     C_3   0.004104 0.730577 0.632453 -0.244210
C60   C     C_3   0.030069 0.713997 0.694387 -0.474185
C61   C     C_3   0.031638 0.363629 0.604875 0.008146
C62   C     C_3   0.996265 0.271783 0.632359 -0.245421
C63   C     C_3   0.970451 0.289503 0.694214 -0.477835
C64   C     C_R   0.499637 0.498800 0.328177 -0.005085
C65   C     C_R   0.500343 0.501259 0.671821 -0.026225
C66   C     C_R   0.499455 0.410648 0.298362 -0.178737
Cu1   Cu    Cu3+1 0.500000 0.596430 0.500000 0.945138
Cu2   Cu    Cu3+1 0.500000 0.403570 0.500000 0.937646
H1    H     H_    0.276439 0.503024 0.947678 0.167059
H2    H     H_    0.499370 0.348100 0.784477 0.135686
H3    H     H_    0.499649 0.654608 0.319614 0.128807
H4    H     H_    0.499278 0.345419 0.680389 0.138495
H5    H     H_    0.499416 0.343206 0.321562 0.115507
H6    H     H_    0.501577 0.656794 0.678381 0.169609
H7    H     H_    0.222532 0.638873 0.459050 0.147101
H8    H     H_    0.777120 0.360328 0.459269 0.149983
H9    H     H_    0.777472 0.639570 0.540882 0.148056
H10   H     H_    0.222886 0.361024 0.540808 0.151070
H11   H     H_    0.624016 0.072224 0.545940 0.094593
H12   H     H_    0.723469 0.499672 0.052267 0.165718
H13   H     H_    0.426573 0.927524 0.421022 0.090456
H14   H     H_    0.375929 0.071522 0.454127 0.093678
H15   H     H_    0.573323 0.928687 0.579079 0.102551
H16   H     H_    0.499276 0.247245 0.235723 0.088410
H17   H     H_    0.501859 0.687032 0.838351 0.128763
H18   H     H_    0.978078 0.580532 0.392584 0.118356
H19   H     H_    0.090135 0.611177 0.370963 0.117664
H20   H     H_    0.937331 0.754560 0.391232 0.189287
H21   H     H_    0.047951 0.785039 0.369173 0.172387
H22   H     H_    0.027950 0.685712 0.280595 0.156689
H23   H     H_    0.619756 0.249033 0.546617 0.126219
H24   H     H_    0.944899 0.778697 0.286646 0.157014
H25   H     H_    0.916815 0.655240 0.302822 0.156741
H26   H     H_    0.020525 0.418084 0.392662 0.116228
H27   H     H_    0.908668 0.385598 0.371003 0.121420
H28   H     H_    0.063039 0.244555 0.391859 0.185059
H29   H     H_    0.952650 0.212210 0.369700 0.175034
H30   H     H_    0.971276 0.309730 0.280894 0.159642
H31   H     H_    0.055300 0.217910 0.287329 0.156593
H32   H     H_    0.082181 0.342072 0.303226 0.154557
H33   H     H_    0.021589 0.582240 0.607496 0.118276
H34   H     H_    0.425540 0.750739 0.423768 0.118009
H35   H     H_    0.909597 0.613779 0.628983 0.119637
H36   H     H_    0.062953 0.756105 0.608608 0.190913
H37   H     H_    0.952396 0.787511 0.630514 0.174583
H38   H     H_    0.971846 0.689909 0.719277 0.158250
H39   H     H_    0.055247 0.782411 0.713143 0.161389
H40   H     H_    0.082918 0.658506 0.697203 0.158688
H41   H     H_    0.979249 0.419774 0.607336 0.116525
H42   H     H_    0.091199 0.388125 0.629058 0.122257
H43   H     H_    0.937291 0.246092 0.608364 0.185657
H44   H     H_    0.047776 0.214610 0.630585 0.176481
H45   H     H_    0.380254 0.248311 0.453376 0.124805
H46   H     H_    0.028789 0.313791 0.719252 0.159764
H47   H     H_    0.945084 0.221501 0.712933 0.158211
H48   H     H_    0.917783 0.345241 0.696859 0.155018
H49   H     H_    0.574306 0.751803 0.576288 0.124787
H50   H     H_    0.276167 0.502574 0.051044 0.165633
H51   H     H_    0.723737 0.500098 0.948901 0.166988
H52   H     H_    0.499522 0.651925 0.215585 0.122816
N1    N     N_R   0.500339 0.502037 0.852071 -0.415744
N2    N     N_R   0.499557 0.498868 0.147868 -0.367559
N3    N     N_R   0.500000 0.258690 0.500000 -0.223410
N4    N     N_R   0.500000 0.741310 0.500000 -0.221758
O1    O     O_R   0.371460 0.581430 0.500000 -0.495056
O2    O     O_2   0.344016 0.500858 0.148601 -0.498180
O3    O     O_2   0.344805 0.502832 0.850494 -0.496840
O4    O     O_2   0.655105 0.498892 0.149448 -0.496436
O5    O     O_2   0.498719 0.304102 0.158547 -0.473890
O6    O     O_2   0.502491 0.761585 0.766606 -0.512985
O7    O     O_3   0.051982 0.656233 0.452366 -0.521439
O8    O     O_3   0.947613 0.342864 0.452539 -0.522400
O9    O     O_3   0.948034 0.657045 0.547545 -0.521387
O10   O     O_3   0.052403 0.343678 0.547567 -0.522316
O11   O     O_R   0.628540 0.418570 0.500000 -0.509425
O12   O     O_R   0.628540 0.581430 0.500000 -0.496858
O13   O     O_R   0.371460 0.418570 0.500000 -0.509146
O14   O     O_R   0.499970 0.581450 0.417880 -0.510951
O15   O     O_R   0.500030 0.418550 0.582120 -0.497847
O16   O     O_R   0.500030 0.581450 0.582120 -0.511119
O17   O     O_R   0.499970 0.418550 0.417880 -0.500741
O18   O     O_2   0.655873 0.500753 0.851340 -0.498779

loop_
_geom_bond_atom_site_label_1
_geom_bond_atom_site_label_2
_ccdc_geom_bond_type
C25   C31   A    
C38   C40   A    
C34   C56   A    
C8    C13   A    
C23   C45   A    
C45   H3    S    
C24   H13   S    
C2    C65   A    
C61   H41   S    
Cu1   N4    S    
C3    C49   S    
C60   H38   S    
C39   C41   A    
C7    C11   A    
C59   H37   S    
C26   H15   S    
C59   H36   S    
C49   H16   S    
C1    O1    A    
C22   H11   S    
C10   C15   A    
Cu1   O1    S    
C15   H10   S    
C56   C65   A    
C57   H31   S    
C51   H18   S    
C18   C19   S    
C14   H9    S    
C20   O14   A    
Cu1   O14   S    
C50   O6    D    
C50   H17   S    
C63   H46   S    
C9    C19   A    
C47   H50   S    
C62   H43   S    
C56   H4    S    
C12   O11   A    
C12   C17   S    
C8    O8    S    
C27   H23   S    
C35   C43   A    
C34   H2    S    
C7    O7    S    
C2    H6    S    
C44   C47   A    
C37   O4    S    
C63   H47   S    
C40   C42   A    
C59   C60   S    
C33   N1    A    
C41   C43   A    
C14   C17   A    
Cu2   O13   S    
C61   H42   S    
Cu2   N3    S    
C61   O10   S    
C48   H51   S    
Cu2   O11   S    
C58   O9    S    
C25   C29   A    
C46   C48   A    
C8    C19   A    
C22   C31   A    
C53   H25   S    
C51   C52   S    
C24   C28   A    
C52   H20   S    
C4    C6    A    
C51   H19   S    
C23   H52   S    
C58   H33   S    
C27   N3    A    
C26   C32   A    
C58   C59   S    
C66   H5    S    
C49   O5    D    
C5    N2    S    
Cu2   O17   S    
Cu1   Cu2   S    
C4    C50   S    
C64   C66   A    
C20   C64   S    
C35   O2    S    
C2    C4    A    
C9    C14   A    
C24   C32   A    
C38   C44   A    
C62   C63   S    
C28   H34   S    
C11   C16   A    
C31   C32   S    
C5    C23   A    
C13   H8    S    
C7    C18   A    
C55   H29   S    
C53   H24   S    
C44   H1    S    
C1    C16   S    
C42   C48   A    
Cu1   O16   S    
C54   H27   S    
C60   H39   S    
C39   C46   A    
C63   H48   S    
C40   C41   A    
C30   N4    A    
C26   C30   A    
C22   C27   A    
C55   C57   S    
C25   H14   S    
C3    C66   A    
C21   O15   A    
C1    O13   A    
C52   C53   S    
C29   H45   S    
C54   C55   S    
C52   H21   S    
C21   C65   S    
C20   O17   A    
C35   N2    A    
C10   O10   S    
C55   H28   S    
C3    C5    A    
C60   H40   S    
C28   N4    A    
C30   H49   S    
C33   O18   S    
C54   O8    S    
C45   C64   A    
C21   O16   A    
C13   C17   A    
C36   C38   A    
C36   N1    A    
C37   C39   A    
C11   H7    S    
C46   H12   S    
C57   H32   S    
C10   C18   A    
C57   H30   S    
C29   N3    A    
Cu1   O12   S    
C61   C62   S    
C54   H26   S    
C37   N2    A    
C36   O3    S    
C6    C34   A    
C62   H44   S    
C51   O7    S    
C12   O12   A    
C53   H22   S    
Cu2   O15   S    
C58   H35   S    
C6    N1    S    
C43   C47   A    
C15   C16   A    
C33   C42   A    
C9    O9    S    
