data_mof_unit_65476.cif
_audit_creation_date              2012-12-10T17:20:37-0500
_audit_creation_method            fapswitch 2.2
_symmetry_space_group_name_H-M    P1
_symmetry_Int_Tables_number       1
_space_group_crystal_system       triclinic
_cell_length_a                    10.286197
_cell_length_b                    10.765677
_cell_length_c                    13.615444
_cell_angle_alpha                 92.695133
_cell_angle_beta                  73.677868
_cell_angle_gamma                 97.878053
_cell_volume                      1433.26453638

loop_
_atom_site_label
_atom_site_type_symbol
_atom_type_description
_atom_site_fract_x
_atom_site_fract_y
_atom_site_fract_z
_atom_type_partial_charge
Br1   Br    Br    0.083045 0.583956 0.681471 -0.295504
Br2   Br    Br    0.916955 0.416044 0.318529 -0.295505
Br3   Br    Br    0.610374 0.100191 0.336890 -0.417185
Br4   Br    Br    0.389625 0.899809 0.663110 -0.417185
Br5   Br    Br    0.129798 0.334197 0.424276 -0.384021
Br6   Br    Br    0.870202 0.665803 0.575724 -0.384021
C1    C     C_R   0.559407 0.733060 0.494645 0.908326
C2    C     C_2   0.070663 0.484179 0.495713 0.301270
C3    C     C_1   0.445862 0.508535 0.884167 0.066276
C4    C     C_1   0.554138 0.491465 0.115833 0.066275
C5    C     C_2   0.600222 0.867152 0.484798 -0.246779
C6    C     C_2   0.399778 0.132848 0.515202 -0.246778
C7    C     C_2   0.504599 0.942205 0.525781 0.186635
C8    C     C_2   0.495401 0.057795 0.474219 0.186635
C9    C     C_1   0.261317 0.087589 0.572826 0.313945
C10   C     C_1   0.738682 0.912411 0.427174 0.313945
C11   C     C_R   0.440593 0.266940 0.505355 0.908326
C12   C     C_R   0.475708 0.503744 0.688348 0.889592
C13   C     C_R   0.524292 0.496256 0.311652 0.889592
C14   C     C_1   0.543262 0.493196 0.205184 -0.087682
C15   C     C_1   0.456737 0.506803 0.794815 -0.087682
C16   C     C_2   0.556638 0.491118 0.011440 -0.133511
C17   C     C_2   0.443362 0.508882 0.988560 -0.133511
C18   C     C_2   0.929337 0.515820 0.504287 0.301270
H1    H     H_    0.350090 0.523419 0.047279 0.187586
H2    H     H_    0.649910 0.476581 0.952721 0.187586
N1    N     N_2   0.847200 0.448220 0.460120 -0.005710
N2    N     N_2   0.152800 0.551780 0.539880 -0.005710
N3    N     N_1   0.150221 0.052214 0.618383 -0.079743
N4    N     N_1   0.849779 0.947786 0.381617 -0.079743
O1    O     O_R   0.430150 0.692610 0.508030 -0.559397
O2    O     O_R   0.569850 0.307390 0.491970 -0.559397
O3    O     O_R   0.653100 0.659360 0.482430 -0.586680
O4    O     O_R   0.346900 0.340640 0.517570 -0.586681
O5    O     O_R   0.372470 0.518990 0.654990 -0.560796
O6    O     O_R   0.627530 0.481010 0.345010 -0.560796
O7    O     O_R   0.595430 0.485740 0.629390 -0.591206
O8    O     O_R   0.404570 0.514260 0.370610 -0.591206
Zn1   Zn    Zn3+2 0.351130 0.522200 0.517090 1.094586
Zn2   Zn    Zn3+2 0.648870 0.477800 0.482910 1.094586

loop_
_geom_bond_atom_site_label_1
_geom_bond_atom_site_label_2
_ccdc_geom_bond_type
C6    C11   S    
Br5   C2    S    
O5    Zn1   S    
C6    C9    S    
Br2   N1    S    
C13   O8    A    
Br1   N2    S    
C12   C15   S    
C5    C7    D    
C5    C10   S    
C13   C14   S    
C18   N1    D    
N1    Zn2   S    
Br6   C18   S    
O2    Zn2   S    
C7    C8    S    
C4    C16   S    
C1    C5    S    
C1    O3    A    
C3    C15   T    
Br3   C8    S    
C12   O5    A    
C2    C18   S    
C12   O7    A    
C6    C8    D    
C9    N3    T    
O7    Zn2   S    
C13   O6    A    
C17   H1    S    
O8    Zn1   S    
C2    N2    D    
O3    Zn2   S    
C1    O1    A    
C11   O4    A    
C10   N4    T    
O4    Zn1   S    
O6    Zn2   S    
C16   H2    S    
C4    C14   T    
Br4   C7    S    
C11   O2    A    
C16   C17   D    
C3    C17   S    
N2    Zn1   S    
O1    Zn1   S    
