data_mof_unit_37416.cif
_audit_creation_date              2012-12-11T15:14:56-0500
_audit_creation_method            fapswitch 2.2
_symmetry_space_group_name_H-M    P1
_symmetry_Int_Tables_number       1
_space_group_crystal_system       triclinic
_cell_length_a                    11.340957
_cell_length_b                    11.267155
_cell_length_c                    18.413539
_cell_angle_alpha                 90.122489
_cell_angle_beta                  89.602005
_cell_angle_gamma                 120.151553
_cell_volume                      2034.49020072

loop_
_atom_site_label
_atom_site_type_symbol
_atom_type_description
_atom_site_fract_x
_atom_site_fract_y
_atom_site_fract_z
_atom_type_partial_charge
C1    C     C_R   0.542865 0.428320 0.636693 0.527274
C2    C     C_R   0.425150 0.544169 0.362789 0.548664
C3    C     C_R   0.461106 0.894639 0.137838 0.540547
C4    C     C_R   0.064071 0.542709 0.354587 0.538223
C5    C     C_3   0.386813 0.001437 0.478578 0.031248
C6    C     C_3   0.627970 0.604881 0.027980 0.033377
C7    C     C_3   0.955005 0.362974 0.467143 0.023640
C8    C     C_3   0.389594 0.006733 0.026636 0.038636
C9    C     C_3   0.609622 0.603997 0.467605 0.037399
C10   C     C_3   0.995044 0.379805 0.025981 0.038787
C11   C     C_3   0.067966 0.458146 0.955864 0.034028
C12   C     C_R   0.888540 0.458496 0.862854 0.527657
C13   C     C_3   0.553008 0.613720 0.542872 0.047868
C14   C     C_3   0.392707 0.932115 0.957019 0.027675
C15   C     C_3   0.046540 0.436965 0.532958 0.042448
C16   C     C_3   0.545001 0.602176 0.961145 0.035148
C17   C     C_3   0.407374 0.927112 0.542951 0.045586
C18   C     C_3   0.509063 0.136347 0.502942 -0.156198
C19   C     C_3   0.622383 0.474280 0.000713 -0.161251
C20   C     C_3   0.842987 0.388092 0.498973 -0.147644
C21   C     C_3   0.522342 0.133505 0.002517 -0.156166
C22   C     C_3   0.592087 0.464271 0.488507 -0.163174
C23   C     C_R   0.571636 0.112749 0.637897 0.528215
C24   C     C_3   0.868155 0.384252 0.003094 -0.159573
C25   C     C_3   0.123327 0.596137 0.997582 -0.148675
C26   C     C_3   0.407349 0.543682 0.510514 -0.158659
C27   C     C_3   0.474174 0.875545 0.998152 -0.148519
C28   C     C_3   0.109323 0.575733 0.491488 -0.124414
C29   C     C_3   0.410573 0.516999 0.005876 -0.130047
C30   C     C_3   0.500196 0.894742 0.494797 -0.133890
C31   C     C_3   0.532607 0.060429 0.564689 0.056268
C32   C     C_3   0.532440 0.466508 0.937193 0.050326
C33   C     C_3   0.937035 0.466611 0.562469 0.051463
C34   C     C_R   0.542096 0.427477 0.862475 0.534014
C35   C     C_3   0.529012 0.056277 0.935959 0.049430
C36   C     C_3   0.531046 0.471513 0.562470 0.046317
C37   C     C_3   0.943191 0.469433 0.936029 0.051396
C38   C     C_3   0.047349 0.517246 0.065993 0.055927
C39   C     C_3   0.464743 0.531173 0.436789 0.043200
C40   C     C_3   0.472970 0.953002 0.066155 0.055097
C41   C     C_3   0.013455 0.502612 0.428150 0.042157
C42   C     C_3   0.495277 0.516869 0.070628 0.058425
C43   C     C_3   0.483288 0.974180 0.431520 0.039229
C44   C     C_3   0.625862 0.031237 0.517923 -0.138009
C45   C     C_R   0.888100 0.458242 0.637384 0.530266
C46   C     C_3   0.402537 0.381331 0.981701 -0.128664
C47   C     C_3   0.996882 0.601600 0.521703 -0.138387
C48   C     C_3   0.610854 0.004836 0.976964 -0.127195
C49   C     C_3   0.388432 0.401887 0.530443 -0.139064
C50   C     C_3   0.993899 0.602833 0.977936 -0.130785
C51   C     C_3   0.919199 0.519285 0.045436 -0.143662
C52   C     C_3   0.447229 0.392738 0.457434 -0.135417
C53   C     C_3   0.604601 0.080829 0.044287 -0.144966
C54   C     C_3   0.903078 0.526269 0.458280 -0.155273
C55   C     C_3   0.491094 0.387497 0.045810 -0.156628
C56   C     C_R   0.569971 0.110956 0.862486 0.526789
C57   C     C_3   0.604914 0.108429 0.454826 -0.147699
C58   C     C_3   0.252867 0.987993 0.452858 -0.266421
C59   C     C_3   0.185561 0.029628 0.512148 -0.475995
C60   C     C_3   0.753826 0.736860 0.056322 -0.271306
C61   C     C_3   0.806312 0.723086 0.130525 -0.396827
C62   C     C_3   0.962913 0.255175 0.417492 -0.263701
C63   C     C_3   0.910369 0.110824 0.444449 -0.484417
C64   C     C_3   0.257685 0.000199 0.054956 -0.266342
C65   C     C_3   0.271736 0.075013 0.126769 -0.389947
C66   C     C_3   0.729500 0.722500 0.426426 -0.263448
C67   C     C_R   0.454547 0.524192 0.143972 0.544941
C68   C     C_3   0.858973 0.791873 0.469980 -0.495540
C69   C     C_3   0.999223 0.252444 0.053394 -0.267987
C70   C     C_3   0.927406 0.195343 0.126438 -0.391687
C71   C     C_3   0.115462 0.379417 0.906278 -0.259995
C72   C     C_3   0.196582 0.455271 0.839803 -0.424384
C73   C     C_3   0.641752 0.740849 0.590487 -0.249036
C74   C     C_3   0.586913 0.743575 0.665707 -0.411669
C75   C     C_3   0.268879 0.888202 0.907153 -0.258127
C76   C     C_3   0.262169 0.804521 0.841569 -0.419038
C77   C     C_3   0.084934 0.347967 0.578153 -0.254412
C78   C     C_R   0.474550 0.927192 0.357162 0.540605
C79   C     C_3   0.170033 0.414129 0.645948 -0.411751
C80   C     C_3   0.622490 0.729723 0.912225 -0.258876
C81   C     C_3   0.542713 0.740565 0.849852 -0.436702
C82   C     C_3   0.293275 0.853509 0.598663 -0.257046
C83   C     C_3   0.316844 0.771673 0.654855 -0.453184
C84   C     C_R   0.105543 0.565911 0.137523 0.539599
Cr1   Cr    Cr6+3 0.769930 0.543130 0.750000 0.947374
Cr2   Cr    Cr6+3 0.773200 0.230070 0.750000 0.946790
Cr3   Cr    Cr6+3 0.456870 0.226800 0.750000 0.948847
Cr4   Cr    Cr6+3 0.543130 0.769930 0.250000 0.961264
Cr5   Cr    Cr6+3 0.230070 0.773200 0.250000 0.967768
Cr6   Cr    Cr6+3 0.226800 0.456870 0.250000 0.961470
H1    H     H_    0.722173 0.049429 0.541993 0.129825
H2    H     H_    0.852215 0.561749 0.420368 0.131190
H3    H     H_    0.480228 0.309401 0.085262 0.124566
H4    H     H_    0.679462 0.179211 0.414154 0.130222
H5    H     H_    0.501020 0.223986 0.520078 0.101695
H6    H     H_    0.705909 0.461114 0.983744 0.096938
H7    H     H_    0.742780 0.320627 0.521622 0.089778
H8    H     H_    0.543786 0.233011 0.985279 0.096945
H9    H     H_    0.650587 0.420382 0.467219 0.107142
H10   H     H_    0.767491 0.300429 0.993188 0.098198
H11   H     H_    0.228508 0.679786 0.999687 0.098620
H12   H     H_    0.315956 0.281648 0.963909 0.113414
H13   H     H_    0.333349 0.576383 0.521030 0.106176
H14   H     H_    0.453667 0.769773 0.001748 0.099356
H15   H     H_    0.215153 0.657077 0.479193 0.094360
H16   H     H_    0.323932 0.534659 0.012309 0.096925
H17   H     H_    0.494611 0.796574 0.483677 0.103621
H18   H     H_    0.105745 0.937905 0.541001 0.132235
H19   H     H_    0.259991 0.096461 0.553352 0.164371
H20   H     H_    0.138664 0.085673 0.487920 0.135630
H21   H     H_    0.274206 0.054595 0.404482 0.149664
H22   H     H_    0.182790 0.880236 0.436253 0.169191
H23   H     H_    0.005875 0.692554 0.548942 0.115844
H24   H     H_    0.798272 0.792801 0.170460 0.152960
H25   H     H_    0.747943 0.616966 0.152268 0.161775
H26   H     H_    0.915888 0.754492 0.126373 0.142338
H27   H     H_    0.837192 0.771815 0.015465 0.111640
H28   H     H_    0.726515 0.818473 0.061056 0.149776
H29   H     H_    0.965146 0.067000 0.414666 0.136239
H30   H     H_    0.928172 0.107769 0.503048 0.129987
H31   H     H_    0.802738 0.044398 0.429308 0.174124
H32   H     H_    0.911293 0.247909 0.365185 0.159288
H33   H     H_    0.072956 0.294532 0.406655 0.185233
H34   H     H_    0.711493 0.023811 0.957379 0.118345
H35   H     H_    0.195064 0.003579 0.166681 0.145734
H36   H     H_    0.374350 0.116260 0.150882 0.174265
H37   H     H_    0.251225 0.160495 0.118257 0.139459
H38   H     H_    0.219859 0.043136 0.012878 0.108727
H39   H     H_    0.178902 0.890413 0.062249 0.152531
H40   H     H_    0.868817 0.881224 0.499707 0.132505
H41   H     H_    0.853243 0.719818 0.511061 0.163575
H42   H     H_    0.948834 0.824611 0.433943 0.155987
H43   H     H_    0.749169 0.681500 0.375721 0.166939
H44   H     H_    0.702132 0.801053 0.411817 0.178564
H45   H     H_    0.307338 0.309998 0.557106 0.134761
H46   H     H_    0.001895 0.201367 0.167264 0.153994
H47   H     H_    0.878694 0.252702 0.147777 0.170372
H48   H     H_    0.848743 0.085310 0.120763 0.135046
H49   H     H_    0.952070 0.170447 0.011749 0.110597
H50   H     H_    0.107614 0.280024 0.058606 0.148978
H51   H     H_    0.142424 0.494109 0.806373 0.176309
H52   H     H_    0.294219 0.539221 0.858251 0.146944
H53   H     H_    0.217031 0.385644 0.806321 0.165171
H54   H     H_    0.175714 0.348179 0.938048 0.125802
H55   H     H_    0.025704 0.281330 0.888961 0.162813
H56   H     H_    0.974949 0.685480 0.959920 0.114922
H57   H     H_    0.579511 0.836697 0.671110 0.166958
H58   H     H_    0.488592 0.649608 0.677693 0.159775
H59   H     H_    0.661310 0.753590 0.707610 0.160577
H60   H     H_    0.740708 0.746527 0.599633 0.159766
H61   H     H_    0.666789 0.834465 0.560707 0.130665
H62   H     H_    0.360319 0.853329 0.811876 0.174789
H63   H     H_    0.235982 0.701889 0.860063 0.150660
H64   H     H_    0.180808 0.794570 0.804598 0.165054
H65   H     H_    0.176550 0.832998 0.938947 0.122609
H66   H     H_    0.264210 0.979647 0.889274 0.166140
H67   H     H_    0.854851 0.533269 0.085363 0.135680
H68   H     H_    0.278765 0.479318 0.633639 0.149767
H69   H     H_    0.135702 0.476778 0.675403 0.175650
H70   H     H_    0.160312 0.331706 0.682662 0.146577
H71   H     H_    0.989195 0.256313 0.596664 0.164917
H72   H     H_    0.130140 0.306241 0.541017 0.125366
H73   H     H_    0.504915 0.650687 0.813453 0.177516
H74   H     H_    0.457904 0.749973 0.871934 0.150828
H75   H     H_    0.609302 0.834551 0.818059 0.165879
H76   H     H_    0.661035 0.820126 0.945937 0.121168
H77   H     H_    0.717351 0.736460 0.890898 0.165303
H78   H     H_    0.402954 0.299645 0.422832 0.141619
H79   H     H_    0.344135 0.702629 0.626721 0.150201
H80   H     H_    0.396719 0.841684 0.692610 0.176867
H81   H     H_    0.221729 0.709853 0.686625 0.149478
H82   H     H_    0.265995 0.924177 0.625863 0.174051
H83   H     H_    0.206896 0.785737 0.568462 0.144452
H84   H     H_    0.683787 0.142466 0.084222 0.132452
O1    O     O_R   0.913270 0.574260 0.668550 -0.532384
O2    O     O_R   0.574260 0.913270 0.331450 -0.537670
O3    O     O_R   0.086730 0.660990 0.168550 -0.536396
O4    O     O_R   0.339010 0.425740 0.331450 -0.527550
O5    O     O_R   0.640160 0.530400 0.673300 -0.513293
O6    O     O_R   0.890240 0.359840 0.826700 -0.517938
O7    O     O_R   0.469600 0.109760 0.673300 -0.522999
O8    O     O_R   0.640160 0.530400 0.826700 -0.523818
O9    O     O_R   0.890240 0.359840 0.673300 -0.520023
O10   O     O_R   0.469600 0.109760 0.826700 -0.519884
O11   O     O_R   0.530400 0.640160 0.173300 -0.515343
O12   O     O_R   0.660990 0.086730 0.831450 -0.534987
O13   O     O_R   0.359840 0.890240 0.326700 -0.514113
O14   O     O_R   0.109760 0.469600 0.173300 -0.510794
O15   O     O_R   0.530400 0.640160 0.326700 -0.525310
O16   O     O_R   0.359840 0.890240 0.173300 -0.514973
O17   O     O_R   0.109760 0.469600 0.326700 -0.539608
O18   O     O_3   0.666667 0.333333 0.750000 -0.332616
O19   O     O_3   0.333333 0.666667 0.250000 -0.302474
O20   O     O_R   0.425740 0.339010 0.668550 -0.536406
O21   O     O_R   0.913270 0.574260 0.831450 -0.530235
O22   O     O_R   0.660990 0.086730 0.668550 -0.541342
O23   O     O_R   0.425740 0.339010 0.831450 -0.529325
O24   O     O_R   0.574260 0.913270 0.168550 -0.529983
O25   O     O_R   0.086730 0.660990 0.331450 -0.525964
O26   O     O_R   0.339010 0.425740 0.168550 -0.534527

loop_
_geom_bond_atom_site_label_1
_geom_bond_atom_site_label_2
_ccdc_geom_bond_type
C27   C48   S    
C69   H49   S    
C72   H53   S    
C66   C68   S    
Cr6   O4    S    
C28   C47   S    
Cr1   O8    S    
C17   C30   S    
C30   H17   S    
C81   H73   S    
C73   C74   S    
C27   H14   S    
C70   H46   S    
C2    O15   A    
C76   H63   S    
C55   H3    S    
C65   H35   S    
C59   H20   S    
C79   H68   S    
C15   C77   S    
C43   C78   S    
C72   H52   S    
C6    C19   S    
C46   H12   S    
C5    C58   S    
C58   H22   S    
C65   H37   S    
C74   H58   S    
C71   H54   S    
C23   O7    A    
C45   O1    A    
C79   H69   S    
C29   C42   S    
C11   C71   S    
C9    C22   S    
Cr6   O26   S    
C4    C41   S    
C19   C32   S    
C83   H80   S    
C28   C41   S    
C9    C39   S    
C3    O24   A    
C33   C45   S    
C11   C37   S    
C17   C82   S    
Cr4   O24   S    
C12   C37   S    
C68   H42   S    
C9    C13   S    
C9    C66   S    
C63   H30   S    
Cr2   O22   S    
C66   H44   S    
C2    C39   S    
C70   H48   S    
C4    O25   A    
C20   H7    S    
C64   H38   S    
C83   H81   S    
C46   C55   S    
C61   H25   S    
C8    C14   S    
Cr5   O16   S    
C74   H59   S    
C60   H28   S    
C21   H8    S    
Cr5   O3    S    
C14   C27   S    
C44   C57   S    
C80   H77   S    
C50   H56   S    
C24   C51   S    
C7    C15   S    
C39   C52   S    
C5    C43   S    
C73   H61   S    
C78   O2    A    
C18   H5    S    
Cr5   O13   S    
C4    O17   A    
C30   C44   S    
C72   H51   S    
C79   H70   S    
C13   C26   S    
C35   C48   S    
C75   H66   S    
C80   H76   S    
C62   H33   S    
C63   H31   S    
C53   H84   S    
C24   C37   S    
Cr6   O17   S    
C77   C79   S    
C48   H34   S    
C77   H71   S    
C48   C53   S    
Cr5   O25   S    
C82   H82   S    
C31   C44   S    
C58   H21   S    
C6    C60   S    
C74   H57   S    
C13   C36   S    
C20   C54   S    
C67   O26   A    
C26   C49   S    
Cr3   O10   S    
Cr1   O21   S    
C65   H36   S    
C38   C51   S    
C56   O10   A    
C10   C24   S    
C16   C29   S    
C51   H67   S    
C59   H19   S    
C60   C61   S    
Cr1   O18   S    
C32   C34   S    
C23   O22   A    
C68   H41   S    
C75   C76   S    
C36   C49   S    
C7    C62   S    
C54   H2    S    
C62   C63   S    
C25   C50   S    
C25   C38   S    
C66   H43   S    
C63   H29   S    
C18   C57   S    
C82   H83   S    
C28   H15   S    
Cr1   O5    S    
C49   C52   S    
Cr5   O19   S    
C61   H26   S    
Cr2   O6    S    
C50   C51   S    
C60   H27   S    
C76   H62   S    
C68   H40   S    
C8    C40   S    
C44   H1    S    
C8    C64   S    
C47   C54   S    
C21   C35   S    
C20   C33   S    
Cr4   O11   S    
C12   O6    A    
C13   C73   S    
C3    C40   S    
C82   C83   S    
C57   H4    S    
C26   H13   S    
C42   C67   S    
C17   C31   S    
C81   H74   S    
C30   C43   S    
C84   O14   A    
Cr3   O23   S    
C62   H32   S    
C14   C35   S    
C45   O9    A    
C22   C52   S    
C19   C55   S    
C77   H72   S    
C47   H23   S    
C29   H16   S    
C3    O16   A    
C81   H75   S    
C22   H9    S    
C27   C40   S    
C38   C84   S    
C35   C56   S    
C24   H10   S    
C32   C46   S    
Cr4   O19   S    
Cr3   O20   S    
C56   O12   A    
C80   C81   S    
C8    C21   S    
Cr3   O7    S    
C71   H55   S    
C40   C53   S    
Cr2   O12   S    
C5    C18   S    
C16   C32   S    
C22   C36   S    
Cr2   O18   S    
C59   H18   S    
Cr4   O2    S    
C29   C46   S    
C10   C38   S    
C12   O21   A    
C1    O20   A    
C58   C59   S    
C71   C72   S    
C14   C75   S    
C21   C53   S    
C37   C50   S    
C1    O5    A    
C34   O23   A    
C25   H11   S    
C15   C28   S    
Cr2   O9    S    
Cr6   O19   S    
Cr6   O14   S    
C69   H50   S    
C42   C55   S    
C33   C47   S    
C83   H79   S    
C64   C65   S    
C76   H64   S    
Cr1   O1    S    
C73   H60   S    
C34   O8    A    
C7    C41   S    
C49   H45   S    
C69   C70   S    
C26   C39   S    
C41   C54   S    
C78   O13   A    
C10   C11   S    
C43   C57   S    
C6    C16   S    
C84   O3    A    
C10   C69   S    
C75   H65   S    
C5    C17   S    
C64   H39   S    
C70   H47   S    
C7    C20   S    
C6    C42   S    
C61   H24   S    
C11   C25   S    
Cr3   O18   S    
C18   C31   S    
C2    O4    A    
C16   C80   S    
C15   C33   S    
C52   H78   S    
C19   H6    S    
C67   O11   A    
C1    C36   S    
C23   C31   S    
Cr4   O15   S    
