data_mof_unit_25758.cif
_audit_creation_date              2013-03-05T15:53:06-0500
_audit_creation_method            fapswitch 2.2
_symmetry_space_group_name_H-M    P1
_symmetry_Int_Tables_number       1
_space_group_crystal_system       triclinic
_cell_length_a                    6.95366
_cell_length_b                    20.460646
_cell_length_c                    24.387067
_cell_angle_alpha                 89.582005
_cell_angle_beta                  90.51908
_cell_angle_gamma                 89.333261
_cell_volume                      3469.23117103

loop_
_atom_site_label
_atom_site_type_symbol
_atom_site_description
_atom_site_fract_x
_atom_site_fract_y
_atom_site_fract_z
_atom_type_partial_charge
O1    O     O_R   0.507320 0.423560 0.460500 -0.593558
O2    O     O_R   0.170760 0.556250 0.437010 -0.574260
O3    O     O_R   0.004030 0.576440 0.539500 -0.580573
C1    C     C_R   0.338526 0.576562 0.421152 0.988213
O4    O     O_R   0.177370 0.422820 0.454110 -0.593985
O5    O     O_R   0.010680 0.442050 0.556720 -0.595474
C2    C     C_R   0.346357 0.398761 0.443723 0.920767
O6    O     O_R   0.500680 0.557950 0.443280 -0.570188
O7    O     O_3   0.340380 0.506470 0.533650 -0.281435
V1    V     V_3+5 0.064130 0.498800 0.493760 1.194541
O8    O     O_R   0.681160 0.443750 0.562990 -0.596391
C3    C     C_R   0.851063 0.423678 0.578878 0.966141
O9    O     O_R   0.674560 0.577180 0.545890 -0.593963
C4    C     C_R   0.842540 0.601229 0.556448 1.007809
V2    V     V_3+5 0.564560 0.501200 0.506240 1.185605
O10   O     O_3   0.838180 0.493530 0.466350 -0.261800
C5    C     C_R   0.976638 0.838475 0.910587 -0.099262
C6    C     C_R   0.846647 0.663598 0.586785 -0.196669
C7    C     C_R   0.043978 0.722574 0.904717 -0.172342
C8    C     C_R   0.034540 0.779665 0.935281 -0.159581
C9    C     C_R   0.928614 0.839866 0.854358 -0.246080
C10   C     C_R   0.940429 0.782258 0.821789 0.110506
C11   C     C_R   0.999026 0.723357 0.848478 0.181281
C12   C     C_R   0.899241 0.780994 0.763865 0.061743
C13   C     C_R   0.917929 0.720939 0.733943 0.061355
C14   C     C_R   0.975969 0.664108 0.763063 -0.198885
C15   C     C_R   0.014983 0.665474 0.818968 -0.235708
C16   C     C_R   0.840783 0.837767 0.734801 -0.200193
C17   C     C_R   0.802542 0.836413 0.678872 -0.221124
C18   C     C_R   0.819866 0.778598 0.649252 0.166118
C19   C     C_R   0.877852 0.719823 0.675917 0.125138
C20   C     C_R   0.777940 0.779739 0.592871 -0.218513
C21   C     C_R   0.790319 0.723102 0.561063 -0.081621
C22   C     C_R   0.890922 0.662486 0.643302 -0.251162
H1    H     H_    0.059749 0.620467 0.839354 0.133989
H2    H     H_    0.930513 0.615614 0.660637 0.101556
H3    H     H_    0.757935 0.881460 0.658521 0.135082
H4    H     H_    0.089419 0.677628 0.925043 0.122929
H5    H     H_    0.073798 0.778071 0.978378 0.117004
H6    H     H_    0.887579 0.886756 0.837327 0.101678
H7    H     H_    0.993617 0.617286 0.743818 0.130547
H8    H     H_    0.822598 0.884535 0.754112 0.130599
H9    H     H_    0.735361 0.825615 0.573512 0.165766
C23   C     C_3   0.845889 0.307380 0.768896 -0.156659
C24   C     C_3   0.035497 0.272998 0.787670 -0.158318
H10   H     H_    0.137533 0.291713 0.818942 0.116395
H11   H     H_    0.791050 0.354945 0.784261 0.116959
H12   H     H_    0.227561 0.265915 0.707977 0.117652
C25   C     C_1   0.960237 0.121790 0.875273 -0.290582
C26   C     C_1   0.864093 0.378167 0.624704 -0.289373
C27   C     C_3   0.739427 0.241367 0.772938 -0.158889
C28   C     C_3   0.928822 0.207615 0.791096 0.227364
C29   C     C_3   0.788863 0.226965 0.712312 -0.159573
C30   C     C_3   0.895538 0.292348 0.708885 0.227215
C31   C     C_3   0.978471 0.192583 0.731086 -0.157895
C32   C     C_3   0.084934 0.258596 0.727044 -0.160313
C33   C     C_1   0.946916 0.160305 0.837236 -0.042527
C34   C     C_1   0.877433 0.339655 0.662744 -0.044286
H13   H     H_    0.033309 0.145017 0.715722 0.116936
H14   H     H_    0.686826 0.208249 0.681041 0.115878
H15   H     H_    0.596800 0.234048 0.792005 0.117620
C35   C     C_3   0.505730 0.720877 0.209653 -0.098624
C36   C     C_3   0.308292 0.699514 0.232581 -0.225880
H16   H     H_    0.222409 0.657589 0.217935 0.167464
H17   H     H_    0.583839 0.696331 0.175916 0.164816
C37   C     C_1   0.347647 0.622478 0.375355 -0.246580
C38   C     C_1   0.476538 0.878157 0.125082 -0.231288
C39   C     C_3   0.583195 0.729155 0.269100 -0.091207
C40   C     C_3   0.386048 0.708530 0.291482 0.156243
C41   C     C_3   0.514293 0.801634 0.268456 -0.119059
C42   C     C_3   0.437019 0.792872 0.209501 0.119443
C43   C     C_3   0.316648 0.780473 0.291548 -0.207535
C44   C     C_3   0.242013 0.771861 0.232229 -0.046528
C45   C     C_1   0.362191 0.661185 0.337466 0.017773
C46   C     C_1   0.461744 0.839881 0.163262 0.038628
H18   H     H_    0.237220 0.804875 0.325123 0.150515
H19   H     H_    0.600129 0.843562 0.283091 0.149790
H20   H     H_    0.725070 0.711270 0.284594 0.137876
C47   C     C_R   0.467414 0.160815 0.089918 -0.248484
C48   C     C_R   0.352256 0.338049 0.411711 -0.101009
C49   C     C_R   0.469359 0.278755 0.091785 -0.086789
C50   C     C_R   0.459477 0.220813 0.062647 -0.228845
C51   C     C_R   0.473154 0.158789 0.147964 0.269305
C52   C     C_R   0.453954 0.218356 0.178377 -0.028263
C53   C     C_R   0.474980 0.278554 0.149576 0.064220
C54   C     C_R   0.410741 0.220455 0.235826 0.074062
C55   C     C_R   0.428198 0.280231 0.265517 0.054938
C56   C     C_R   0.476831 0.337077 0.236091 -0.242342
C57   C     C_R   0.495682 0.337371 0.179034 -0.089568
C58   C     C_R   0.332538 0.166094 0.263201 -0.081790
C59   C     C_R   0.292396 0.167461 0.318751 -0.231040
C60   C     C_R   0.320618 0.223973 0.349126 0.162645
C61   C     C_R   0.388229 0.281641 0.323294 0.115849
C62   C     C_R   0.272755 0.223772 0.404890 -0.156966
C63   C     C_R   0.286147 0.280498 0.435649 -0.165420
C64   C     C_R   0.405952 0.338574 0.356259 -0.234293
H21   H     H_    0.455591 0.384454 0.340129 0.109668
H22   H     H_    0.242503 0.279747 0.478193 0.111166
H23   H     H_    0.233322 0.124169 0.337834 0.153395
H24   H     H_    0.467358 0.323802 0.068356 0.149008
H25   H     H_    0.454190 0.222786 0.018230 0.125376
H26   H     H_    0.496294 0.383111 0.256362 0.153757
H27   H     H_    0.290526 0.122606 0.241743 0.184309
H28   H     H_    0.219761 0.179877 0.424470 0.122505
O11   O     O_R   0.323550 0.942140 0.056770 -0.581210
O12   O     O_R   0.647080 0.077200 0.045890 -0.584866
O13   O     O_R   0.813610 0.057920 0.943260 -0.596428
C65   C     C_R   0.477833 0.101066 0.056552 1.042104
O14   O     O_R   0.653470 0.943760 0.063000 -0.584333
O15   O     O_R   0.820050 0.923540 0.960490 -0.595874
C66   C     C_R   0.485706 0.923559 0.078932 1.041719
O16   O     O_R   0.317110 0.076520 0.039540 -0.585271
O17   O     O_3   0.483830 0.993580 0.966380 -0.291285
V3    V     V_3+5 0.760140 0.001190 0.006240 1.206215
O18   O     O_R   0.149510 0.922740 0.954070 -0.597155
C67   C     C_R   0.981376 0.899000 0.943160 0.917449
O19   O     O_R   0.143120 0.056170 0.936970 -0.598630
C68   C     C_R   0.973236 0.076276 0.921098 0.972444
V4    V     V_3+5 0.259690 0.998700 0.993700 1.190784
O20   O     O_3   0.986130 0.006420 0.033620 -0.250798
C69   C     C_2   0.052081 0.796905 0.211155 0.979048
O21   O     O_2   0.941541 0.759788 0.188253 -0.677079
O22   O     O_R   0.003866 0.862906 0.217155 -0.773171
H29   H     H_    0.872642 0.874185 0.201038 0.332646
C70   C     C_2   0.546299 0.400158 0.151983 0.994915
O23   O     O_2   0.470674 0.451216 0.166908 -0.640067
O24   O     O_R   0.686156 0.401373 0.111143 -0.806629
H30   H     H_    0.709247 0.447078 0.096470 0.328087
N1    N     N_R   0.525396 0.098302 0.174889 0.213214
O25   O     O_R   0.665316 0.096726 0.210697 -0.384126
O26   O     O_R   0.436366 0.044522 0.163161 -0.435946
C71   C     C_2   0.743322 0.728316 0.501312 0.978553
O27   O     O_2   0.799684 0.686784 0.469224 -0.651276
O28   O     O_R   0.636431 0.781934 0.481431 -0.803472
H31   H     H_    0.613896 0.780189 0.440322 0.325987

loop_
_geom_bond_atom_site_label_1
_geom_bond_atom_site_label_2
_geom_bond_distance
_ccdc_geom_bond_type
C13   C19   1.440170 A    
C42   C46   1.489230 S    
C31   C32   1.550714 S    
C31   H13   1.110070 S    
C4    C6    1.480163 S    
O2    C1    1.303966 A    
C7    C8    1.391480 A    
C27   H15   1.110438 S    
C1    O6    1.297541 A    
C49   C50   1.388681 A    
C63   H22   1.083680 S    
O22   H29   1.013732 S    
C57   C70   1.487211 S    
C29   C30   1.539322 S    
C14   C15   1.388223 A    
C17   C18   1.395120 A    
O12   V3    1.994748 S    
C51   C52   1.436841 A    
C16   C17   1.387796 A    
C52   C54   1.436370 A    
O17   V3    2.153170 S    
O19   V4    1.971679 S    
O5    C3    1.297237 A    
C18   C19   1.415695 A    
O18   C67   1.297338 A    
C37   C45   1.218244 T    
C5    C8    1.395142 A    
C25   C33   1.214969 T    
O17   V4    1.702974 S    
O8    V2    1.971860 S    
C50   H25   1.083930 S    
C36   C40   1.543327 S    
C24   C32   1.550536 S    
C39   C40   1.542414 S    
C47   C51   1.416066 A    
C35   C42   1.543272 S    
C41   C42   1.542703 S    
O1    V2    1.989662 S    
C11   C15   1.394155 A    
C48   C64   1.406158 A    
O7    V1    2.153228 S    
O15   V3    1.990332 S    
O13   C68   1.297244 A    
C23   H11   1.110069 S    
C43   H18   1.110183 S    
O11   C66   1.297708 A    
C62   H28   1.084008 S    
O9    C4    1.297144 A    
C41   H19   1.110013 S    
C29   H14   1.110144 S    
C29   C31   1.551008 S    
C39   H20   1.110313 S    
C30   C32   1.539900 S    
C27   C28   1.539898 S    
C26   C34   1.214972 T    
C12   C13   1.438850 A    
C54   C58   1.410096 A    
C59   C60   1.392606 A    
C42   C44   1.534425 S    
C8    H5    1.083640 S    
C53   C57   1.414161 A    
C54   C55   1.431675 A    
C71   O27   1.222949 D    
C36   C44   1.545177 S    
C24   C28   1.539322 S    
C15   H1    1.084387 S    
C13   C14   1.411082 A    
C24   H10   1.110148 S    
C5    C9    1.408400 A    
C65   O16   1.296582 A    
C27   C29   1.550529 S    
C40   C43   1.543760 S    
C7    C11   1.403852 A    
O13   V3    1.959312 S    
C35   C36   1.553348 S    
C7    H4    1.083969 S    
C47   C50   1.392206 A    
C56   H26   1.076284 S    
C25   C68   1.450961 S    
V4    O20   2.149429 S    
C64   H21   1.076903 S    
C60   C62   1.402956 A    
C19   C22   1.424639 A    
C40   C45   1.488203 S    
C52   C53   1.423090 A    
C48   C63   1.395032 A    
C6    C22   1.409500 A    
C69   O21   1.221274 D    
O3    C4    1.298955 A    
O14   V3    1.965231 S    
C21   C71   1.493234 S    
C38   C66   1.456417 S    
O6    V2    1.962822 S    
C44   C69   1.496369 S    
O9    V2    1.993250 S    
C70   O23   1.223347 D    
C10   C12   1.439290 A    
C38   C46   1.218111 T    
O24   H30   1.013898 S    
O2    V1    1.965198 S    
O15   C67   1.299133 A    
C23   C24   1.551011 S    
C23   C27   1.550713 S    
O4    C2    1.296549 A    
N1    O25   1.301435 A    
C30   C34   1.482447 S    
H12   C32   1.110438 S    
C18   C20   1.402930 A    
C35   H17   1.109925 S    
O1    C2    1.298306 A    
C12   C16   1.410220 A    
C43   C44   1.544460 S    
O5    V1    1.959143 S    
O16   V4    1.994258 S    
C3    C26   1.450973 S    
O8    C3    1.301036 A    
C28   C31   1.539076 S    
C51   N1    1.438096 S    
O28   H31   1.014242 S    
C49   H24   1.080766 S    
C61   C64   1.426048 A    
O18   V4    1.993179 S    
C35   C39   1.553092 S    
C20   C21   1.401435 A    
O14   C66   1.303755 A    
O7    V2    1.704275 S    
O4    V1    1.994759 S    
O3    V1    1.990304 S    
V1    O10   1.706757 S    
O19   C68   1.301018 A    
C1    C37   1.456469 S    
C58   C59   1.386038 A    
C9    H6    1.077061 S    
O12   C65   1.298134 A    
C55   C61   1.439060 A    
C16   H8    1.076226 S    
C60   C61   1.420416 A    
C20   H9    1.084504 S    
C47   C65   1.474914 S    
C22   H2    1.077073 S    
C62   C63   1.390119 A    
C6    C21   1.415091 A    
C49   C53   1.409516 A    
C58   H27   1.077500 S    
C69   O22   1.396669 S    
C28   C33   1.482438 S    
C36   H16   1.110214 S    
C23   C30   1.539083 S    
C56   C57   1.398759 A    
C14   H7    1.076108 S    
C55   C56   1.408393 A    
C71   O28   1.399220 S    
C17   H3    1.084401 S    
C70   O24   1.398624 S    
C39   C41   1.553069 S    
C10   C11   1.419271 A    
O11   V4    1.962611 S    
C41   C43   1.554914 S    
C59   H23   1.084358 S    
C9    C10   1.428116 A    
V3    O20   1.706670 S    
V2    O10   2.149394 S    
C5    C67   1.476655 S    
C2    C48   1.472329 S    
N1    O26   1.301215 A    
