data_mof_unit_52563.cif
_audit_creation_date              2012-12-10T22:16:28-0500
_audit_creation_method            fapswitch 2.2
_symmetry_space_group_name_H-M    P1
_symmetry_Int_Tables_number       1
_space_group_crystal_system       triclinic
_cell_length_a                    26.717215
_cell_length_b                    26.741627
_cell_length_c                    26.723516
_cell_angle_alpha                 89.994693
_cell_angle_beta                  90.025477
_cell_angle_gamma                 89.865095
_cell_volume                      19092.8763951

loop_
_atom_site_label
_atom_site_type_symbol
_atom_type_description
_atom_site_fract_x
_atom_site_fract_y
_atom_site_fract_z
_atom_type_partial_charge
Br1   Br    Br    0.728834 0.084585 0.082989 -0.333984
Br2   Br    Br    0.221398 0.132359 0.132232 -0.345388
Br3   Br    Br    0.917023 0.915516 0.271367 -0.335761
Br4   Br    Br    0.084402 0.083073 0.728655 -0.335596
Br5   Br    Br    0.218654 0.858235 0.143600 -0.394797
Br6   Br    Br    0.721485 0.083959 0.916200 -0.343409
Br7   Br    Br    0.083929 0.916237 0.720597 -0.336467
Br8   Br    Br    0.916213 0.083862 0.278495 -0.343030
Br9   Br    Br    0.916176 0.278738 0.916142 -0.350377
Br10  Br    Br    0.083963 0.721653 0.083940 -0.371172
Br11  Br    Br    0.916027 0.721329 0.083929 -0.381150
Br12  Br    Br    0.270933 0.915320 0.916883 -0.359701
Br13  Br    Br    0.082948 0.271485 0.915575 -0.357638
Br14  Br    Br    0.142519 0.781152 0.855727 -0.396078
Br15  Br    Br    0.916051 0.278371 0.083916 -0.368107
Br16  Br    Br    0.134538 0.221248 0.134496 -0.343457
Br17  Br    Br    0.855762 0.781056 0.857467 -0.398631
Br18  Br    Br    0.279040 0.634618 0.134763 -0.346287
Br19  Br    Br    0.721279 0.367899 0.867779 -0.343329
Br20  Br    Br    0.872817 0.627537 0.277333 -0.317743
Br21  Br    Br    0.143260 0.355459 0.723650 -0.365399
Br22  Br    Br    0.779664 0.584076 0.916240 -0.405678
Br23  Br    Br    0.916168 0.084018 0.721697 -0.345315
Br24  Br    Br    0.221413 0.415906 0.083903 -0.378302
Br25  Br    Br    0.083690 0.584057 0.779742 -0.392363
Br26  Br    Br    0.868919 0.368256 0.278132 -0.322730
Br27  Br    Br    0.228910 0.416760 0.915339 -0.355323
Br28  Br    Br    0.721230 0.634196 0.134146 -0.349013
Br29  Br    Br    0.867284 0.367311 0.721241 -0.347730
Br30  Br    Br    0.127869 0.628176 0.277609 -0.316740
Br31  Br    Br    0.722084 0.371160 0.128961 -0.341726
Br32  Br    Br    0.278205 0.627358 0.871269 -0.329491
Br33  Br    Br    0.127477 0.372890 0.277291 -0.317777
Br34  Br    Br    0.083246 0.915316 0.270512 -0.323177
Br35  Br    Br    0.872970 0.626903 0.722300 -0.331200
Br36  Br    Br    0.416170 0.916328 0.219890 -0.381809
Br37  Br    Br    0.628694 0.127852 0.722305 -0.315776
Br38  Br    Br    0.355692 0.723602 0.854380 -0.366629
Br39  Br    Br    0.643817 0.276315 0.145224 -0.369662
Br40  Br    Br    0.373547 0.126014 0.722696 -0.308394
Br41  Br    Br    0.633645 0.868011 0.278766 -0.336939
Br42  Br    Br    0.416137 0.220983 0.083825 -0.408320
Br43  Br    Br    0.582941 0.771920 0.915341 -0.398236
Br44  Br    Br    0.583017 0.084555 0.228773 -0.361371
Br45  Br    Br    0.279629 0.084027 0.916296 -0.378448
Br46  Br    Br    0.417022 0.915477 0.771388 -0.386508
Br47  Br    Br    0.634688 0.278967 0.865163 -0.354049
Br48  Br    Br    0.368652 0.720868 0.133177 -0.347314
Br49  Br    Br    0.648219 0.851796 0.722405 -0.407169
Br50  Br    Br    0.367740 0.133906 0.278841 -0.337099
Br51  Br    Br    0.632743 0.721422 0.132629 -0.346907
Br52  Br    Br    0.355596 0.280996 0.857285 -0.400733
Br53  Br    Br    0.141896 0.724234 0.358331 -0.338348
Br54  Br    Br    0.865382 0.278782 0.634416 -0.346237
Br55  Br    Br    0.278894 0.133968 0.365930 -0.347824
Br56  Br    Br    0.720955 0.916107 0.083759 -0.343006
Br57  Br    Br    0.764826 0.913834 0.586109 -0.348309
Br58  Br    Br    0.869664 0.277957 0.369151 -0.320492
Br59  Br    Br    0.127445 0.722021 0.628614 -0.334647
Br60  Br    Br    0.770503 0.915333 0.416779 -0.350231
Br61  Br    Br    0.275834 0.141155 0.641493 -0.341294
Br62  Br    Br    0.913894 0.764883 0.586145 -0.371065
Br63  Br    Br    0.128052 0.277709 0.370941 -0.310819
Br64  Br    Br    0.722546 0.127401 0.628089 -0.306982
Br65  Br    Br    0.229177 0.915281 0.416714 -0.388442
Br66  Br    Br    0.084634 0.229608 0.583298 -0.376472
Br67  Br    Br    0.083930 0.083920 0.278712 -0.328912
Br68  Br    Br    0.858453 0.724239 0.358335 -0.338452
Br69  Br    Br    0.281171 0.857434 0.644052 -0.393385
Br70  Br    Br    0.721170 0.132925 0.365504 -0.342722
Br71  Br    Br    0.776481 0.645585 0.644579 -0.368362
Br72  Br    Br    0.224170 0.358777 0.358579 -0.342665
Br73  Br    Br    0.415478 0.583193 0.729273 -0.318975
Br74  Br    Br    0.583824 0.416069 0.278294 -0.328651
Br75  Br    Br    0.222409 0.626699 0.372515 -0.319842
Br76  Br    Br    0.729263 0.415213 0.583371 -0.378829
Br77  Br    Br    0.583837 0.584023 0.278696 -0.327357
Br78  Br    Br    0.914144 0.914054 0.734453 -0.319431
Br79  Br    Br    0.416006 0.415964 0.721551 -0.336975
Br80  Br    Br    0.778090 0.369704 0.369165 -0.315894
Br81  Br    Br    0.223554 0.644266 0.645364 -0.371571
Br82  Br    Br    0.415592 0.416930 0.271352 -0.336818
Br83  Br    Br    0.584449 0.582925 0.728285 -0.338150
Br84  Br    Br    0.222118 0.370751 0.629262 -0.344955
Br85  Br    Br    0.777704 0.627702 0.371325 -0.316179
Br86  Br    Br    0.583319 0.415262 0.729531 -0.316717
Br87  Br    Br    0.416289 0.584082 0.279176 -0.328774
Br88  Br    Br    0.415374 0.270382 0.416702 -0.379099
Br89  Br    Br    0.728277 0.916964 0.915344 -0.322344
Br90  Br    Br    0.584419 0.729050 0.583014 -0.358814
Br91  Br    Br    0.415374 0.728611 0.583123 -0.361836
Br92  Br    Br    0.633628 0.221080 0.364765 -0.345972
Br93  Br    Br    0.634451 0.778889 0.365439 -0.346692
Br94  Br    Br    0.371086 0.222266 0.629931 -0.313249
Br95  Br    Br    0.641527 0.224234 0.641385 -0.340461
Br96  Br    Br    0.357196 0.781062 0.355755 -0.394241
C1    C     C_R   0.571357 0.297229 0.297321 0.938638
C2    C     C_R   0.431573 0.299409 0.299419 0.924645
C3    C     C_R   0.172679 0.892292 0.327261 -0.194649
C4    C     C_R   0.322521 0.114223 0.820600 -0.206118
C5    C     C_R   0.678142 0.885130 0.179369 -0.207686
C6    C     C_R   0.179444 0.115201 0.321692 -0.200081
C7    C     C_R   0.826991 0.891725 0.672967 -0.206077
C8    C     C_R   0.679650 0.884667 0.821803 -0.202992
C9    C     C_R   0.315400 0.120368 0.184703 -0.204307
C10   C     C_R   0.827411 0.892445 0.327485 -0.198095
C11   C     C_R   0.177369 0.114379 0.678773 -0.210716
C12   C     C_R   0.319958 0.884086 0.178969 -0.197900
C13   C     C_R   0.705804 0.705706 0.425671 0.939059
C14   C     C_R   0.677761 0.114414 0.820719 -0.212824
C15   C     C_R   0.180002 0.883841 0.679150 -0.201772
C16   C     C_R   0.820664 0.114993 0.321713 -0.207391
C17   C     C_R   0.891770 0.826999 0.672955 -0.201870
C18   C     C_R   0.114434 0.179286 0.322233 -0.209510
C19   C     C_R   0.885046 0.321848 0.820543 -0.206531
C20   C     C_R   0.114431 0.677762 0.179328 -0.207676
C21   C     C_R   0.885338 0.179287 0.322020 -0.210645
C22   C     C_R   0.114406 0.820506 0.677731 -0.204313
C23   C     C_R   0.885628 0.677670 0.179289 -0.208377
C24   C     C_R   0.294326 0.294295 0.574240 0.938361
C25   C     C_R   0.114570 0.320968 0.822487 -0.206844
C26   C     C_R   0.107546 0.172619 0.672535 -0.194882
C27   C     C_R   0.885612 0.822616 0.321221 -0.211219
C28   C     C_R   0.116134 0.680025 0.820883 -0.194252
C29   C     C_R   0.885077 0.321881 0.179297 -0.210669
C30   C     C_R   0.114467 0.822559 0.321096 -0.210003
C31   C     C_R   0.884722 0.179437 0.678397 -0.204322
C32   C     C_R   0.120052 0.315871 0.184736 -0.208749
C33   C     C_R   0.879093 0.684751 0.814359 -0.202316
C34   C     C_R   0.172575 0.327409 0.892395 -0.192869
C35   C     C_R   0.428068 0.703153 0.296942 0.939807
C36   C     C_R   0.820581 0.678322 0.115239 -0.203261
C37   C     C_R   0.678393 0.179470 0.884714 -0.206906
C38   C     C_R   0.314808 0.814290 0.121295 -0.197590
C39   C     C_R   0.820894 0.679993 0.883850 -0.196172
C40   C     C_R   0.178356 0.320564 0.115272 -0.199934
C41   C     C_R   0.320820 0.822261 0.885135 -0.200068
C42   C     C_R   0.679100 0.177692 0.114804 -0.207806
C43   C     C_R   0.820617 0.322112 0.114642 -0.205217
C44   C     C_R   0.185790 0.684868 0.878906 -0.199026
C45   C     C_R   0.320578 0.178073 0.114878 -0.200318
C46   C     C_R   0.571694 0.297203 0.703113 0.932500
C47   C     C_R   0.672735 0.827282 0.892149 -0.191316
C48   C     C_R   0.179495 0.678428 0.115323 -0.199611
C49   C     C_R   0.820528 0.321880 0.885084 -0.207142
C50   C     C_R   0.678101 0.820585 0.114907 -0.204315
C51   C     C_R   0.320891 0.179947 0.883860 -0.199437
C52   C     C_R   0.184311 0.620196 0.184852 -0.209193
C53   C     C_R   0.815308 0.379698 0.815363 -0.206789
C54   C     C_R   0.815872 0.620026 0.184705 -0.209921
C55   C     C_R   0.179085 0.385198 0.822286 -0.202101
C56   C     C_R   0.822430 0.614360 0.820487 -0.204304
C57   C     C_R   0.297013 0.703291 0.571944 0.935261
C58   C     C_R   0.177675 0.385620 0.179284 -0.211476
C59   C     C_R   0.179513 0.614400 0.822321 -0.200671
C60   C     C_R   0.815409 0.379935 0.184371 -0.209840
C61   C     C_R   0.385261 0.820424 0.177991 -0.200856
C62   C     C_R   0.620252 0.184316 0.815095 -0.206380
C63   C     C_R   0.385329 0.822429 0.820870 -0.201646
C64   C     C_R   0.614611 0.177528 0.179100 -0.199238
C65   C     C_R   0.379150 0.184641 0.814396 -0.203758
C66   C     C_R   0.620383 0.815426 0.184732 -0.203578
C67   C     C_R   0.385095 0.178172 0.179394 -0.203348
C68   C     C_R   0.705804 0.294196 0.425613 0.929124
C69   C     C_R   0.615332 0.820370 0.821797 -0.198461
C70   C     C_R   0.178876 0.822563 0.385536 -0.200628
C71   C     C_R   0.815155 0.184223 0.620166 -0.208792
C72   C     C_R   0.184280 0.184779 0.379817 -0.208729
C73   C     C_R   0.826948 0.826942 0.608301 -0.203895
C74   C     C_R   0.815436 0.184667 0.379645 -0.203942
C75   C     C_R   0.184885 0.814214 0.621096 -0.198127
C76   C     C_R   0.821146 0.822601 0.385594 -0.200988
C77   C     C_R   0.177417 0.178865 0.614426 -0.202023
C78   C     C_R   0.677709 0.614846 0.679115 -0.204446
C79   C     C_R   0.700630 0.431485 0.700634 0.927300
C80   C     C_R   0.322624 0.385613 0.321230 -0.211013
C81   C     C_R   0.322436 0.614693 0.679194 -0.205402
C82   C     C_R   0.679314 0.385322 0.321984 -0.207197
C83   C     C_R   0.320569 0.614334 0.322346 -0.209343
C84   C     C_R   0.672706 0.392252 0.672762 -0.197418
C85   C     C_R   0.679287 0.614413 0.322257 -0.208996
C86   C     C_R   0.320634 0.385225 0.677945 -0.206452
C87   C     C_R   0.385277 0.320716 0.677954 -0.206230
C88   C     C_R   0.615230 0.679448 0.321658 -0.201957
C89   C     C_R   0.392456 0.327381 0.327469 -0.194646
C90   C     C_R   0.297408 0.570953 0.297623 0.932136
C91   C     C_R   0.607517 0.672594 0.672491 -0.190484
C92   C     C_R   0.383828 0.680000 0.320810 -0.198733
C93   C     C_R   0.614462 0.322547 0.678898 -0.206368
C94   C     C_R   0.392340 0.672632 0.672733 -0.194262
C95   C     C_R   0.615061 0.320624 0.321620 -0.202261
C96   C     C_R   0.684761 0.315417 0.379570 -0.205073
C97   C     C_R   0.322250 0.679159 0.614888 -0.200448
C98   C     C_R   0.684819 0.684238 0.379816 -0.207514
C99   C     C_R   0.315603 0.315564 0.619987 -0.209739
C100  C     C_R   0.314286 0.684782 0.378999 -0.200922
C101  C     C_R   0.702618 0.571062 0.297531 0.931160
C102  C     C_R   0.678878 0.322535 0.614478 -0.202655
C103  C     C_R   0.322596 0.321137 0.385587 -0.203074
C104  C     C_R   0.677544 0.679165 0.614666 -0.205724
C105  C     C_R   0.691910 0.127986 0.128045 0.187861
C106  C     C_R   0.308004 0.871965 0.871901 0.196465
C107  C     C_R   0.869491 0.130343 0.690896 0.179852
C108  C     C_R   0.128079 0.872009 0.307908 0.199784
C109  C     C_R   0.309462 0.130402 0.869289 0.177730
C110  C     C_R   0.690643 0.869597 0.130347 0.180106
C111  C     C_R   0.130308 0.130496 0.309276 0.191932
C112  C     C_R   0.431530 0.700615 0.700614 0.930627
C113  C     C_R   0.297265 0.428724 0.702586 0.936153
C114  C     C_R   0.872167 0.872129 0.692252 0.196882
C115  C     C_R   0.692020 0.871723 0.871718 0.200382
C116  C     C_R   0.292757 0.143360 0.143340 0.183742
C117  C     C_R   0.872072 0.872152 0.308264 0.187298
C118  C     C_R   0.127821 0.127963 0.691749 0.186364
C119  C     C_R   0.291410 0.854197 0.146029 0.179864
C120  C     C_R   0.690809 0.130317 0.869512 0.179353
C121  C     C_R   0.130437 0.869244 0.690671 0.188804
C122  C     C_R   0.869718 0.130396 0.309180 0.181149
C123  C     C_R   0.869568 0.309240 0.869569 0.179181
C124  C     C_R   0.297142 0.571799 0.703214 0.939159
C125  C     C_R   0.130342 0.690871 0.130567 0.187951
C126  C     C_R   0.869676 0.690744 0.130533 0.177371
C127  C     C_R   0.127955 0.308215 0.872131 0.186029
C128  C     C_R   0.146194 0.708453 0.853724 0.177737
C129  C     C_R   0.869514 0.309148 0.130357 0.177071
C130  C     C_R   0.143900 0.292836 0.144066 0.187089
C131  C     C_R   0.853782 0.708362 0.853828 0.176139
C132  C     C_R   0.207340 0.643967 0.144171 0.186290
C133  C     C_R   0.792654 0.356697 0.856655 0.187451
C134  C     C_R   0.858001 0.642114 0.206926 0.192027
C135  C     C_R   0.702681 0.428816 0.297460 0.930674
C136  C     C_R   0.144654 0.355115 0.796003 0.174274
C137  C     C_R   0.809451 0.630471 0.869227 0.176851
C138  C     C_R   0.190780 0.369638 0.130539 0.178207
C139  C     C_R   0.130714 0.630461 0.809481 0.190485
C140  C     C_R   0.856727 0.356740 0.207038 0.186053
C141  C     C_R   0.191929 0.371861 0.871960 0.199720
C142  C     C_R   0.792837 0.643815 0.143971 0.183959
C143  C     C_R   0.856513 0.356538 0.792671 0.182395
C144  C     C_R   0.142234 0.642360 0.207062 0.191091
C145  C     C_R   0.792893 0.357422 0.142622 0.188500
C146  C     C_R   0.297229 0.428311 0.296886 0.935236
C147  C     C_R   0.207574 0.642193 0.857432 0.192808
C148  C     C_R   0.142104 0.358010 0.206920 0.192162
C149  C     C_R   0.857842 0.642017 0.792616 0.193264
C150  C     C_R   0.369540 0.869392 0.190395 0.185683
C151  C     C_R   0.642458 0.142247 0.792913 0.191795
C152  C     C_R   0.355082 0.795928 0.854843 0.173507
C153  C     C_R   0.644780 0.204005 0.145049 0.172788
C154  C     C_R   0.358038 0.141760 0.792777 0.197283
C155  C     C_R   0.643550 0.856715 0.207321 0.190026
C156  C     C_R   0.369592 0.190639 0.130362 0.179076
C157  C     C_R   0.702986 0.571963 0.703297 0.935752
C158  C     C_R   0.628255 0.808054 0.871714 0.184689
C159  C     C_R   0.627956 0.127887 0.191838 0.201500
C160  C     C_R   0.372026 0.872097 0.808187 0.196242
C161  C     C_R   0.643993 0.207313 0.855804 0.180844
C162  C     C_R   0.356847 0.792209 0.143579 0.184249
C163  C     C_R   0.646123 0.853883 0.795090 0.168510
C164  C     C_R   0.356643 0.143610 0.207344 0.188726
C165  C     C_R   0.643457 0.792775 0.143449 0.183754
C166  C     C_R   0.353755 0.208298 0.853792 0.176453
C167  C     C_R   0.144251 0.796346 0.355793 0.175138
C168  C     C_R   0.071712 0.797185 0.296873 0.939498
C169  C     C_R   0.855847 0.207207 0.643932 0.182798
C170  C     C_R   0.207265 0.143925 0.356192 0.182881
C171  C     C_R   0.807531 0.872047 0.627927 0.198066
C172  C     C_R   0.857095 0.207046 0.357004 0.187791
C173  C     C_R   0.142253 0.792502 0.642579 0.192329
C174  C     C_R   0.808002 0.872102 0.372017 0.203427
C175  C     C_R   0.203644 0.144072 0.644127 0.174118
C176  C     C_R   0.872086 0.807561 0.627928 0.201085
C177  C     C_R   0.142268 0.207050 0.357487 0.194290
C178  C     C_R   0.793005 0.142131 0.642296 0.196044
C179  C     C_R   0.928490 0.202863 0.702734 0.935291
C180  C     C_R   0.191965 0.872001 0.371901 0.196514
C181  C     C_R   0.127902 0.192041 0.628022 0.203734
C182  C     C_R   0.855863 0.796372 0.355845 0.175704
C183  C     C_R   0.208432 0.853766 0.646235 0.178132
C184  C     C_R   0.792721 0.143623 0.356183 0.185810
C185  C     C_R   0.704077 0.645138 0.644959 0.173193
C186  C     C_R   0.296359 0.355919 0.355888 0.173098
C187  C     C_R   0.372067 0.628075 0.692083 0.204134
C188  C     C_R   0.630407 0.369667 0.309102 0.195049
C189  C     C_R   0.292657 0.642025 0.357707 0.192856
C190  C     C_R   0.702634 0.797212 0.071323 0.935457
C191  C     C_R   0.691999 0.371954 0.628145 0.200301
C192  C     C_R   0.630477 0.630330 0.309272 0.191735
C193  C     C_R   0.369544 0.369551 0.690830 0.186594
C194  C     C_R   0.707120 0.357106 0.356990 0.190907
C195  C     C_R   0.295929 0.644929 0.645118 0.172038
C196  C     C_R   0.372175 0.372034 0.308254 0.185651
C197  C     C_R   0.627934 0.628035 0.691740 0.184853
C198  C     C_R   0.292964 0.357193 0.642719 0.186647
C199  C     C_R   0.707062 0.642164 0.357594 0.192255
C200  C     C_R   0.628114 0.371973 0.692108 0.202451
C201  C     C_R   0.296945 0.203143 0.928078 0.942077
C202  C     C_R   0.369267 0.630463 0.309266 0.192116
C203  C     C_R   0.372108 0.307961 0.371986 0.201867
C204  C     C_R   0.627836 0.691947 0.627949 0.201167
C205  C     C_R   0.371935 0.691890 0.628165 0.195386
C206  C     C_R   0.643813 0.292673 0.355979 0.183499
C207  C     C_R   0.644048 0.707252 0.356069 0.183723
C208  C     C_R   0.357264 0.293024 0.642822 0.192858
C209  C     C_R   0.644184 0.296337 0.644158 0.174059
C210  C     C_R   0.353723 0.708378 0.353726 0.179295
C211  C     C_R   0.930864 0.798983 0.701012 0.925339
C212  C     C_R   0.703126 0.297195 0.571696 0.933512
C213  C     C_R   0.071059 0.202629 0.297528 0.931975
C214  C     C_R   0.296721 0.797017 0.928042 0.937095
C215  C     C_R   0.703268 0.202976 0.071947 0.940372
C216  C     C_R   0.068427 0.200591 0.700581 0.930312
C217  C     C_R   0.928309 0.797219 0.296881 0.936739
C218  C     C_R   0.702735 0.202859 0.928480 0.938373
C219  C     C_R   0.293757 0.793692 0.074884 0.940296
C220  C     C_R   0.928813 0.202696 0.297453 0.933455
C221  C     C_R   0.070983 0.797372 0.702413 0.937475
C222  C     C_R   0.297218 0.202638 0.071314 0.939606
C223  C     C_R   0.293806 0.706088 0.425299 0.939232
C224  C     C_R   0.700610 0.799382 0.931501 0.928411
C225  C     C_R   0.202853 0.702749 0.071532 0.936080
C226  C     C_R   0.797219 0.297364 0.928662 0.937591
C227  C     C_R   0.203140 0.928075 0.703045 0.942055
C228  C     C_R   0.797250 0.071341 0.297339 0.936805
C229  C     C_R   0.200582 0.299403 0.931561 0.929124
C230  C     C_R   0.797144 0.702752 0.071505 0.938928
C231  C     C_R   0.202823 0.071480 0.297280 0.930036
C232  C     C_R   0.798983 0.930830 0.701025 0.932730
C233  C     C_R   0.797284 0.297447 0.071212 0.939513
C234  C     C_R   0.428804 0.297327 0.702545 0.930677
C235  C     C_R   0.206249 0.706143 0.925212 0.942276
C236  C     C_R   0.797371 0.071061 0.702459 0.934112
C237  C     C_R   0.200624 0.931493 0.299371 0.930345
C238  C     C_R   0.796948 0.703148 0.928081 0.942923
C239  C     C_R   0.202752 0.297129 0.071518 0.936383
C240  C     C_R   0.799426 0.931568 0.299425 0.926102
C241  C     C_R   0.202764 0.071681 0.703112 0.937797
C242  C     C_R   0.296903 0.928185 0.202997 0.943877
C243  C     C_R   0.702448 0.071046 0.797377 0.935086
C244  C     C_R   0.074247 0.294345 0.205741 0.938580
C245  C     C_R   0.571481 0.702839 0.297272 0.931829
C246  C     C_R   0.925313 0.706091 0.793837 0.940157
C247  C     C_R   0.700562 0.068422 0.200572 0.927468
C248  C     C_R   0.299430 0.931570 0.799422 0.932782
C249  C     C_R   0.928918 0.702487 0.202651 0.935088
C250  C     C_R   0.071757 0.296797 0.797175 0.942027
C251  C     C_R   0.703489 0.927828 0.796818 0.940766
C252  C     C_R   0.294183 0.074418 0.205849 0.940630
C253  C     C_R   0.928667 0.297364 0.797211 0.936794
C254  C     C_R   0.071067 0.702471 0.202657 0.939038
C255  C     C_R   0.297632 0.070948 0.797406 0.935070
C256  C     C_R   0.297219 0.296876 0.428295 0.933622
C257  C     C_R   0.702635 0.928707 0.202731 0.936955
C258  C     C_R   0.071912 0.703142 0.796946 0.943396
C259  C     C_R   0.928696 0.297384 0.202730 0.934595
C260  C     C_R   0.572171 0.796502 0.796814 0.942959
C261  C     C_R   0.428687 0.202662 0.202747 0.938965
C262  C     C_R   0.206127 0.793760 0.574744 0.939814
C263  C     C_R   0.794219 0.205777 0.425643 0.929859
C264  C     C_R   0.428859 0.797306 0.202531 0.940701
C265  C     C_R   0.574338 0.205735 0.794149 0.939208
C266  C     C_R   0.796889 0.797220 0.428302 0.932472
C267  C     C_R   0.702858 0.703229 0.571811 0.940605
C268  C     C_R   0.202791 0.203129 0.571716 0.935064
C269  C     C_R   0.571767 0.202840 0.203213 0.943495
C270  C     C_R   0.428201 0.797135 0.796768 0.946360
C271  C     C_R   0.205706 0.205807 0.425671 0.939990
C272  C     C_R   0.798960 0.798946 0.569194 0.934100
C273  C     C_R   0.425338 0.206047 0.793865 0.937673
C274  C     C_R   0.574415 0.794186 0.205853 0.938122
C275  C     C_R   0.794202 0.205692 0.574280 0.938476
C276  C     C_R   0.203113 0.797209 0.428319 0.936354
C277  C     C_R   0.202474 0.428918 0.202647 0.936001
C278  C     C_R   0.568397 0.700568 0.700556 0.924459
C279  C     C_R   0.797590 0.571016 0.797353 0.937017
C280  C     C_R   0.202617 0.570996 0.797579 0.943510
C281  C     C_R   0.794271 0.425735 0.205721 0.936467
C282  C     C_R   0.794349 0.574247 0.205733 0.936591
C283  C     C_R   0.203287 0.428044 0.797017 0.938950
C284  C     C_R   0.794184 0.425640 0.794177 0.941773
C285  C     C_R   0.205718 0.574311 0.205823 0.939460
C286  C     C_R   0.672563 0.107574 0.172562 -0.195315
C287  C     C_R   0.327399 0.892399 0.827423 -0.191092
C288  C     C_R   0.820733 0.114402 0.677758 -0.211248
O1    O     O_R   0.553790 0.256330 0.314650 -0.578575
O2    O     O_R   0.446210 0.256330 0.314650 -0.569287
O3    O     O_R   0.814650 0.743670 0.946210 -0.572426
O4    O     O_R   0.946210 0.256330 0.185350 -0.583686
O5    O     O_R   0.053790 0.743670 0.814650 -0.583253
O6    O     O_R   0.814650 0.256330 0.946210 -0.581523
O7    O     O_R   0.185350 0.743670 0.053790 -0.573985
O8    O     O_R   0.053790 0.743670 0.185350 -0.574096
O9    O     O_R   0.946210 0.256330 0.814650 -0.580772
O10   O     O_R   0.185350 0.743670 0.946210 -0.579906
O11   O     O_R   0.814650 0.256330 0.053790 -0.580566
O12   O     O_R   0.946210 0.743670 0.814650 -0.583235
O13   O     O_R   0.685350 0.743670 0.446210 -0.576352
O14   O     O_R   0.053790 0.256330 0.185350 -0.574302
O15   O     O_R   0.814650 0.743670 0.053790 -0.586697
O16   O     O_R   0.185350 0.256330 0.946210 -0.587433
O17   O     O_R   0.743670 0.185350 0.053790 -0.582201
O18   O     O_R   0.256330 0.814650 0.946210 -0.574649
O19   O     O_R   0.743670 0.946210 0.185350 -0.581510
O20   O     O_R   0.256330 0.053790 0.814650 -0.583244
O21   O     O_R   0.743670 0.814650 0.946210 -0.566044
O22   O     O_R   0.256330 0.185350 0.053790 -0.564842
O23   O     O_R   0.743670 0.053790 0.814650 -0.581089
O24   O     O_R   0.314650 0.256330 0.553790 -0.568739
O25   O     O_R   0.256330 0.946210 0.185350 -0.579107
O26   O     O_R   0.256330 0.814650 0.053790 -0.578991
O27   O     O_R   0.743670 0.185350 0.946210 -0.580684
O28   O     O_R   0.256330 0.053790 0.185350 -0.583263
O29   O     O_R   0.743670 0.946210 0.814650 -0.574742
O30   O     O_R   0.256330 0.185350 0.946210 -0.582718
O31   O     O_R   0.743670 0.814650 0.053790 -0.584383
O32   O     O_R   0.256330 0.946210 0.814650 -0.576640
O33   O     O_R   0.743670 0.053790 0.185350 -0.583001
O34   O     O_R   0.814650 0.946210 0.743670 -0.576260
O35   O     O_R   0.446210 0.743670 0.314650 -0.584182
O36   O     O_R   0.185350 0.053790 0.256330 -0.572410
O37   O     O_R   0.053790 0.814650 0.743670 -0.568171
O38   O     O_R   0.946210 0.185350 0.256330 -0.581818
O39   O     O_R   0.185350 0.053790 0.743670 -0.581965
O40   O     O_R   0.814650 0.946210 0.256330 -0.582386
O41   O     O_R   0.946210 0.185350 0.743670 -0.583798
O42   O     O_R   0.053790 0.814650 0.256330 -0.576116
O43   O     O_R   0.185350 0.946210 0.256330 -0.567336
O44   O     O_R   0.814650 0.053790 0.743670 -0.583984
O45   O     O_R   0.946210 0.814650 0.256330 -0.582373
O46   O     O_R   0.553790 0.256330 0.685350 -0.577527
O47   O     O_R   0.053790 0.185350 0.743670 -0.582407
O48   O     O_R   0.814650 0.053790 0.256330 -0.581128
O49   O     O_R   0.185350 0.946210 0.743670 -0.571469
O50   O     O_R   0.053790 0.185350 0.256330 -0.568924
O51   O     O_R   0.946210 0.814650 0.743670 -0.571202
O52   O     O_R   0.553790 0.756330 0.814650 -0.584133
O53   O     O_R   0.446210 0.243670 0.185350 -0.584637
O54   O     O_R   0.185350 0.756330 0.553790 -0.575506
O55   O     O_R   0.814650 0.243670 0.446210 -0.577131
O56   O     O_R   0.446210 0.756330 0.185350 -0.582206
O57   O     O_R   0.314650 0.743670 0.553790 -0.573262
O58   O     O_R   0.553790 0.243670 0.814650 -0.582486
O59   O     O_R   0.814650 0.756330 0.446210 -0.573998
O60   O     O_R   0.185350 0.243670 0.553790 -0.571444
O61   O     O_R   0.553790 0.243670 0.185350 -0.575657
O62   O     O_R   0.446210 0.756330 0.814650 -0.571650
O63   O     O_R   0.185350 0.243670 0.446210 -0.568755
O64   O     O_R   0.814650 0.756330 0.553790 -0.568822
O65   O     O_R   0.446210 0.243670 0.814650 -0.583905
O66   O     O_R   0.553790 0.756330 0.185350 -0.584200
O67   O     O_R   0.814650 0.243670 0.553790 -0.580244
O68   O     O_R   0.685350 0.256330 0.446210 -0.579785
O69   O     O_R   0.185350 0.756330 0.446210 -0.575710
O70   O     O_R   0.243670 0.185350 0.553790 -0.576587
O71   O     O_R   0.756330 0.814650 0.446210 -0.572031
O72   O     O_R   0.243670 0.446210 0.185350 -0.583857
O73   O     O_R   0.756330 0.553790 0.814650 -0.583466
O74   O     O_R   0.243670 0.814650 0.446210 -0.572840
O75   O     O_R   0.756330 0.185350 0.553790 -0.572007
O76   O     O_R   0.243670 0.553790 0.814650 -0.576786
O77   O     O_R   0.756330 0.446210 0.185350 -0.581200
O78   O     O_R   0.756330 0.814650 0.553790 -0.574385
O79   O     O_R   0.743670 0.685350 0.553790 -0.576419
O80   O     O_R   0.243670 0.185350 0.446210 -0.584232
O81   O     O_R   0.756330 0.553790 0.185350 -0.580642
O82   O     O_R   0.243670 0.446210 0.814650 -0.582752
O83   O     O_R   0.756330 0.185350 0.446210 -0.574955
O84   O     O_R   0.243670 0.814650 0.553790 -0.579463
O85   O     O_R   0.756330 0.446210 0.814650 -0.573951
O86   O     O_R   0.243670 0.553790 0.185350 -0.575911
O87   O     O_R   0.814650 0.446210 0.243670 -0.574353
O88   O     O_R   0.185350 0.553790 0.756330 -0.569393
O89   O     O_R   0.553790 0.814650 0.243670 -0.568094
O90   O     O_R   0.256330 0.314650 0.446210 -0.577712
O91   O     O_R   0.446210 0.185350 0.756330 -0.572704
O92   O     O_R   0.185350 0.553790 0.243670 -0.576694
O93   O     O_R   0.814650 0.446210 0.756330 -0.580505
O94   O     O_R   0.446210 0.185350 0.243670 -0.569857
O95   O     O_R   0.553790 0.814650 0.756330 -0.572656
O96   O     O_R   0.185350 0.446210 0.756330 -0.567796
O97   O     O_R   0.814650 0.553790 0.243670 -0.574353
O98   O     O_R   0.446210 0.814650 0.756330 -0.578729
O99   O     O_R   0.553790 0.185350 0.243670 -0.571066
O100  O     O_R   0.814650 0.553790 0.756330 -0.570985
O101  O     O_R   0.743670 0.446210 0.685350 -0.573855
O102  O     O_R   0.185350 0.446210 0.243670 -0.570646
O103  O     O_R   0.553790 0.185350 0.756330 -0.572520
O104  O     O_R   0.446210 0.814650 0.243670 -0.567736
O105  O     O_R   0.446210 0.743670 0.685350 -0.577609
O106  O     O_R   0.256330 0.553790 0.314650 -0.580139
O107  O     O_R   0.743670 0.314650 0.446210 -0.571857
O108  O     O_R   0.256330 0.685350 0.553790 -0.578284
O109  O     O_R   0.743670 0.553790 0.314650 -0.578614
O110  O     O_R   0.256330 0.446210 0.685350 -0.576714
O111  O     O_R   0.256330 0.314650 0.553790 -0.585295
O112  O     O_R   0.743670 0.685350 0.446210 -0.577555
O113  O     O_R   0.256330 0.553790 0.685350 -0.584384
O114  O     O_R   0.743670 0.446210 0.314650 -0.577960
O115  O     O_R   0.256330 0.685350 0.446210 -0.577189
O116  O     O_R   0.685350 0.256330 0.553790 -0.576205
O117  O     O_R   0.743670 0.314650 0.553790 -0.570692
O118  O     O_R   0.256330 0.446210 0.314650 -0.573170
O119  O     O_R   0.743670 0.553790 0.685350 -0.569027
O120  O     O_R   0.314650 0.446210 0.743670 -0.575281
O121  O     O_R   0.685350 0.553790 0.256330 -0.569038
O122  O     O_R   0.553790 0.314650 0.743670 -0.570038
O123  O     O_R   0.446210 0.685350 0.256330 -0.564444
O124  O     O_R   0.685350 0.553790 0.743670 -0.584621
O125  O     O_R   0.314650 0.446210 0.256330 -0.582236
O126  O     O_R   0.446210 0.685350 0.743670 -0.567609
O127  O     O_R   0.314650 0.743670 0.446210 -0.577996
O128  O     O_R   0.553790 0.314650 0.256330 -0.567113
O129  O     O_R   0.685350 0.446210 0.256330 -0.569048
O130  O     O_R   0.314650 0.553790 0.743670 -0.566674
O131  O     O_R   0.446210 0.314650 0.256330 -0.583326
O132  O     O_R   0.553790 0.685350 0.743670 -0.585512
O133  O     O_R   0.314650 0.553790 0.256330 -0.567272
O134  O     O_R   0.685350 0.446210 0.743670 -0.569902
O135  O     O_R   0.553790 0.685350 0.256330 -0.569172
O136  O     O_R   0.446210 0.314650 0.743670 -0.569265
O137  O     O_R   0.053790 0.756330 0.314650 -0.573778
O138  O     O_R   0.446210 0.256330 0.685350 -0.579597
O139  O     O_R   0.946210 0.243670 0.685350 -0.568034
O140  O     O_R   0.685350 0.756330 0.053790 -0.567145
O141  O     O_R   0.314650 0.243670 0.946210 -0.572571
O142  O     O_R   0.946210 0.756330 0.685350 -0.573737
O143  O     O_R   0.053790 0.243670 0.314650 -0.578209
O144  O     O_R   0.314650 0.756330 0.946210 -0.576952
O145  O     O_R   0.685350 0.243670 0.053790 -0.572414
O146  O     O_R   0.053790 0.243670 0.685350 -0.567894
O147  O     O_R   0.946210 0.756330 0.314650 -0.572145
O148  O     O_R   0.685350 0.243670 0.946210 -0.573287
O149  O     O_R   0.553790 0.743670 0.314650 -0.578763
O150  O     O_R   0.314650 0.756330 0.053790 -0.576851
O151  O     O_R   0.946210 0.243670 0.314650 -0.572061
O152  O     O_R   0.053790 0.756330 0.685350 -0.578607
O153  O     O_R   0.314650 0.243670 0.053790 -0.586692
O154  O     O_R   0.685350 0.756330 0.946210 -0.585786
O155  O     O_R   0.243670 0.685350 0.053790 -0.575154
O156  O     O_R   0.756330 0.314650 0.946210 -0.572083
O157  O     O_R   0.243670 0.946210 0.685350 -0.581659
O158  O     O_R   0.756330 0.053790 0.314650 -0.572435
O159  O     O_R   0.243670 0.314650 0.946210 -0.563870
O160  O     O_R   0.314650 0.256330 0.446210 -0.571434
O161  O     O_R   0.756330 0.685350 0.053790 -0.564795
O162  O     O_R   0.243670 0.053790 0.314650 -0.575223
O163  O     O_R   0.756330 0.946210 0.685350 -0.569804
O164  O     O_R   0.756330 0.314650 0.053790 -0.572631
O165  O     O_R   0.243670 0.685350 0.946210 -0.574869
O166  O     O_R   0.756330 0.053790 0.685350 -0.567812
O167  O     O_R   0.243670 0.946210 0.314650 -0.580960
O168  O     O_R   0.756330 0.685350 0.946210 -0.581815
O169  O     O_R   0.243670 0.314650 0.053790 -0.582749
O170  O     O_R   0.756330 0.946210 0.314650 -0.569940
O171  O     O_R   0.685350 0.743670 0.553790 -0.577232
O172  O     O_R   0.243670 0.053790 0.685350 -0.573107
O173  O     O_R   0.314650 0.946210 0.243670 -0.574347
O174  O     O_R   0.685350 0.053790 0.756330 -0.574024
O175  O     O_R   0.053790 0.314650 0.243670 -0.576828
O176  O     O_R   0.946210 0.685350 0.756330 -0.572932
O177  O     O_R   0.685350 0.053790 0.243670 -0.568674
O178  O     O_R   0.314650 0.946210 0.756330 -0.570353
O179  O     O_R   0.946210 0.685350 0.243670 -0.574197
O180  O     O_R   0.053790 0.314650 0.756330 -0.576703
O181  O     O_R   0.685350 0.946210 0.756330 -0.579744
O182  O     O_R   0.553790 0.743670 0.685350 -0.567630
O183  O     O_R   0.314650 0.053790 0.243670 -0.567920
O184  O     O_R   0.946210 0.314650 0.756330 -0.573418
O185  O     O_R   0.053790 0.685350 0.243670 -0.575535
O186  O     O_R   0.314650 0.053790 0.756330 -0.569037
O187  O     O_R   0.685350 0.946210 0.243670 -0.571911
O188  O     O_R   0.053790 0.685350 0.756330 -0.566014
O189  O     O_R   0.946210 0.314650 0.243670 -0.571220
O190  O     O_R   0.053790 0.256330 0.814650 -0.578306
O191  O     O_R   0.946210 0.743670 0.185350 -0.580213
O192  O     O_R   0.185350 0.256330 0.053790 -0.566645
Zn1   Zn    Zn3+2 0.500000 0.210530 0.289470 1.175745
Zn2   Zn    Zn3+2 0.210530 0.289470 0.500000 1.164990
Zn3   Zn    Zn3+2 0.789470 0.500000 0.710530 1.166469
Zn4   Zn    Zn3+2 0.210530 0.500000 0.289470 1.161448
Zn5   Zn    Zn3+2 0.789470 0.289470 0.500000 1.170074
Zn6   Zn    Zn3+2 0.210530 0.710530 0.500000 1.156830
Zn7   Zn    Zn3+2 0.789470 0.500000 0.289470 1.165979
Zn8   Zn    Zn3+2 0.210530 0.500000 0.710530 1.158740
Zn9   Zn    Zn3+2 0.289470 0.500000 0.789470 1.174165
Zn10  Zn    Zn3+2 0.710530 0.500000 0.210530 1.170829
Zn11  Zn    Zn3+2 0.500000 0.289470 0.789470 1.164476
Zn12  Zn    Zn3+2 0.500000 0.789470 0.710530 1.165367
Zn13  Zn    Zn3+2 0.500000 0.710530 0.210530 1.171785
Zn14  Zn    Zn3+2 0.710530 0.500000 0.789470 1.161311
Zn15  Zn    Zn3+2 0.289470 0.500000 0.210530 1.161541
Zn16  Zn    Zn3+2 0.500000 0.710530 0.789470 1.160403
Zn17  Zn    Zn3+2 0.500000 0.289470 0.210530 1.157706
Zn18  Zn    Zn3+2 1.000000 0.710530 0.289470 1.162680
Zn19  Zn    Zn3+2 1.000000 0.289470 0.710530 1.166710
Zn20  Zn    Zn3+2 0.710530 0.710530 0.000000 1.157500
Zn21  Zn    Zn3+2 0.289470 0.289470 0.000000 1.153824
Zn22  Zn    Zn3+2 1.000000 0.710530 0.710530 1.173790
Zn23  Zn    Zn3+2 0.710530 0.210530 0.500000 1.165926
Zn24  Zn    Zn3+2 1.000000 0.289470 0.289470 1.167417
Zn25  Zn    Zn3+2 0.289470 0.710530 0.000000 1.163189
Zn26  Zn    Zn3+2 0.710530 0.289470 0.000000 1.162215
Zn27  Zn    Zn3+2 0.289470 0.000000 0.710530 1.163435
Zn28  Zn    Zn3+2 0.710530 1.000000 0.289470 1.177197
Zn29  Zn    Zn3+2 0.289470 1.000000 0.289470 1.168408
Zn30  Zn    Zn3+2 0.710530 0.000000 0.710530 1.168336
Zn31  Zn    Zn3+2 1.000000 0.210530 0.789470 1.150288
Zn32  Zn    Zn3+2 0.000000 0.789470 0.210530 1.159493
Zn33  Zn    Zn3+2 0.210530 0.210530 0.000000 1.161235
Zn34  Zn    Zn3+2 0.289470 0.789470 0.500000 1.160661
Zn35  Zn    Zn3+2 0.789470 0.789470 0.000000 1.155558
Zn36  Zn    Zn3+2 1.000000 0.210530 0.210530 1.162211
Zn37  Zn    Zn3+2 1.000000 0.789470 0.789470 1.162542
Zn38  Zn    Zn3+2 0.789470 0.210530 0.000000 1.149593
Zn39  Zn    Zn3+2 0.210530 0.789470 0.000000 1.160152
Zn40  Zn    Zn3+2 0.789470 0.000000 0.210530 1.149851
Zn41  Zn    Zn3+2 0.210530 0.000000 0.789470 1.159664
Zn42  Zn    Zn3+2 0.789470 0.000000 0.789470 1.161158
Zn43  Zn    Zn3+2 0.210530 0.000000 0.210530 1.168541
Zn44  Zn    Zn3+2 0.500000 0.210530 0.710530 1.167189
Zn45  Zn    Zn3+2 0.500000 0.789470 0.289470 1.166151
Zn46  Zn    Zn3+2 0.289470 0.210530 0.500000 1.167410
Zn47  Zn    Zn3+2 0.710530 0.789470 0.500000 1.174003
Zn48  Zn    Zn3+2 0.789470 0.710530 0.500000 1.167080

loop_
_geom_bond_atom_site_label_1
_geom_bond_atom_site_label_2
_ccdc_geom_bond_type
C3    C108  A    
C66   C274  S    
C18   C213  S    
O27   Zn38  S    
O90   Zn2   S    
C17   C176  A    
C35   O35   A    
C42   C153  A    
O84   Zn34  S    
C212  O117  A    
O117  Zn5   S    
C52   C285  S    
O13   Zn47  S    
C33   C149  A    
Br48  C162  S    
O160  Zn46  S    
C265  O103  A    
C34   C127  A    
C232  O163  A    
C245  O135  A    
O121  Zn10  S    
C65   C154  A    
O128  Zn17  S    
C264  O104  A    
Br68  C182  S    
C41   C106  A    
C96   C206  A    
Br69  C183  S    
C12   C150  A    
Br70  C184  S    
Br59  C173  S    
C69   C158  A    
C44   C235  S    
O80   Zn46  S    
C20   C125  A    
C51   C109  A    
O167  Zn29  S    
C81   C187  A    
C223  O127  A    
C82   C188  A    
C220  O151  A    
O83   Zn23  S    
Br76  C191  S    
C80   C196  A    
C231  O162  A    
C7    C171  A    
O147  Zn18  S    
C74   C184  A    
C61   C150  A    
C58   C277  S    
O137  Zn18  S    
C22   C173  A    
C25   C136  A    
Br65  C180  S    
Br87  C202  S    
O30   Zn33  S    
O93   Zn3   S    
C37   C218  S    
O42   Zn32  S    
C7    C114  A    
C40   C138  A    
C219  O26   A    
C168  O42   A    
O119  Zn3   S    
C217  O147  A    
C112  O126  A    
O108  Zn6   S    
C218  O148  A    
Br35  C149  S    
C81   C195  A    
Br22  C137  S    
O79   Zn48  S    
C216  O47   A    
O110  Zn8   S    
C105  C286  A    
C230  O161  A    
C107  C288  A    
Br30  C144  S    
C41   C152  A    
O188  Zn22  S    
O76   Zn9   S    
O61   Zn17  S    
C66   C165  A    
O139  Zn19  S    
C46   C93   S    
O191  Zn32  S    
C19   C253  S    
C220  O38   A    
C38   C119  A    
C90   O106  A    
C8    C163  A    
C15   C183  A    
O180  Zn19  S    
C28   C258  S    
C11   C241  S    
O31   Zn35  S    
C34   C229  S    
C285  O86   A    
O9    Zn31  S    
C78   C157  S    
O35   Zn45  S    
C38   C162  A    
Br16  C130  S    
C58   C138  A    
C22   C121  A    
O146  Zn19  S    
O63   Zn2   S    
Br88  C203  S    
Br19  C133  S    
C70   C180  A    
C56   C149  A    
C277  O72   A    
C98   C199  A    
C99   C198  A    
C76   C174  A    
C247  O33   A    
C54   C282  S    
O114  Zn7   S    
C79   O134  A    
C216  O146  A    
C32   C148  A    
O5    Zn37  S    
C190  O140  A    
C64   C269  S    
C274  O89   A    
C92   C210  A    
O34   Zn42  S    
C104  C204  A    
O157  Zn27  S    
C70   C276  S    
O184  Zn19  S    
C179  O139  A    
Br90  C204  S    
C23   C249  S    
C78   C185  A    
O49   Zn41  S    
C31   C169  A    
C52   C144  A    
C16   C228  S    
C61   C264  S    
C31   C179  S    
C54   C134  A    
C17   C114  A    
C276  O74   A    
C269  O61   A    
C8    C251  S    
O26   Zn39  S    
Br3   C117  S    
C62   C161  A    
Br37  C151  S    
O165  Zn25  S    
C9    C252  S    
C249  O191  A    
C19   C143  A    
O120  Zn9   S    
Br21  C136  S    
Br80  C194  S    
Br50  C164  S    
C256  O90   A    
C112  O105  A    
C256  O160  A    
O150  Zn25  S    
C83   C189  A    
C30   C167  A    
O170  Zn28  S    
O187  Zn28  S    
C23   C126  A    
C62   C265  S    
C3    C180  A    
C24   O24   A    
C21   C172  A    
Br24  C138  S    
C113  O110  A    
O25   Zn43  S    
C32   C130  A    
O20   Zn41  S    
C211  O142  A    
O141  Zn21  S    
O66   Zn13  S    
C16   C122  A    
O95   Zn12  S    
C273  O91   A    
C94   C205  A    
C18   C177  A    
C266  O71   A    
C252  O183  A    
C14   C151  A    
C248  O178  A    
O159  Zn21  S    
C78   C197  A    
O51   Zn37  S    
O97   Zn7   S    
O138  Zn44  S    
C279  O73   A    
O162  Zn29  S    
C85   C101  S    
C213  O50   A    
C97   C195  A    
C83   C90   S    
O78   Zn47  S    
C9    C116  A    
C39   C131  A    
Br15  C129  S    
O129  Zn10  S    
C64   C159  A    
C67   C156  A    
C63   C270  S    
C3    C237  S    
O132  Zn16  S    
C2    C89   S    
C249  O179  A    
O69   Zn6   S    
C215  O17   A    
C278  O132  A    
Br5   C119  S    
O98   Zn12  S    
C94   C187  A    
C50   C165  A    
C259  O189  A    
C36   C142  A    
C85   C192  A    
C48   C225  S    
O124  Zn14  S    
C29   C259  S    
Br63  C177  S    
C69   C260  S    
C28   C128  A    
O126  Zn16  S    
O102  Zn4   S    
O131  Zn17  S    
C214  O144  A    
Br12  C106  S    
Br78  C114  S    
C267  O79   A    
O8    Zn32  S    
C240  O170  A    
C92   C202  A    
C74   C263  S    
C36   C230  S    
O136  Zn11  S    
C59   C280  S    
C102  C212  S    
C13   O112  A    
O62   Zn16  S    
O104  Zn45  S    
O21   Zn35  S    
C215  O145  A    
Br54  C169  S    
C12   C119  A    
C250  O190  A    
C87   C193  A    
C252  O28   A    
C227  O49   A    
C77   C175  A    
C44   C128  A    
O105  Zn12  S    
C282  O97   A    
C47   C158  A    
C157  O124  A    
C45   C222  S    
C69   C163  A    
O46   Zn44  S    
C238  O3    A    
C16   C184  A    
C236  O166  A    
C66   C155  A    
C46   O122  A    
O189  Zn24  S    
Br40  C154  S    
C238  O168  A    
C281  O87   A    
C99   C208  A    
Br38  C152  S    
O77   Zn10  S    
C241  O39   A    
C102  C209  A    
O22   Zn33  S    
O7    Zn39  S    
C6    C231  S    
O36   Zn43  S    
C226  O156  A    
C48   C125  A    
C225  O7    A    
C217  O45   A    
C229  O159  A    
O58   Zn11  S    
C9    C164  A    
C246  O176  A    
C221  O152  A    
C103  C203  A    
O109  Zn7   S    
C62   C151  A    
C80   C146  S    
O186  Zn27  S    
O163  Zn30  S    
C49   C133  A    
Br26  C140  S    
C103  C256  S    
C222  O22   A    
O181  Zn30  S    
C101  O109  A    
C64   C153  A    
C85   C199  A    
C255  O20   A    
C179  O41   A    
O67   Zn5   S    
C4    C109  A    
O106  Zn4   S    
C79   C84   S    
C280  O88   A    
Br52  C166  S    
O19   Zn40  S    
C106  C287  A    
Br53  C167  S    
C36   C126  A    
C53   C133  A    
O88   Zn8   S    
C84   C191  A    
C45   C116  A    
C68   O107  A    
C276  O69   A    
Br49  C163  S    
Br9   C123  S    
O55   Zn5   S    
C60   C140  A    
O116  Zn23  S    
O75   Zn23  S    
O113  Zn8   S    
Br95  C209  S    
C91   C278  S    
C245  O149  A    
O32   Zn41  S    
O4    Zn36  S    
C86   C193  A    
C43   C145  A    
O115  Zn6   S    
O29   Zn42  S    
C253  O9    A    
C218  O27   A    
Br74  C188  S    
C201  O30   A    
C263  O83   A    
C1    C95   S    
Br6   C120  S    
Br91  C205  S    
C73   C176  A    
C219  O150  A    
C33   C246  S    
O107  Zn5   S    
C258  O188  A    
C15   C121  A    
C68   C96   S    
O152  Zn22  S    
C271  O80   A    
C240  O40   A    
C91   C204  A    
O15   Zn35  S    
O143  Zn24  S    
C67   C261  S    
C59   C147  A    
C124  O130  A    
C34   C141  A    
C271  O63   A    
C234  O138  A    
C76   C266  S    
C82   C194  A    
O168  Zn20  S    
C65   C273  S    
O65   Zn11  S    
C101  O121  A    
O183  Zn29  S    
Br1   C105  S    
C239  O169  A    
C53   C284  S    
C269  O99   A    
C75   C262  S    
Br67  C111  S    
O12   Zn37  S    
Br89  C115  S    
O14   Zn36  S    
Br51  C165  S    
C263  O55   A    
C63   C160  A    
C42   C215  S    
C86   C198  A    
C95   C188  A    
C43   C233  S    
C98   C207  A    
O100  Zn3   S    
Br84  C198  S    
Br85  C199  S    
O3    Zn35  S    
C277  O102  A    
Br86  C200  S    
O140  Zn20  S    
Br66  C181  S    
O68   Zn23  S    
O47   Zn31  S    
C40   C130  A    
Br28  C142  S    
C226  O6    A    
O45   Zn32  S    
O50   Zn36  S    
C51   C201  S    
O112  Zn48  S    
C52   C132  A    
O86   Zn15  S    
C27   C217  S    
O82   Zn9   S    
O154  Zn20  S    
O87   Zn7   S    
C87   C208  A    
C274  O66   A    
O99   Zn1   S    
C14   C243  S    
C91   C197  A    
C242  O173  A    
O2    Zn1   S    
Br73  C187  S    
C37   C161  A    
Br42  C156  S    
O144  Zn25  S    
O190  Zn31  S    
C84   C200  A    
C257  O19   A    
C2    O2    A    
C49   C226  S    
C5    C155  A    
Br55  C170  S    
C57   O57   A    
O174  Zn30  S    
Br13  C127  S    
C29   C129  A    
C71   C178  A    
Br46  C160  S    
O10   Zn39  S    
C268  O60   A    
O72   Zn15  S    
C77   C181  A    
C284  O85   A    
C251  O181  A    
C190  O31   A    
C253  O184  A    
C58   C148  A    
C73   C171  A    
C24   C99   S    
O64   Zn48  S    
O56   Zn13  S    
C24   O111  A    
C11   C175  A    
Br71  C185  S    
C61   C162  A    
Br20  C134  S    
C5    C257  S    
C241  O172  A    
O182  Zn12  S    
C168  O137  A    
C56   C137  A    
O111  Zn2   S    
C100  C223  S    
Br64  C178  S    
C74   C172  A    
O125  Zn15  S    
C26   C118  A    
C262  O54   A    
C2    O131  A    
C40   C239  S    
C12   C242  S    
C47   C224  S    
C71   C169  A    
C93   C209  A    
C79   O101  A    
O94   Zn1   S    
C113  O120  A    
C244  O14   A    
C237  O43   A    
C270  O98   A    
C33   C131  A    
C26   C216  S    
C88   C245  S    
C30   C168  S    
C21   C122  A    
C70   C167  A    
C75   C183  A    
Br4   C118  S    
C135  O129  A    
O172  Zn27  S    
Br82  C196  S    
Br43  C158  S    
O53   Zn17  S    
O192  Zn33  S    
C7    C232  S    
C27   C117  A    
C247  O177  A    
O177  Zn28  S    
C160  C287  A    
O24   Zn46  S    
Br27  C141  S    
C95   C206  A    
O38   Zn36  S    
C102  C191  A    
O96   Zn8   S    
C60   C281  S    
Br45  C109  S    
C104  C185  A    
C71   C275  S    
C37   C120  A    
Br31  C145  S    
O134  Zn14  S    
O145  Zn26  S    
C103  C186  A    
C255  O186  A    
C15   C227  S    
C235  O10   A    
O127  Zn34  S    
Br44  C159  S    
O11   Zn38  S    
C233  O11   A    
Br2   C116  S    
O54   Zn6   S    
C104  C267  S    
C224  O21   A    
C43   C129  A    
C44   C147  A    
C212  O116  A    
O59   Zn48  S    
C82   C135  S    
C227  O157  A    
C29   C140  A    
O43   Zn43  S    
Br47  C161  S    
C262  O84   A    
C270  O62   A    
O85   Zn14  S    
C233  O164  A    
C228  O48   A    
O161  Zn20  S    
C57   C97   S    
Br8   C122  S    
C60   C145  A    
C88   C207  A    
C224  O154  A    
C124  O113  A    
C81   C124  S    
C96   C194  A    
Br58  C172  S    
C45   C156  A    
C232  O34   A    
O40   Zn40  S    
C56   C279  S    
O156  Zn26  S    
Br60  C174  S    
C31   C107  A    
O91   Zn44  S    
Br61  C175  S    
C247  C286  S    
C76   C182  A    
Br96  C210  S    
C261  O94   A    
C265  O58   A    
O44   Zn42  S    
Br36  C150  S    
C14   C120  A    
C222  O153  A    
C281  O77   A    
C50   C110  A    
O173  Zn29  S    
C27   C182  A    
C18   C111  A    
C229  O16   A    
C258  O5    A    
C230  O15   A    
O41   Zn31  S    
C244  O175  A    
C259  O4    A    
C1    O128  A    
O57   Zn34  S    
Br14  C128  S    
C266  O59   A    
C248  C287  S    
C4    C154  A    
O18   Zn39  S    
O6    Zn38  S    
C42   C105  A    
C250  O180  A    
C157  O119  A    
C159  C286  A    
C283  O82   A    
C236  O44   A    
C80   C186  A    
C23   C134  A    
C97   C205  A    
C242  O25   A    
C65   C166  A    
C54   C142  A    
C68   O68   A    
C201  O141  A    
C41   C214  S    
O133  Zn15  S    
O33   Zn40  S    
O118  Zn4   S    
C6    C111  A    
Br10  C125  S    
C239  O192  A    
C93   C200  A    
C178  C288  A    
C35   C92   S    
C248  O32   A    
C237  O167  A    
C223  O115  A    
O74   Zn34  S    
O52   Zn16  S    
C28   C139  A    
Br75  C189  S    
O37   Zn37  S    
C89   C196  A    
O171  Zn47  S    
C46   O46   A    
C211  O51   A    
Br11  C126  S    
C279  O100  A    
C243  O23   A    
C10   C240  S    
C55   C141  A    
C22   C221  S    
O16   Zn33  S    
C282  O81   A    
C231  O36   A    
C73   C272  S    
O28   Zn43  S    
O60   Zn2   S    
O48   Zn40  S    
O89   Zn45  S    
C47   C115  A    
O142  Zn22  S    
O158  Zn28  S    
C5    C110  A    
Br34  C108  S    
C146  O125  A    
C13   O13   A    
O70   Zn46  S    
C260  O95   A    
C30   C108  A    
C87   C234  S    
O148  Zn26  S    
C67   C164  A    
C86   C113  S    
C275  O75   A    
C89   C203  A    
O71   Zn47  S    
O122  Zn11  S    
O1    Zn1   S    
O73   Zn14  S    
O103  Zn44  S    
C50   C190  S    
C272  O64   A    
Br81  C195  S    
C254  O8    A    
C55   C136  A    
Br39  C153  S    
C77   C268  S    
C59   C139  A    
O166  Zn30  S    
C39   C137  A    
C25   C127  A    
Br56  C110  S    
C13   C98   S    
C225  O155  A    
C32   C244  S    
C51   C166  A    
O179  Zn18  S    
Br25  C139  S    
C146  O118  A    
O130  Zn9   S    
Br18  C132  S    
C72   C177  A    
Br79  C193  S    
C228  O158  A    
C94   C112  S    
C264  O56   A    
C10   C174  A    
C72   C271  S    
O151  Zn24  S    
C278  O182  A    
Br32  C147  S    
C20   C254  S    
C280  O76   A    
O176  Zn22  S    
C63   C152  A    
C75   C173  A    
Br72  C186  S    
Br77  C192  S    
C100  C189  A    
C260  O52   A    
C26   C181  A    
C49   C123  A    
C261  O53   A    
O123  Zn13  S    
O39   Zn41  S    
C25   C250  S    
C243  O174  A    
O164  Zn26  S    
C10   C117  A    
C275  O67   A    
C4    C255  S    
Br92  C206  S    
O23   Zn42  S    
C273  O65   A    
Br93  C207  S    
C83   C202  A    
Br94  C208  S    
O153  Zn21  S    
O92   Zn4   S    
C72   C170  A    
O149  Zn45  S    
O17   Zn38  S    
C1    O1    A    
O81   Zn10  S    
C246  O12   A    
C19   C123  A    
C283  O96   A    
C20   C144  A    
C53   C143  A    
C254  O185  A    
C214  O18   A    
C35   O123  A    
O175  Zn24  S    
Br17  C131  S    
C213  O143  A    
C272  O78   A    
O169  Zn21  S    
C235  O165  A    
C267  O171  A    
O135  Zn13  S    
C55   C283  S    
Br83  C197  S    
C11   C118  A    
Br41  C155  S    
C39   C238  S    
C236  C288  S    
C38   C219  S    
C100  C210  A    
C17   C211  S    
O155  Zn25  S    
C221  O37   A    
C90   O133  A    
C268  O70   A    
C251  O29   A    
Br7   C121  S    
C285  O92   A    
O101  Zn3   S    
O178  Zn27  S    
C135  O114  A    
C284  O93   A    
Br57  C171  S    
C88   C192  A    
C6    C170  A    
Br62  C176  S    
C257  O187  A    
Br23  C107  S    
O185  Zn18  S    
C48   C132  A    
Br33  C148  S    
C8    C115  A    
Br29  C143  S    
C57   O108  A    
C234  O136  A    
C21   C220  S    
