data_mof_unit_54130.cif
_audit_creation_date              2013-03-05T16:04:20-0500
_audit_creation_method            fapswitch 2.2
_symmetry_space_group_name_H-M    P1
_symmetry_Int_Tables_number       1
_space_group_crystal_system       triclinic
_cell_length_a                    9.530809
_cell_length_b                    10.822405
_cell_length_c                    13.448525
_cell_angle_alpha                 90.606368
_cell_angle_beta                  72.37487
_cell_angle_gamma                 90.290094
_cell_volume                      1321.97233559

loop_
_atom_site_label
_atom_site_type_symbol
_atom_site_description
_atom_site_fract_x
_atom_site_fract_y
_atom_site_fract_z
_atom_type_partial_charge
O1    O     O_R   0.381250 0.680340 0.500010 -0.590002
O2    O     O_R   0.618820 0.680370 0.500010 -0.583141
C1    C     C_R   0.500074 0.737865 0.500513 0.787422
O3    O     O_R   0.323240 0.499950 0.650980 -0.588455
O4    O     O_R   0.560810 0.499980 0.650980 -0.590200
C2    C     C_R   0.421062 0.495033 0.700169 0.772836
Cu1   Cu    Cu3+1 0.359340 0.499980 0.500000 0.994383
Cu2   Cu    Cu3+1 0.640660 0.500020 0.500000 0.977070
O5    O     O_R   0.381180 0.319630 0.499990 -0.547126
O6    O     O_R   0.618750 0.319660 0.499990 -0.606073
O7    O     O_R   0.439190 0.500020 0.349020 -0.549870
O8    O     O_R   0.676760 0.500050 0.349020 -0.532067
C3    C     C_R   0.499613 0.262122 0.500468 0.799525
C4    C     C_R   0.579578 0.498553 0.299551 0.847033
C5    C     C_R   0.784506 0.390919 0.025866 -0.256296
H1    H     H_    0.795532 0.310887 0.836985 0.147783
H2    H     H_    0.887701 0.347272 0.983255 0.174939
C6    C     C_R   0.626868 0.483797 0.185141 -0.169664
C7    C     C_R   0.235159 0.545776 0.867936 -0.217724
C8    C     C_R   0.195219 0.566434 0.974766 -0.100882
C9    C     C_R   0.293777 0.541383 0.029933 -0.094397
C10   C     C_R   0.433859 0.489441 0.979359 0.080745
C11   C     C_R   0.467392 0.456081 0.872320 0.079270
C12   C     C_R   0.541893 0.469290 0.031097 0.089785
C13   C     C_R   0.674887 0.407848 0.977721 0.095460
C14   C     C_R   0.697236 0.362826 0.876812 -0.207123
C15   C     C_R   0.594028 0.384574 0.825498 -0.189245
C16   C     C_R   0.522632 0.509129 0.133967 -0.223799
C17   C     C_R   0.763022 0.429832 0.128716 0.333298
C18   C     C_R   0.372610 0.494394 0.815070 -0.099570
H3    H     H_    0.425627 0.558914 0.177443 0.174267
H4    H     H_    0.159849 0.573804 0.826117 0.154687
H5    H     H_    0.255560 0.561970 0.112235 0.176744
H6    H     H_    0.088864 0.606400 0.014528 0.176234
H7    H     H_    0.614178 0.342543 0.749249 0.167884
C19   C     C_R   0.633414 0.936438 0.478495 -0.170043
H8    H     H_    0.737825 0.888452 0.459562 0.163682
C20   C     C_R   0.633172 0.064311 0.478261 -0.167947
H9    H     H_    0.737515 0.112879 0.459039 0.166798
C21   C     C_R   0.499444 0.128261 0.501507 -0.024019
C22   C     C_R   0.365962 0.063514 0.526161 -0.120000
H10   H     H_    0.261492 0.111422 0.546732 0.176882
C23   C     C_R   0.366230 0.935649 0.525604 -0.175740
H11   H     H_    0.261911 0.887047 0.544878 0.150468
C24   C     C_R   0.499985 0.871713 0.501513 -0.028736
C25   C     C_R   0.898402 0.576938 0.565210 -0.034736
H12   H     H_    0.820567 0.638683 0.617475 0.140508
C26   C     C_R   0.047078 0.576687 0.565393 -0.105894
H13   H     H_    0.081146 0.638127 0.617783 0.138541
N1    N     N_R   0.147940 0.499970 0.499970 -0.223462
C27   C     C_R   0.100374 0.422672 0.434518 0.437231
C28   C     C_R   0.951633 0.422937 0.435332 -0.010904
H14   H     H_    0.916084 0.360972 0.383994 0.189057
N2    N     N_R   0.852060 0.500060 0.499990 -0.192511
N3    N     N_R   0.879881 0.412930 0.173855 0.114536
O9    O     O_R   0.937455 0.508890 0.205864 -0.382972
O10   O     O_R   0.950056 0.308299 0.161029 -0.342692
N4    N     N_R   0.199394 0.340279 0.363952 0.140096
O11   O     O_R   0.201945 0.225336 0.390546 -0.383591
O12   O     O_R   0.241679 0.366665 0.265172 -0.338283

loop_
_geom_bond_atom_site_label_1
_geom_bond_atom_site_label_2
_geom_bond_distance
_ccdc_geom_bond_type
O4    Cu2   1.940665 S    
Cu1   O7    1.940666 S    
N3    O9    1.301060 A    
C5    H2    1.084677 S    
C11   C15   1.411025 A    
C23   C24   1.401046 A    
C22   H10   1.082648 S    
C4    C6    1.473659 S    
C7    C8    1.386328 A    
O8    C4    1.293643 A    
Cu2   O8    1.953995 S    
C8    H6    1.082505 S    
C25   N2    1.368235 A    
C19   C20   1.383943 A    
N1    C27   1.379258 A    
C13   C14   1.391553 A    
C1    C24   1.448482 S    
C19   C24   1.400306 A    
C6    C17   1.415200 A    
C9    C10   1.417987 A    
C12   C13   1.418280 A    
C20   C21   1.401510 A    
C22   C23   1.383753 A    
C14   C15   1.384226 A    
O4    C2    1.296505 A    
O3    Cu1   1.953993 S    
C26   H13   1.081855 S    
C7    H4    1.083404 S    
C26   N1    1.366740 A    
C19   H8    1.083410 S    
C2    C18   1.472808 S    
C28   N2    1.358801 A    
C5    C17   1.396239 A    
O2    C1    1.292465 A    
N3    O10   1.301148 A    
C23   H11   1.083467 S    
H1    C14   1.084259 S    
C20   H9    1.083510 S    
O7    C4    1.301564 A    
C10   C12   1.425208 A    
C5    C13   1.399444 A    
O3    C2    1.297849 A    
C9    H5    1.076499 S    
N4    O12   1.300534 A    
C27   C28   1.414366 A    
C11   C18   1.418621 A    
Cu1   O5    1.963930 S    
Cu1   Cu2   2.681206 S    
C6    C16   1.398762 A    
C8    C9    1.391097 A    
Cu2   O6    1.962019 S    
C25   H12   1.081760 S    
Cu2   N2    2.014770 S    
C27   N4    1.426409 S    
O5    C3    1.293478 A    
C10   C11   1.419957 A    
C21   C22   1.399953 A    
C3    C21   1.448894 S    
C17   N3    1.433979 S    
C15   H7    1.080316 S    
N4    O11   1.300352 A    
O1    Cu1   1.962019 S    
C7    C18   1.402073 A    
C25   C26   1.417774 A    
C16   H3    1.076079 S    
O2    Cu2   1.963932 S    
C12   C16   1.402823 A    
Cu1   N1    2.014935 S    
C28   H14   1.082003 S    
O1    C1    1.291349 A    
O6    C3    1.290585 A    
