data_mof_unit_18317.cif
_audit_creation_date              2012-12-10T16:56:35-0500
_audit_creation_method            fapswitch 2.2
_symmetry_space_group_name_H-M    P1
_symmetry_Int_Tables_number       1
_space_group_crystal_system       triclinic
_cell_length_a                    7.770131
_cell_length_b                    8.595708
_cell_length_c                    15.700014
_cell_angle_alpha                 90.945753
_cell_angle_beta                  86.211492
_cell_angle_gamma                 93.062485
_cell_volume                      1044.72610271

loop_
_atom_site_label
_atom_site_type_symbol
_atom_type_description
_atom_site_fract_x
_atom_site_fract_y
_atom_site_fract_z
_atom_type_partial_charge
C1    C     C_R   0.544554 0.794297 0.499239 0.917811
C2    C     C_3   0.363048 0.415553 0.029469 0.645565
C3    C     C_1   0.507982 0.499038 0.750666 -0.154553
C4    C     C_1   0.492018 0.500961 0.249334 -0.154554
C5    C     C_3   0.354868 0.561444 0.974557 -0.326263
C6    C     C_3   0.645132 0.438556 0.025443 -0.326264
C7    C     C_3   0.504642 0.498356 0.916953 0.057322
C8    C     C_3   0.495358 0.501644 0.083047 0.057322
C9    C     C_1   0.508799 0.498505 0.825970 0.020408
C10   C     C_1   0.491201 0.501495 0.174030 0.020408
C11   C     C_3   0.880058 0.737590 0.996362 -0.322562
C12   C     C_R   0.455446 0.205702 0.500761 0.917809
C13   C     C_3   0.119942 0.262410 0.003638 -0.322564
C14   C     C_2   0.679690 0.009062 0.582871 0.469463
C15   C     C_2   0.320310 0.990938 0.417129 0.469463
C16   C     C_R   0.502634 0.499952 0.661947 0.888222
C17   C     C_R   0.497366 0.500048 0.338053 0.888221
C18   C     C_2   0.560841 0.955851 0.515300 -0.276198
C19   C     C_2   0.439159 0.044149 0.484701 -0.276197
C20   C     C_3   0.489814 0.649207 0.029014 -0.325909
C21   C     C_3   0.510186 0.350793 0.970986 -0.325910
C22   C     C_3   0.636952 0.584447 0.970530 0.645565
H1    H     H_    0.482975 0.769937 0.054766 0.163938
H2    H     H_    0.194953 0.181817 0.961367 0.163932
H3    H     H_    0.066295 0.354028 0.965445 0.172214
H4    H     H_    0.009284 0.192990 0.034550 0.193865
H5    H     H_    0.656092 0.113201 0.620945 0.067597
H6    H     H_    0.343909 0.886800 0.379054 0.067596
H7    H     H_    0.517025 0.230063 0.945234 0.163938
H8    H     H_    0.762873 0.390660 0.048818 0.167752
H9    H     H_    0.237127 0.609340 0.951182 0.167752
H10   H     H_    0.013603 0.381987 0.436389 0.229455
H11   H     H_    0.986397 0.618013 0.563611 0.229455
H12   H     H_    0.933705 0.645971 0.034555 0.172213
H13   H     H_    0.805048 0.818182 0.038633 0.163931
H14   H     H_    0.990717 0.807009 0.965450 0.193865
N1    N     N_2   0.950320 0.457950 0.477300 -0.164458
N2    N     N_2   0.049680 0.542050 0.522700 -0.164457
O1    O     O_R   0.389250 0.738570 0.505570 -0.636641
O2    O     O_3   0.220456 0.328328 0.067806 -0.598805
O3    O     O_2   0.803700 0.934817 0.597874 -0.550328
O4    O     O_2   0.196298 0.065180 0.402128 -0.550328
O5    O     O_R   0.610750 0.261430 0.494430 -0.636642
O6    O     O_R   0.678390 0.711630 0.491020 -0.570955
O7    O     O_R   0.321610 0.288370 0.508980 -0.570956
O8    O     O_R   0.355460 0.513480 0.630490 -0.611387
O9    O     O_R   0.644540 0.486520 0.369510 -0.611386
O10   O     O_R   0.644600 0.486540 0.615950 -0.617628
O11   O     O_R   0.355400 0.513460 0.384050 -0.617628
O12   O     O_3   0.779544 0.671672 0.932194 -0.598805
Zn1   Zn    Zn3+2 0.306940 0.517990 0.509710 0.998150
Zn2   Zn    Zn3+2 0.693060 0.482010 0.490290 0.998150

loop_
_geom_bond_atom_site_label_1
_geom_bond_atom_site_label_2
_ccdc_geom_bond_type
O6    Zn2   S    
O1    Zn1   S    
O9    Zn2   S    
C3    C9    T    
C14   H5    S    
C7    C22   S    
C14   C18   S    
C1    O6    A    
H11   N2    S    
C20   H1    S    
C22   O12   S    
C16   O10   A    
C2    C21   S    
C11   H13   S    
C15   H6    S    
C11   O12   S    
C8    C20   S    
H10   N1    S    
C15   C19   S    
C13   H3    S    
C1    C18   S    
N1    N2    D    
C17   O11   A    
C14   O3    D    
C4    C17   S    
C12   C19   S    
C8    C10   S    
C11   H14   S    
C6    H8    S    
C20   C22   S    
C12   O5    A    
O5    Zn2   S    
C5    C20   S    
C13   H4    S    
C2    C5    S    
O7    Zn1   S    
C4    C10   T    
C6    C22   S    
C2    O2    S    
O10   Zn2   S    
C13   H2    S    
C7    C9    S    
C18   C19   D    
C16   O8    A    
C5    C7    S    
N1    Zn2   S    
C1    O1    A    
C13   O2    S    
C6    C8    S    
N2    Zn1   S    
C5    H9    S    
C7    C21   S    
C6    C21   S    
C21   H7    S    
O8    Zn1   S    
C11   H12   S    
C2    C8    S    
C3    C16   S    
C17   O9    A    
C15   O4    D    
C12   O7    A    
O11   Zn1   S    
