data_mof_unit_27024.cif
_audit_creation_date              2012-12-10T18:07:37-0500
_audit_creation_method            fapswitch 2.2
_symmetry_space_group_name_H-M    P1
_symmetry_Int_Tables_number       1
_space_group_crystal_system       triclinic
_cell_length_a                    11.521095
_cell_length_b                    12.657747
_cell_length_c                    13.012769
_cell_angle_alpha                 81.79509
_cell_angle_beta                  91.206849
_cell_angle_gamma                 102.980351
_cell_volume                      1830.12864225

loop_
_atom_site_label
_atom_site_type_symbol
_atom_type_description
_atom_site_fract_x
_atom_site_fract_y
_atom_site_fract_z
_atom_type_partial_charge
C1    C     C_R   0.486692 0.438739 0.691694 0.922572
C2    C     C_R   0.687285 0.616367 0.907279 -0.273624
C3    C     C_R   0.643795 0.527667 0.855118 0.398324
C4    C     C_R   0.717832 0.501356 0.499671 0.977768
C5    C     C_R   0.484171 0.543128 0.129710 -0.159505
C6    C     C_R   0.657735 0.682245 0.167330 0.438447
C7    C     C_R   0.464938 0.400869 0.802074 -0.039669
C8    C     C_R   0.282534 0.072704 0.420416 -0.102148
C9    C     C_R   0.662370 0.804597 0.606226 -0.036381
C10   C     C_R   0.721696 0.913330 0.600583 -0.272682
C11   C     C_R   0.672651 0.995514 0.545168 0.473896
C12   C     C_R   0.553172 0.601758 0.200795 -0.182107
C13   C     C_R   0.551253 0.967580 0.512797 -0.127515
C14   C     C_R   0.501144 0.854478 0.508617 0.035864
C15   C     C_R   0.476229 0.042565 0.483205 -0.051407
C16   C     C_R   0.522884 0.561684 0.309369 0.954092
C17   C     C_R   0.354004 0.000970 0.461011 -0.023980
C18   C     C_R   0.308964 0.887608 0.475405 0.323463
C19   C     C_R   0.389087 0.824148 0.461120 0.352368
C20   C     C_R   0.511017 0.155405 0.485494 0.112016
C21   C     C_R   0.329770 0.184159 0.409214 -0.002010
C22   C     C_R   0.282093 0.498373 0.499869 0.923205
C23   C     C_R   0.356795 0.327493 0.829701 -0.229593
C24   C     C_1   0.838924 0.502692 0.499191 0.017638
C25   C     C_1   0.940584 0.500062 0.498236 0.106708
C26   C     C_1   0.058450 0.496226 0.497575 0.115018
C27   C     C_1   0.160687 0.495533 0.498202 -0.038921
C28   C     C_R   0.690374 0.697454 0.062596 -0.195904
C29   C     C_R   0.292755 0.340032 0.914460 -0.182597
C30   C     C_R   0.335927 0.425764 0.971875 0.341080
C31   C     C_R   0.457904 0.484131 0.958210 -0.056103
C32   C     C_R   0.523916 0.468120 0.872825 -0.066780
C33   C     C_R   0.518581 0.555755 0.026142 0.106814
C34   C     C_R   0.628426 0.628254 0.995426 0.024331
H1    H     H_    0.588500 0.191284 0.525613 0.196334
H2    H     H_    0.787476 0.252873 0.374108 0.387906
H3    H     H_    0.811004 0.932138 0.631133 0.217895
H4    H     H_    0.308749 0.870757 0.187087 0.406125
H5    H     H_    0.411992 0.476477 0.159443 0.215337
H6    H     H_    0.176902 0.319764 0.143642 0.354850
H7    H     H_    0.906567 0.525972 0.886480 0.383900
H8    H     H_    0.274840 0.240686 0.380466 0.169333
H9    H     H_    0.705655 0.741305 0.641656 0.196538
H10   H     H_    0.776698 0.664929 0.889519 0.178885
H11   H     H_    0.774366 0.752060 0.036724 0.198079
H12   H     H_    0.312681 0.272948 0.776680 0.185498
H13   H     H_    0.202499 0.291805 0.926631 0.200300
H14   H     H_    0.787335 0.813609 0.393767 0.395325
H15   H     H_    0.060618 0.693256 0.607356 0.397753
H16   H     H_    0.192603 0.043725 0.394711 0.225185
N1    N     N_R   0.440320 0.222190 0.444690 -0.128066
N2    N     N_R   0.559060 0.776980 0.554780 -0.112997
O1    O     O_R   0.471500 0.366730 0.627160 -0.604012
O2    O     O_2   0.859307 0.832084 0.192297 -0.233510
O3    O     O_3   0.717229 0.790246 0.350268 -0.473124
O4    O     O_2   0.090394 0.900726 0.535733 -0.299904
O5    O     O_2   0.100939 0.793103 0.394787 -0.182688
O6    O     O_3   0.144503 0.711925 0.582727 -0.568126
O7    O     O_2   0.791929 0.195649 0.578410 -0.308446
O8    O     O_2   0.896562 0.092292 0.482751 -0.244406
O9    O     O_3   0.735329 0.178362 0.384839 -0.531633
O10   O     O_2   0.509369 0.830173 0.283096 -0.236169
O11   O     O_2   0.323113 0.689207 0.316719 -0.273328
O12   O     O_R   0.509620 0.544830 0.662520 -0.625542
O13   O     O_3   0.310212 0.889260 0.258610 -0.520310
O14   O     O_2   0.264652 0.590168 0.047276 -0.221332
O15   O     O_2   0.111857 0.453926 0.976412 -0.241393
O16   O     O_3   0.197236 0.397204 0.155907 -0.533842
O17   O     O_2   0.703328 0.380418 0.741645 -0.270389
O18   O     O_2   0.813095 0.572426 0.707727 -0.379517
O19   O     O_3   0.855738 0.453896 0.876759 -0.448614
O20   O     O_R   0.646490 0.410960 0.482310 -0.619853
O21   O     O_R   0.684610 0.589050 0.517670 -0.586455
O22   O     O_R   0.490380 0.455170 0.337480 -0.628125
O23   O     O_R   0.528500 0.633270 0.372840 -0.499459
O24   O     O_R   0.315390 0.410950 0.482330 -0.631993
O25   O     O_R   0.353510 0.589040 0.517690 -0.581970
O26   O     O_2   0.832543 0.652503 0.297179 -0.329954
S1    S     S_3+6 0.769883 0.740329 0.252526 0.083847
S2    S     S_3+6 0.155812 0.824829 0.494873 0.058341
S3    S     S_3+6 0.777797 0.118459 0.498892 0.030576
S4    S     S_3+6 0.385770 0.804449 0.328104 0.100153
S5    S     S_3+6 0.225346 0.470593 0.037191 0.051555
S6    S     S_3+6 0.752961 0.482008 0.789705 0.028859
Zn1   Zn    Zn3+2 0.474550 0.381080 0.476390 1.002127
Zn2   Zn    Zn3+2 0.525450 0.618920 0.523610 1.067783

loop_
_geom_bond_atom_site_label_1
_geom_bond_atom_site_label_2
_ccdc_geom_bond_type
H14   O3    S    
O15   S5    D    
C16   O23   A    
C22   O24   A    
N1    Zn1   S    
O20   Zn1   S    
O13   S4    S    
C11   S3    S    
C26   C27   T    
C29   H13   S    
C10   H3    S    
C16   O22   A    
C23   C29   A    
O2    S1    D    
C20   N1    A    
C6    C12   A    
C30   C31   A    
C4    C24   S    
C17   C18   A    
C18   C19   A    
C30   S5    S    
C1    O1    A    
O14   S5    D    
C20   H1    S    
C6    C28   A    
C12   C16   S    
C2    H10   S    
C5    C33   A    
C31   C33   A    
C19   S4    S    
O18   S6    D    
C9    C10   A    
O6    S2    S    
H7    O19   S    
C2    C34   A    
O10   S4    D    
C28   C34   A    
C23   H12   S    
C13   C14   A    
O5    S2    D    
C9    N2    A    
O12   Zn2   S    
C8    C21   A    
C15   C20   A    
C14   N2    A    
C28   H11   S    
C9    H9    S    
O11   S4    D    
C24   C25   T    
C5    C12   A    
O26   S1    D    
C25   C26   S    
H15   O6    S    
C29   C30   A    
O3    S1    S    
O8    S3    D    
O23   Zn2   S    
C31   C32   A    
H4    O13   S    
C4    O20   A    
C33   C34   A    
C4    O21   A    
O25   Zn2   S    
C22   C27   S    
C5    H5    S    
H2    O9    S    
C1    O12   A    
C8    H16   S    
C21   N1    A    
O19   S6    S    
C15   C17   A    
C7    C32   A    
C1    C7    S    
O16   S5    S    
C14   C19   A    
O7    S3    D    
C22   O25   A    
C8    C17   A    
O4    S2    D    
C13   C15   A    
C2    C3    A    
O17   S6    D    
O9    S3    S    
C11   C13   A    
C6    S1    S    
C7    C23   A    
N2    Zn2   S    
O22   Zn1   S    
C3    C32   A    
O21   Zn2   S    
C10   C11   A    
C21   H8    S    
C18   S2    S    
H6    O16   S    
C3    S6    S    
O1    Zn1   S    
O24   Zn1   S    
