data_mof_unit_55077.cif
_audit_creation_date              2012-12-10T16:41:52-0500
_audit_creation_method            fapswitch 2.2
_symmetry_space_group_name_H-M    P1
_symmetry_Int_Tables_number       1
_space_group_crystal_system       triclinic
_cell_length_a                    10.863036
_cell_length_b                    8.712318
_cell_length_c                    7.439769
_cell_angle_alpha                 102.82847
_cell_angle_beta                  93.97102
_cell_angle_gamma                 92.538551
_cell_volume                      683.602889651

loop_
_atom_site_label
_atom_site_type_symbol
_atom_type_description
_atom_site_fract_x
_atom_site_fract_y
_atom_site_fract_z
_atom_type_partial_charge
C1    C     C_R   0.499761 0.200132 0.454335 0.901367
C2    C     C_2   0.530965 0.967033 0.573131 -0.025935
C3    C     C_R   0.265099 0.489618 0.501166 0.856755
C4    C     C_R   0.510240 0.799987 0.546423 0.826169
C5    C     C_R   0.734500 0.506988 0.498040 0.738131
C6    C     C_2   0.920794 0.411517 0.378271 -0.373640
C7    C     C_2   0.867430 0.527241 0.491083 0.316542
C8    C     C_2   0.054400 0.419339 0.353852 0.547517
C9    C     C_2   0.132521 0.467144 0.506673 -0.326194
C10   C     C_2   0.495996 0.033028 0.433070 -0.397080
Cu1   Cu    Cu3+1 0.513740 0.517380 0.684380 0.987262
Cu2   Cu    Cu3+1 0.486260 0.482620 0.315620 1.001588
H1    H     H_    0.864452 0.310799 0.295625 0.143290
H2    H     H_    0.098098 0.489327 0.643138 0.147672
H3    H     H_    0.456532 0.962128 0.300681 0.175782
H4    H     H_    0.403366 0.378430 0.948754 0.245447
H5    H     H_    0.596602 0.621610 0.051258 0.227408
N1    N     N_2   0.465540 0.456420 0.038510 -0.189625
N2    N     N_2   0.534460 0.543580 0.961490 -0.203484
O1    O     O_R   0.508930 0.286130 0.619780 -0.556304
O2    O     O_R   0.485720 0.256780 0.308360 -0.564636
O3    O     O_R   0.333540 0.514670 0.655670 -0.598643
O4    O     O_R   0.310330 0.485320 0.344250 -0.519267
O5    O     O_R   0.514280 0.743220 0.691640 -0.560164
O6    O     O_R   0.491070 0.713870 0.380220 -0.603258
O7    O     O_R   0.689670 0.514680 0.655750 -0.576913
O8    O     O_R   0.666460 0.485330 0.344330 -0.599943
O9    O     O_3   0.938208 0.660907 0.591204 -0.598162
C11   C     C_3   0.867919 0.794424 0.637029 -0.263872
H6    H     H_    0.809386 0.784794 0.751091 0.190701
H7    H     H_    0.811085 0.813740 0.514478 0.142355
H8    H     H_    0.932304 0.900062 0.687554 0.197013
O10   O     O_3   0.101136 0.362694 0.182956 -0.566458
C12   C     C_3   0.020104 0.382620 0.034300 -0.251340
H9    H     H_    0.987073 0.504167 0.057920 0.174144
H10   H     H_    0.941091 0.292971 0.006979 0.173199
H11   H     H_    0.071201 0.363779 0.908045 0.175688
I1    I     I_    0.627601 0.083739 0.834369 -0.393113

loop_
_geom_bond_atom_site_label_1
_geom_bond_atom_site_label_2
_ccdc_geom_bond_type
C8    C9    D    
C2    C4    S    
C9    H2    S    
C1    O2    A    
C6    C7    D    
C3    C9    S    
C12   H11   S    
C2    I1    S    
Cu1   O3    S    
C3    O4    A    
Cu2   O6    S    
Cu1   Cu2   S    
C4    O6    A    
C11   H7    S    
C6    H1    S    
Cu2   O4    S    
Cu1   N2    S    
C11   H6    S    
O9    C11   S    
H5    N2    S    
O10   C12   S    
C11   H8    S    
C12   H10   S    
C10   H3    S    
C4    O5    A    
Cu1   O1    S    
C1    C10   S    
Cu2   O8    S    
C5    O7    A    
C2    C10   D    
Cu1   O5    S    
H4    N1    S    
C12   H9    S    
Cu2   N1    S    
C5    C7    S    
N1    N2    D    
C3    O3    A    
C6    C8    S    
Cu1   O7    S    
C5    O8    A    
Cu2   O2    S    
C7    O9    S    
C8    O10   S    
C1    O1    A    
