data_mof_unit_27537.cif
_audit_creation_date              2012-10-26T20:32:22-0400
_audit_creation_method            fapswitch 2.2
_symmetry_space_group_name_H-M    P1
_symmetry_Int_Tables_number       1
_space_group_crystal_system       triclinic
_cell_length_a                    19.319884
_cell_length_b                    10.815081
_cell_length_c                    9.546096
_cell_angle_alpha                 89.941628
_cell_angle_beta                  89.760564
_cell_angle_gamma                 90.366197
_cell_volume                      1994.56038281

loop_
_atom_site_label
_atom_site_type_symbol
_atom_type_description
_atom_site_fract_x
_atom_site_fract_y
_atom_site_fract_z
_atom_type_partial_charge
C1    C     C_R   0.498871 0.262349 0.500026 0.538007
C2    C     C_R   0.852726 0.482842 0.496130 -0.013744
C3    C     C_R   0.496177 0.063539 0.625783 0.105808
C4    C     C_R   0.367371 0.499646 0.500460 0.544392
C5    C     C_R   0.492621 0.129178 0.500177 -0.027487
C6    C     C_R   0.480315 0.064355 0.375036 -0.176448
C7    C     C_R   0.480819 0.935487 0.374867 -0.165267
C8    C     C_R   0.493440 0.870797 0.499914 -0.012676
C9    C     C_R   0.496631 0.936296 0.625581 -0.010731
C10   C     C_3   0.549053 0.930773 0.739995 -0.240870
C11   C     C_3   0.548561 0.071514 0.740196 0.167660
C12   C     C_R   0.291215 0.498099 0.502652 -0.001111
C13   C     C_R   0.531675 0.593283 0.073569 0.082783
C14   C     C_R   0.461309 0.417199 0.075460 -0.008938
C15   C     C_R   0.459142 0.418923 0.924939 0.397920
C16   C     C_R   0.499337 0.737681 0.499899 0.544199
C17   C     C_R   0.533467 0.591188 0.926743 0.123588
C18   C     C_3   0.608715 0.626061 0.924434 0.130368
C19   C     C_3   0.605363 0.632399 0.083711 -0.197899
C20   C     C_R   0.632158 0.499396 0.499601 0.561598
C21   C     C_R   0.255686 0.497415 0.631111 -0.124822
C22   C     C_R   0.183186 0.494969 0.636752 0.013887
C23   C     C_R   0.929340 0.481870 0.496812 0.352805
C24   C     C_R   0.145658 0.492276 0.509152 0.049595
C25   C     C_R   0.181609 0.495008 0.381044 -0.134376
C26   C     C_R   0.253606 0.497349 0.377648 -0.145524
C27   C     C_3   0.571080 0.148572 0.959946 -0.107037
C28   C     C_3   0.355213 0.310412 0.909877 -0.124545
C29   C     C_3   0.719988 0.569389 0.869315 -0.120887
C30   C     C_3   0.148780 0.500029 0.780093 -0.245955
C31   C     C_3   0.112585 0.623821 0.807728 -0.281440
C32   C     C_3   0.163837 0.731868 0.814367 -0.425647
C33   C     C_3   0.839349 0.189429 0.572419 -0.104156
C34   C     C_R   0.069640 0.487760 0.504681 0.320293
C35   C     C_3   0.703820 0.778137 0.436068 -0.130227
C36   C     C_R   0.813137 0.393597 0.570504 0.250394
C37   C     C_R   0.740924 0.402501 0.572950 -0.168443
C38   C     C_R   0.707486 0.495677 0.498489 -0.017567
C39   C     C_R   0.746194 0.583597 0.422800 0.239830
C40   C     C_R   0.818307 0.575850 0.420817 -0.151671
Cu1   Cu    Cu3+1 0.500000 0.499980 0.640670 1.043230
Cu2   Cu    Cu3+1 0.500000 0.500020 0.359330 0.934981
H1    H     H_    0.284586 0.500619 0.727981 0.127608
H2    H     H_    0.153756 0.493467 0.282747 0.127091
H3    H     H_    0.279739 0.498182 0.277035 0.124679
H4    H     H_    0.710825 0.335619 0.632502 0.135744
H5    H     H_    0.847177 0.644688 0.361908 0.155891
H6    H     H_    0.473313 0.112625 0.276704 0.138473
H7    H     H_    0.604171 0.226007 0.921065 0.149405
H8    H     H_    0.603117 0.066002 0.983665 0.091841
H9    H     H_    0.546657 0.179042 0.059313 0.138531
H10   H     H_    0.320470 0.272780 0.827864 0.145364
H11   H     H_    0.330676 0.396026 0.951171 0.066839
H12   H     H_    0.474225 0.887252 0.276382 0.143222
H13   H     H_    0.359199 0.238997 0.993076 0.118791
H14   H     H_    0.737689 0.614176 0.967966 0.122956
H15   H     H_    0.726509 0.634036 0.779456 0.109558
H16   H     H_    0.753889 0.488635 0.851151 0.168136
H17   H     H_    0.135771 0.817913 0.841480 0.145633
H18   H     H_    0.203587 0.714651 0.895717 0.149220
H19   H     H_    0.189723 0.745464 0.711364 0.170614
H20   H     H_    0.073314 0.642829 0.726129 0.184764
H21   H     H_    0.084916 0.617511 0.909826 0.159425
H22   H     H_    0.111474 0.422538 0.792317 0.164178
H23   H     H_    0.527439 0.888434 0.837104 0.150081
H24   H     H_    0.187420 0.485366 0.864514 0.117012
H25   H     H_    0.862905 0.197708 0.466077 0.126143
H26   H     H_    0.784605 0.157667 0.564797 0.089628
H27   H     H_    0.868316 0.117304 0.629938 0.147779
H28   H     H_    0.670516 0.753933 0.527641 0.110893
H29   H     H_    0.676842 0.851305 0.376238 0.132917
H30   H     H_    0.754148 0.817133 0.472068 0.105489
H31   H     H_    0.599187 0.891787 0.704103 0.064152
H32   H     H_    0.597705 0.116621 0.704302 0.079498
H33   H     H_    0.433026 0.347846 0.134187 0.113170
H34   H     H_    0.618093 0.716360 0.871198 0.078944
H35   H     H_    0.638134 0.562527 0.136501 0.211879
H36   H     H_    0.610752 0.728081 0.124827 0.106286
N1    N     N_R   0.034742 0.559947 0.413086 -0.237796
N2    N     N_R   0.965928 0.557315 0.409588 -0.253523
N3    N     N_R   0.964571 0.408416 0.586675 -0.156568
N4    N     N_R   0.033336 0.410883 0.590119 -0.246544
N5    N     N_R   0.500440 0.500930 0.147930 -0.262953
N6    N     N_R   0.500440 0.500890 0.852020 -0.201523
O1    O     O_R   0.500000 0.319640 0.618810 -0.424916
O2    O     O_3   0.420721 0.333439 0.848849 -0.492148
O3    O     O_3   0.650807 0.527564 0.878841 -0.541256
O4    O     O_3   0.844671 0.301443 0.647249 -0.541540
O5    O     O_3   0.713883 0.675625 0.347279 -0.575072
O6    O     O_R   0.500010 0.319680 0.381230 -0.529258
O7    O     O_R   0.400140 0.499970 0.618830 -0.479405
O8    O     O_R   0.400150 0.500010 0.381250 -0.512716
O9    O     O_R   0.499990 0.680320 0.618770 -0.514576
O10   O     O_R   0.500000 0.680360 0.381190 -0.501113
O11   O     O_R   0.599850 0.499990 0.618750 -0.463547
O12   O     O_R   0.599860 0.500030 0.381170 -0.482834
O13   O     O_3   0.518460 0.120464 0.863101 -0.518418

loop_
_geom_bond_atom_site_label_1
_geom_bond_atom_site_label_2
_ccdc_geom_bond_type
C40   H5    S    
C1    O6    A    
C30   H22   S    
Cu1   Cu2   S    
N3    N4    A    
C7    C8    A    
C36   O4    S    
C16   O9    A    
C6    H6    S    
Cu2   O12   S    
C5    C6    A    
C22   C24   A    
C36   C37   A    
C33   O4    S    
C32   H19   S    
C30   C31   S    
C10   H31   S    
C18   C19   S    
C19   H35   S    
C26   H3    S    
C21   H1    S    
Cu1   O9    S    
C35   H28   S    
C8    C9    A    
C23   N2    A    
C4    C12   S    
C23   N3    A    
C9    C10   S    
C27   H8    S    
C33   H27   S    
C4    O7    A    
C20   O12   A    
C35   H29   S    
C8    C16   S    
C21   C22   A    
C31   H20   S    
C14   N5    A    
C25   H2    S    
C28   H13   S    
C27   H9    S    
C6    C7    A    
C1    O1    A    
C38   C39   A    
C13   C19   S    
C31   H21   S    
C24   C25   A    
C39   C40   A    
C25   C26   A    
Cu1   N6    S    
C12   C21   A    
C24   C34   S    
C12   C26   A    
Cu2   O6    S    
C19   H36   S    
C37   C38   A    
C3    C9    A    
C34   N1    A    
C20   C38   S    
C31   C32   S    
C17   C18   S    
C30   H24   S    
C15   O2    S    
C35   O5    S    
Cu1   O7    S    
C20   O11   A    
C29   H15   S    
C35   H30   S    
C28   O2    S    
C1    C5    S    
C32   H18   S    
C33   H25   S    
C10   H23   S    
C2    C36   A    
C27   O13   S    
C18   H34   S    
C22   C30   S    
Cu2   O10   S    
Cu2   N5    S    
C3    C5    A    
C11   H32   S    
C28   H11   S    
C15   N6    A    
C29   H14   S    
Cu1   O1    S    
C13   N5    A    
C16   O10   A    
C18   O3    S    
C32   H17   S    
C13   C17   A    
C11   O13   S    
C17   N6    A    
C14   H33   S    
C28   H10   S    
Cu1   O11   S    
Cu2   O8    S    
C29   O3    S    
C3    C11   S    
C10   C11   S    
N1    N2    A    
C2    C40   A    
C29   H16   S    
C2    C23   S    
C14   C15   A    
C34   N4    A    
C7    H12   S    
C37   H4    S    
C39   O5    S    
C27   H7    S    
C33   H26   S    
C4    O8    A    
