data_mof_unit_42406.cif
_audit_creation_date              2012-12-10T17:04:33-0500
_audit_creation_method            fapswitch 2.2
_symmetry_space_group_name_H-M    P1
_symmetry_Int_Tables_number       1
_space_group_crystal_system       triclinic
_cell_length_a                    14.933378
_cell_length_b                    10.710274
_cell_length_c                    10.020757
_cell_angle_alpha                 90.038488
_cell_angle_beta                  90.423282
_cell_angle_gamma                 90.123851
_cell_volume                      1602.6777281

loop_
_atom_site_label
_atom_site_type_symbol
_atom_type_description
_atom_site_fract_x
_atom_site_fract_y
_atom_site_fract_z
_atom_type_partial_charge
C1    C     C_R   0.503665 0.262719 0.499962 0.921186
C2    C     C_R   0.905407 0.628621 0.470502 0.000234
C3    C     C_R   0.951389 0.288298 0.527193 -0.217866
C4    C     C_R   0.044360 0.284449 0.525911 0.203145
C5    C     C_R   0.092438 0.397292 0.509696 0.124202
C6    C     C_R   0.046674 0.512160 0.490033 -0.023259
C7    C     C_R   0.094858 0.624936 0.472353 0.056097
C8    C     C_R   0.048066 0.736188 0.449777 -0.329362
C9    C     C_R   0.955083 0.738842 0.443129 0.462335
C10   C     C_R   0.185344 0.398230 0.513127 -0.315574
C11   C     C_R   0.232081 0.509026 0.497664 -0.054109
C12   C     C_R   0.327222 0.500679 0.499486 0.887101
C13   C     C_R   0.188968 0.623916 0.477048 0.164205
C14   C     C_2   0.519976 0.932434 0.390195 -0.162243
C15   C     C_2   0.495246 0.869449 0.498900 -0.318592
C16   C     C_2   0.514863 0.066677 0.387363 -0.161057
C17   C     C_2   0.517159 0.131671 0.500852 -0.334146
C18   C     C_2   0.553127 0.571398 0.924464 0.510813
C19   C     C_2   0.540154 0.584317 0.074949 -0.292788
C20   C     C_R   0.499374 0.737430 0.499877 0.899397
C21   C     C_R   0.672712 0.501289 0.500339 0.888467
C22   C     C_R   0.810614 0.627061 0.479420 0.104414
C23   C     C_R   0.767714 0.511425 0.500384 -0.064139
C24   C     C_R   0.814206 0.401016 0.515425 -0.299461
C25   C     C_R   0.906187 0.401166 0.511093 0.105459
C26   C     C_R   0.952735 0.514251 0.490044 -0.037874
H1    H     H_    0.469229 0.913388 0.587987 0.153361
H2    H     H_    0.507743 0.111586 0.290671 0.173105
H3    H     H_    0.531209 0.089537 0.597118 0.154653
H4    H     H_    0.448538 0.457261 0.898614 0.111018
H5    H     H_    0.568054 0.665199 0.125351 0.166927
H6    H     H_    0.481414 0.419857 0.101769 0.156165
H7    H     H_    0.777910 0.314102 0.530236 0.140612
H8    H     H_    0.913734 0.202637 0.541496 0.159385
H9    H     H_    0.222981 0.312869 0.527747 0.157058
H10   H     H_    0.082743 0.823907 0.436058 0.177910
H11   H     H_    0.541525 0.885137 0.299980 0.166011
N1    N     N_2   0.500970 0.501330 0.852150 -0.215402
N2    N     N_2   0.500990 0.501360 0.147810 -0.199450
O1    O     O_R   0.499990 0.319060 0.613040 -0.626309
O2    O     O_R   0.500010 0.319100 0.386900 -0.618545
O3    O     O_R   0.367830 0.499950 0.613080 -0.619090
O4    O     O_R   0.367860 0.499990 0.386940 -0.603092
O5    O     O_R   0.499990 0.680900 0.613100 -0.573978
O6    O     O_R   0.500010 0.680940 0.386960 -0.616866
O7    O     O_R   0.632140 0.500010 0.613060 -0.572552
O8    O     O_R   0.632170 0.500050 0.386920 -0.615349
Zn1   Zn    Zn3+2 0.499980 0.499970 0.650990 0.987852
Zn2   Zn    Zn3+2 0.500020 0.500030 0.349010 0.941935
C27   C     C_3   0.755004 0.745665 0.471621 -0.783300
H12   H     H_    0.683965 0.731865 0.497731 0.209919
H13   H     H_    0.780313 0.815591 0.544428 0.266542
H14   H     H_    0.755999 0.783412 0.368690 0.242464
O9    O     O_3   0.616048 0.643542 0.857264 -0.562707
C28   C     C_3   0.694946 0.661363 0.933870 0.073889
H15   H     H_    0.715319 0.574681 0.987706 0.137955
H16   H     H_    0.685411 0.738785 0.006280 0.132300
C29   C     C_3   0.771091 0.697986 0.841876 -0.789457
H17   H     H_    0.753445 0.784373 0.786547 0.253775
H18   H     H_    0.832883 0.715358 0.901435 0.197515
H19   H     H_    0.784147 0.621536 0.769866 0.266987
C30   C     C_3   0.090028 0.159527 0.542323 -0.932455
H20   H     H_    0.132259 0.139980 0.454025 0.240731
H21   H     H_    0.132263 0.160017 0.633968 0.242622
H22   H     H_    0.041069 0.081752 0.551373 0.259500
C31   C     C_3   0.242247 0.744128 0.461116 -0.909813
H23   H     H_    0.315412 0.731436 0.469749 0.236594
H24   H     H_    0.228763 0.785167 0.361265 0.239421
H25   H     H_    0.223116 0.811663 0.540001 0.238201
O10   O     O_3   0.914380 0.852525 0.418491 -0.619219
C32   C     C_3   0.922425 0.881945 0.281596 0.082921
H26   H     H_    0.891497 0.807652 0.218239 0.134304
H27   H     H_    0.993803 0.894213 0.253038 0.144248
C33   C     C_3   0.874101 0.004195 0.253744 -0.828176
H28   H     H_    0.905078 0.080695 0.313152 0.261794
H29   H     H_    0.879041 0.027591 0.146108 0.210323
H30   H     H_    0.802311 0.995832 0.280533 0.251178

loop_
_geom_bond_atom_site_label_1
_geom_bond_atom_site_label_2
_ccdc_geom_bond_type
C16   H2    S    
C7    C13   A    
C31   H24   S    
C28   H15   S    
C17   H3    S    
C19   H5    S    
C7    C8    A    
O8    Zn2   S    
C33   H29   S    
C12   O4    A    
C5    C6    A    
C31   H25   S    
C29   H18   S    
C4    C30   S    
H4    N1    S    
C18   C19   S    
C8    H10   S    
H6    N2    S    
C12   O3    A    
C1    O1    A    
C16   C17   D    
C33   H30   S    
C2    C22   A    
C27   H13   S    
C23   C24   A    
C10   H9    S    
C30   H21   S    
C20   O6    A    
C22   C27   S    
C29   H19   S    
C31   H23   S    
O2    Zn2   S    
C20   O5    A    
C13   C31   S    
C15   C20   S    
O7    Zn1   S    
C27   H14   S    
C33   H28   S    
C3    C25   A    
C9    O10   S    
C32   H27   S    
O4    Zn2   S    
C3    H8    S    
C25   C26   A    
C30   H20   S    
C15   H1    S    
O6    Zn2   S    
C27   H12   S    
C8    C9    A    
C2    C26   A    
O3    Zn1   S    
C24   C25   A    
O10   C32   S    
C19   N2    D    
C1    O2    A    
N2    Zn2   S    
C28   H16   S    
C14   C16   S    
C29   H17   S    
C3    C4    A    
C21   O7    A    
O1    Zn1   S    
O9    C28   S    
C30   H22   S    
C22   C23   A    
N1    Zn1   S    
C4    C5    A    
C32   C33   S    
C11   C12   S    
C6    C7    A    
C1    C17   S    
C24   H7    S    
C21   C23   S    
C18   N1    D    
C5    C10   A    
C14   H11   S    
C11   C13   A    
C6    C26   A    
C10   C11   A    
C18   O9    S    
C32   H26   S    
C28   C29   S    
C14   C15   D    
C2    C9    A    
O5    Zn1   S    
C21   O8    A    
