data_mof_unit_48384.cif
_audit_creation_date              2012-12-10T17:56:20-0500
_audit_creation_method            fapswitch 2.2
_symmetry_space_group_name_H-M    P1
_symmetry_Int_Tables_number       1
_space_group_crystal_system       triclinic
_cell_length_a                    13.014754
_cell_length_b                    10.8787
_cell_length_c                    9.570283
_cell_angle_alpha                 89.972385
_cell_angle_beta                  95.056232
_cell_angle_gamma                 93.106861
_cell_volume                      1347.72604039

loop_
_atom_site_label
_atom_site_type_symbol
_atom_type_description
_atom_site_fract_x
_atom_site_fract_y
_atom_site_fract_z
_atom_type_partial_charge
C1    C     C_R   0.500431 0.262206 0.499265 0.827801
C2    C     C_R   0.496377 0.737452 0.499920 0.799133
C3    C     C_R   0.491165 0.871044 0.500161 -0.183012
C4    C     C_R   0.499467 0.128088 0.496440 -0.195350
C5    C     C_R   0.424474 0.434030 0.066106 0.402103
C6    C     C_R   0.577365 0.562812 0.934995 0.428260
C7    C     C_R   0.426738 0.430828 0.916207 0.431942
C8    C     C_R   0.575782 0.565159 0.083834 0.439049
C9    C     C_R   0.301570 0.511568 0.476094 0.885118
C10   C     C_R   0.698353 0.487609 0.524546 0.866791
C11   C     C_R   0.810070 0.466907 0.535594 -0.317328
C12   C     C_R   0.189393 0.527884 0.467656 -0.282853
C13   C     C_R   0.029015 0.550267 0.322138 0.473326
C14   C     C_R   0.970203 0.433404 0.676320 0.484256
C15   C     C_R   0.136945 0.569594 0.343982 0.183258
C16   C     C_R   0.862638 0.433918 0.664111 0.250911
C17   C     C_R   0.133309 0.505446 0.585372 0.378230
C18   C     C_R   0.866122 0.477295 0.415692 0.384878
C19   C     C_R   0.026255 0.480659 0.565994 -0.213874
C20   C     C_R   0.973748 0.500511 0.432483 -0.186960
C21   C     C_R   0.490874 0.061541 0.368787 0.506343
C22   C     C_R   0.494069 0.937951 0.626658 0.480444
C23   C     C_R   0.485175 0.933611 0.372178 -0.322334
C24   C     C_R   0.505058 0.065034 0.623598 -0.333093
Cu1   Cu    Cu3+1 0.500000 0.500020 0.640660 1.063544
Cu2   Cu    Cu3+1 0.500000 0.499980 0.359340 1.070452
H1    H     H_    0.475717 0.883856 0.273817 0.191791
H2    H     H_    0.517395 0.113790 0.721981 0.189555
N1    N     N_R   0.500030 0.500030 0.852080 -0.276130
N2    N     N_R   0.499970 0.499970 0.147920 -0.276233
O1    O     O_R   0.499990 0.319660 0.618740 -0.570547
O2    O     O_R   0.500010 0.680340 0.381260 -0.589852
O3    O     O_R   0.499990 0.319630 0.381170 -0.508092
O4    O     O_R   0.500010 0.680370 0.618830 -0.557534
O5    O     O_R   0.349000 0.499990 0.599490 -0.504276
O6    O     O_R   0.651000 0.500010 0.400510 -0.505622
O7    O     O_R   0.348990 0.499960 0.361920 -0.524109
O8    O     O_R   0.651010 0.500040 0.638080 -0.502162
Cl1   Cl    Cl    0.807546 0.427075 0.249862 -0.527188
Cl2   Cl    Cl    0.190372 0.543169 0.756434 -0.595886
Cl3   Cl    Cl    0.797144 0.375577 0.806584 -0.539342
Cl4   Cl    Cl    0.202648 0.673084 0.235398 -0.627202
O9    O     O_3   0.975853 0.598548 0.204414 -0.532725
C25   C     C_3   0.994830 0.531964 0.083257 -0.021712
H3    H     H_    0.999941 0.431231 0.102253 0.149664
H4    H     H_    0.065350 0.569615 0.038088 0.195836
H5    H     H_    0.929540 0.543581 0.002646 0.244217
O10   O     O_3   0.019222 0.385827 0.797051 -0.544041
C26   C     C_3   0.043063 0.263658 0.769490 -0.223923
H6    H     H_    0.103915 0.261168 0.695046 0.165964
H7    H     H_    0.973246 0.206442 0.728817 0.164449
H8    H     H_    0.073524 0.221498 0.869107 0.175039
O11   O     O_3   0.483375 0.120394 0.240406 -0.547604
C27   C     C_3   0.580440 0.121299 0.185181 -0.227220
H9    H     H_    0.643355 0.161577 0.260745 0.176470
H10   H     H_    0.577945 0.180004 0.090376 0.193375
H11   H     H_    0.598475 0.027169 0.153127 0.128504
O12   O     O_3   0.491428 0.880758 0.755041 -0.614786
C28   C     C_3   0.387745 0.865819 0.786850 -0.238568
H12   H     H_    0.385476 0.814772 0.887037 0.195416
H13   H     H_    0.339473 0.810865 0.704856 0.193965
H14   H     H_    0.354357 0.956318 0.801481 0.141642
O13   O     O_3   0.351828 0.362641 0.132061 -0.531479
C29   C     C_3   0.250741 0.396924 0.088298 -0.143547
H15   H     H_    0.215464 0.337792 0.001117 0.188238
H16   H     H_    0.247260 0.494900 0.056138 0.210450
H17   H     H_    0.201893 0.381749 0.176531 0.150011
O14   O     O_3   0.668616 0.598364 0.878778 -0.488983
C30   C     C_3   0.676987 0.726283 0.855459 -0.142940
H18   H     H_    0.754754 0.761924 0.898728 0.156956
H19   H     H_    0.618801 0.779382 0.903694 0.148495
H20   H     H_    0.672398 0.744128 0.741189 0.178334
O15   O     O_3   0.356016 0.356924 0.833452 -0.516234
C31   C     C_3   0.372176 0.231489 0.860855 -0.224658
H21   H     H_    0.347215 0.178424 0.763842 0.160677
H22   H     H_    0.323876 0.195255 0.942852 0.185779
H23   H     H_    0.454256 0.213559 0.892811 0.138480
O16   O     O_3   0.660440 0.616517 0.164901 -0.467017
C32   C     C_3   0.652714 0.744456 0.182288 -0.192055
H24   H     H_    0.664512 0.767112 0.295654 0.174591
H25   H     H_    0.578091 0.780437 0.138508 0.085541
H26   H     H_    0.716907 0.794294 0.133753 0.157194

loop_
_geom_bond_atom_site_label_1
_geom_bond_atom_site_label_2
_ccdc_geom_bond_type
Cu1   O1    S    
C11   C18   A    
Cu2   O2    S    
C7    N1    A    
O15   C31   S    
C3    C23   A    
C19   C20   A    
O9    C25   S    
C1    O3    A    
C7    O15   S    
O11   C27   S    
C31   H22   S    
C4    C24   A    
C1    O1    A    
C5    O13   S    
C2    O2    A    
C30   H19   S    
O14   C30   S    
C26   H7    S    
C31   H23   S    
C12   C17   A    
C23   H1    S    
C18   C20   A    
C25   H5    S    
Cu1   O4    S    
C2    O4    A    
C6    O14   S    
C28   H12   S    
C8    O16   S    
C25   H4    S    
Cu1   N1    S    
C27   H10   S    
C28   H13   S    
C31   H21   S    
C29   H17   S    
C32   H25   S    
O16   C32   S    
C14   O10   S    
Cu1   Cu2   S    
C32   H24   S    
C17   Cl2   S    
C29   H16   S    
C30   H20   S    
C18   Cl1   S    
Cu1   O8    S    
C11   C16   A    
Cu2   O3    S    
C12   C15   A    
C26   H8    S    
C9    O7    A    
Cu1   O5    S    
Cu2   O6    S    
O10   C26   S    
Cu2   N2    S    
C13   C15   A    
C14   C16   A    
C13   O9    S    
C25   H3    S    
C5    C7    A    
C5    N2    A    
C27   H9    S    
C28   H14   S    
C13   C20   A    
C14   C19   A    
C24   H2    S    
C15   Cl4   S    
C22   O12   S    
C32   H26   S    
C6    C8    A    
Cu2   O7    S    
C10   O8    A    
C1    C4    S    
C8    N2    A    
C29   H15   S    
C21   C23   A    
C2    C3    S    
O12   C28   S    
C21   O11   S    
C4    C21   A    
C17   C19   A    
C22   C24   A    
C30   H18   S    
C9    C12   S    
C10   C11   S    
O13   C29   S    
C6    N1    A    
C26   H6    S    
C9    O5    A    
C3    C22   A    
C10   O6    A    
C16   Cl3   S    
C27   H11   S    
