data_mof_unit_41393.cif
_audit_creation_date              2013-03-05T15:55:00-0500
_audit_creation_method            fapswitch 2.2
_symmetry_space_group_name_H-M    P1
_symmetry_Int_Tables_number       1
_space_group_crystal_system       triclinic
_cell_length_a                    23.419427
_cell_length_b                    10.724664
_cell_length_c                    9.905918
_cell_angle_alpha                 90.575466
_cell_angle_beta                  90.688934
_cell_angle_gamma                 92.199072
_cell_volume                      2485.8752468

loop_
_atom_site_label
_atom_site_type_symbol
_atom_site_description
_atom_site_fract_x
_atom_site_fract_y
_atom_site_fract_z
_atom_type_partial_charge
O1    O     O_R   0.500000 0.316780 0.614690 -0.649377
O2    O     O_R   0.500000 0.316750 0.385360 -0.637374
C1    C     C_R   0.504848 0.260707 0.500525 0.931225
O3    O     O_R   0.416160 0.499970 0.614690 -0.633634
O4    O     O_R   0.416150 0.499950 0.385360 -0.625153
C2    C     C_R   0.389749 0.500074 0.499427 0.973864
Zn1   Zn    Zn3+2 0.500000 0.500020 0.653130 0.929407
Zn2   Zn    Zn3+2 0.500000 0.499980 0.346870 0.949898
O5    O     O_R   0.500000 0.683250 0.614640 -0.642197
O6    O     O_R   0.500000 0.683220 0.385310 -0.616950
O7    O     O_R   0.583850 0.500050 0.614640 -0.633162
O8    O     O_R   0.583840 0.500030 0.385310 -0.619813
C3    C     C_R   0.495291 0.739430 0.501287 0.869981
C4    C     C_R   0.610637 0.500844 0.500747 0.867280
C5    C     C_R   0.881029 0.617272 0.437783 0.529517
N1    N     N_R   0.852957 0.525987 0.508694 -0.360354
C6    C     C_R   0.881147 0.440180 0.581689 0.542756
C7    C     C_R   0.940887 0.448113 0.592590 -0.123784
C8    C     C_R   0.971084 0.535367 0.510131 -0.082754
C9    C     C_R   0.941143 0.619213 0.428281 -0.042083
C10   C     C_R   0.971387 0.368495 0.678475 0.326408
C11   C     C_R   0.030629 0.369020 0.672534 -0.207642
C12   C     C_R   0.060611 0.450381 0.587141 -0.062367
C13   C     C_R   0.031226 0.535881 0.507152 -0.050291
C14   C     C_R   0.062120 0.621779 0.425606 -0.063316
C15   C     C_R   0.032318 0.713097 0.352901 0.166010
C16   C     C_R   0.972028 0.702714 0.342371 0.166558
C17   C     C_R   0.119981 0.449290 0.582219 0.548062
N2    N     N_R   0.149025 0.526903 0.496931 -0.342768
C18   C     C_R   0.121961 0.610376 0.417780 0.536891
O9    O     O_2   0.850412 0.707155 0.380584 -0.553006
O10   O     O_2   0.851052 0.345683 0.639709 -0.486669
H1    H     H_    0.053278 0.306721 0.737912 0.222949
O11   O     O_2   0.148764 0.371126 0.661963 -0.541343
O12   O     O_2   0.152997 0.677619 0.328499 -0.546801
C19   C     C_R   0.243526 0.622016 0.541135 -0.076651
H2    H     H_    0.223188 0.704564 0.578080 0.156910
C20   C     C_R   0.302784 0.615631 0.544438 0.110049
C21   C     C_R   0.328008 0.505474 0.498603 -0.172971
C22   C     C_R   0.293788 0.402961 0.449272 0.237416
C23   C     C_R   0.234585 0.413483 0.444655 -0.143101
H3    H     H_    0.207279 0.336081 0.408614 0.195265
C24   C     C_R   0.209707 0.521489 0.492004 0.195991
C25   C     C_R   0.762087 0.536717 0.626242 -0.080203
H4    H     H_    0.784911 0.555882 0.720367 0.156309
C26   C     C_R   0.702820 0.528833 0.624676 -0.214623
H5    H     H_    0.680503 0.542314 0.718424 0.164418
C27   C     C_R   0.672959 0.505337 0.502809 -0.042131
C28   C     C_R   0.703117 0.488721 0.382779 -0.211953
H6    H     H_    0.680965 0.470184 0.287650 0.165390
C29   C     C_R   0.762451 0.495448 0.384852 -0.090976
H7    H     H_    0.785590 0.481585 0.292231 0.152903
C30   C     C_R   0.791969 0.519838 0.506468 0.299113
H8    H     H_    0.499900 0.109359 0.285741 0.164702
C31   C     C_R   0.531464 0.119531 0.751912 -0.148664
H9    H     H_    0.556716 0.206047 0.754984 0.165170
C32   C     C_R   0.519502 0.063044 0.874962 -0.135535
H10   H     H_    0.532886 0.108621 0.968743 0.140937
C33   C     C_R   0.488699 0.949899 0.876859 -0.165465
H11   H     H_    0.476866 0.908326 0.972176 0.141454
C34   C     C_R   0.475201 0.887609 0.755774 -0.142861
H12   H     H_    0.450733 0.800667 0.762633 0.168636
C35   C     C_R   0.491722 0.939453 0.630157 0.114274
C36   C     C_R   0.511658 0.063754 0.628557 0.097076
C37   C     C_R   0.509425 0.127517 0.503744 -0.114299
C38   C     C_R   0.500929 0.062388 0.382069 -0.179388
H13   H     H_    0.490487 0.886321 0.286644 0.167507
C39   C     C_R   0.493459 0.935324 0.382842 -0.193450
C40   C     C_R   0.490134 0.872679 0.505648 -0.132119
H14   H     H_    0.563948 0.639838 0.132605 0.159927
C41   C     C_R   0.426021 0.333461 0.136333 -0.134842
H15   H     H_    0.423192 0.329576 0.243322 0.237501
C42   C     C_R   0.390367 0.249362 0.064302 -0.160806
H16   H     H_    0.362638 0.183878 0.117221 0.213825
C43   C     C_R   0.390062 0.249622 0.924577 -0.170472
H17   H     H_    0.361996 0.184592 0.868758 0.180823
C44   C     C_R   0.425604 0.333579 0.856019 -0.116226
H18   H     H_    0.422385 0.328846 0.748881 0.227743
C45   C     C_R   0.463277 0.418177 0.925648 0.104008
C46   C     C_R   0.463402 0.418138 0.070279 0.128279
N3    N     N_R   0.499460 0.498800 0.142780 -0.140008
C47   C     C_R   0.535277 0.577290 0.075153 -0.126409
C48   C     C_R   0.535873 0.577838 0.932430 0.222433
N4    N     N_R   0.499440 0.498720 0.857170 -0.130992
N5    N     N_R   0.943630 0.291653 0.777834 0.248764
O13   O     O_R   0.912708 0.342946 0.869838 -0.341701
O14   O     O_R   0.958519 0.176991 0.793516 -0.360394
C49   C     C_3   0.578748 0.666999 0.870401 -0.847384
H19   H     H_    0.577008 0.669016 0.760371 0.296715
H20   H     H_    0.571770 0.763093 0.907567 0.224084
H21   H     H_    0.622470 0.641410 0.901200 0.212900
C50   C     C_3   0.063533 0.827712 0.296950 -0.736520
H22   H     H_    0.097390 0.862532 0.368789 0.261605
H23   H     H_    0.082150 0.805768 0.197351 0.269414
H24   H     H_    0.035052 0.907376 0.285581 0.226498
C51   C     C_3   0.942056 0.771898 0.230491 -0.730986
H25   H     H_    0.909583 0.709302 0.179091 0.259054
H26   H     H_    0.921961 0.855905 0.272049 0.273604
H27   H     H_    0.971517 0.801169 0.148849 0.226027
C52   C     C_3   0.338272 0.726715 0.596211 -0.840146
H28   H     H_    0.368759 0.758554 0.517666 0.229468
H29   H     H_    0.311449 0.806368 0.622714 0.250417
H30   H     H_    0.362139 0.700608 0.688391 0.241484
N6    N     N_R   0.317894 0.286960 0.408525 0.194752
O15   O     O_R   0.363045 0.246664 0.469397 -0.442892
O16   O     O_R   0.290115 0.212558 0.324055 -0.398644

loop_
_geom_bond_atom_site_label_1
_geom_bond_atom_site_label_2
_geom_bond_distance
_ccdc_geom_bond_type
C38   C39   1.367335 A    
C31   H9    1.080950 S    
C7    C10   1.417711 A    
C42   C43   1.384068 A    
C42   H16   1.081812 S    
C8    C9    1.416704 A    
N6    O16   1.301436 A    
N3    C47   1.353377 A    
C44   H18   1.063638 S    
Zn1   O7    2.004875 S    
C15   C16   1.414578 A    
C18   O12   1.348562 S    
O4    C2    1.294564 A    
C50   H22   1.110379 S    
C17   N2    1.361530 A    
C20   C21   1.414226 A    
O7    C4    1.297420 A    
C32   C33   1.388093 A    
C15   C50   1.518899 S    
C5    N1    1.363670 A    
C51   H27   1.109295 S    
C7    C8    1.421773 A    
C23   H3    1.083206 S    
Zn2   N3    2.021496 S    
C34   C35   1.419936 A    
O5    C3    1.285192 A    
N1    C30   1.427186 S    
C41   C46   1.408524 A    
C25   C30   1.398432 A    
C35   C40   1.419353 A    
C39   C40   1.397149 A    
C28   C29   1.388567 A    
C51   H26   1.110141 S    
C12   C13   1.411446 A    
N5    O14   1.301285 A    
C48   C49   1.501047 S    
C17   O11   1.350914 S    
C33   H11   1.082759 S    
C10   C11   1.389164 A    
N2    C24   1.425965 S    
C23   C24   1.395929 A    
C16   C51   1.519632 S    
C1    C37   1.437171 S    
O3    Zn1   1.995546 S    
C50   H23   1.110159 S    
N6    O15   1.301339 A    
C25   C26   1.387209 A    
C10   N5    1.435624 S    
C44   C45   1.410202 A    
C31   C36   1.420044 A    
C5    C9    1.411481 A    
C26   C27   1.403553 A    
C33   C34   1.394088 A    
H13   C39   1.083808 S    
C13   C14   1.415106 A    
C20   C52   1.508161 S    
C21   C22   1.414909 A    
C41   C42   1.390955 A    
N1    C6    1.361647 A    
C4    C27   1.458389 S    
C14   C15   1.421088 A    
N5    O13   1.301554 A    
C50   H24   1.109683 S    
C29   H7    1.083028 S    
O1    C1    1.283804 A    
C43   H17   1.082819 S    
N2    C18   1.365140 A    
C22   N6    1.441752 S    
C48   N4    1.385716 A    
C49   H21   1.110206 S    
Zn2   O8    1.995544 S    
C2    C21   1.449243 S    
C51   H25   1.110363 S    
C52   H29   1.110822 S    
C6    C7    1.401205 A    
C12   C17   1.392343 A    
C43   C44   1.390383 A    
O3    C2    1.292035 A    
C22   C23   1.395618 A    
C49   H20   1.109544 S    
C37   C38   1.395303 A    
Zn1   N4    2.021588 S    
C31   C32   1.393298 A    
C28   H6    1.083152 S    
C45   C46   1.432682 A    
C25   H4    1.083069 S    
C14   C18   1.414412 A    
Zn1   O5    2.005485 S    
C11   H1    1.083878 S    
C26   H5    1.082249 S    
C19   H2    1.083786 S    
O1    Zn1   1.997980 S    
O2    Zn2   2.005483 S    
O8    C4    1.297562 A    
C46   N3    1.376275 A    
O6    C3    1.299876 A    
O4    Zn2   2.004878 S    
C5    O9    1.348571 S    
H8    C38   1.083935 S    
C9    C16   1.424698 A    
C36   C37   1.420285 A    
C19   C20   1.392105 A    
C8    C13   1.408958 A    
C41   H15   1.063821 S    
C32   H10   1.082729 S    
C45   N4    1.375862 A    
C3    C40   1.439015 S    
C27   C28   1.403535 A    
C52   H28   1.109846 S    
O2    C1    1.300575 A    
C52   H30   1.108826 S    
C34   H12   1.078697 S    
H14   C47   1.083202 S    
C35   C36   1.395781 A    
C49   H19   1.090682 S    
Zn2   O6    1.997981 S    
C47   C48   1.414106 A    
C6    O10   1.349358 S    
C11   C12   1.397159 A    
C19   C24   1.393250 A    
C29   C30   1.399091 A    
