data_mof_unit_42672.cif
_audit_creation_date              2012-12-11T15:38:58-0500
_audit_creation_method            fapswitch 2.2
_symmetry_space_group_name_H-M    P1
_symmetry_Int_Tables_number       1
_space_group_crystal_system       triclinic
_cell_length_a                    14.343051
_cell_length_b                    14.779481
_cell_length_c                    33.223728
_cell_angle_alpha                 97.553928
_cell_angle_beta                  90.395529
_cell_angle_gamma                 118.914653
_cell_volume                      6091.21912698

loop_
_atom_site_label
_atom_site_type_symbol
_atom_type_description
_atom_site_fract_x
_atom_site_fract_y
_atom_site_fract_z
_atom_type_partial_charge
C1    C     C_R   0.616860 0.910376 0.436984 0.538615
C2    C     C_R   0.712150 0.437689 0.949201 0.557800
C3    C     C_R   0.740613 0.822639 0.767945 -0.060357
C4    C     C_R   0.733469 0.844630 0.729005 0.399414
C5    C     C_R   0.685974 0.763024 0.695928 0.050439
C6    C     C_R   0.645888 0.658988 0.702775 -0.087442
C7    C     C_R   0.652460 0.637050 0.742148 -0.106937
C8    C     C_R   0.700241 0.719066 0.774962 -0.043427
C9    C     C_R   0.568827 0.738068 0.634777 0.439964
C10   C     C_R   0.550958 0.773151 0.600050 0.423559
C11   C     C_R   0.738362 0.904402 0.604744 -0.174149
C12   C     C_R   0.743846 0.716373 0.946005 0.536406
C13   C     C_R   0.826507 0.429936 0.164012 -0.064465
C14   C     C_R   0.823674 0.442732 0.123229 0.389115
C15   C     C_R   0.766024 0.341253 0.244617 -0.151992
C16   C     C_R   0.758500 0.327373 0.285339 -0.056223
C17   C     C_R   0.736927 0.392849 0.313639 0.040541
C18   C     C_R   0.728893 0.475992 0.301219 0.008037
C19   C     C_R   0.735911 0.489759 0.260444 0.411904
C20   C     C_R   0.751238 0.420240 0.231704 0.029970
C21   C     C_R   0.745087 0.425776 0.188043 -0.008577
C22   C     C_R   0.609737 0.346265 0.367669 0.363609
C23   C     C_R   0.593954 0.205523 0.456523 0.566423
C24   C     C_R   0.573900 0.300102 0.402473 0.419508
C25   C     C_R   0.740742 0.298572 0.412922 -0.159444
C26   C     C_R   0.776595 0.344821 0.378203 0.339575
C27   C     C_R   0.709754 0.365470 0.354534 -0.037272
C28   C     C_R   0.637539 0.271850 0.424501 -0.104743
C29   C     C_R   0.244916 0.878310 0.393046 -0.046366
C30   C     C_R   0.231097 0.959160 0.380445 0.334401
C31   C     C_R   0.208741 0.957516 0.339288 -0.118308
C32   C     C_R   0.756242 0.868302 0.639230 -0.131502
C33   C     C_R   0.198646 0.875310 0.310249 -0.089396
C34   C     C_R   0.203792 0.790794 0.322608 0.416619
C35   C     C_R   0.295563 0.892837 0.434284 0.579650
C36   C     C_R   0.226312 0.791753 0.363703 0.362534
C37   C     C_R   0.191349 0.802418 0.163400 -0.170735
C38   C     C_R   0.162558 0.780254 0.121683 -0.168659
C39   C     C_R   0.104437 0.910421 0.128534 0.421604
C40   C     C_R   0.132791 0.931948 0.170514 0.440513
C41   C     C_R   0.172185 0.874784 0.188119 -0.028986
C42   C     C_1   0.182644 0.880975 0.231550 0.105027
C43   C     C_R   0.671055 0.787180 0.655315 -0.010502
C44   C     C_1   0.189280 0.880153 0.267613 0.102013
C45   C     C_R   0.113343 0.829748 0.104080 -0.042238
C46   C     C_R   0.637113 0.879283 0.395367 -0.048939
C47   C     C_R   0.613518 0.904803 0.551753 0.569363
C48   C     C_R   0.552007 0.801557 0.368236 -0.121954
C49   C     C_R   0.564004 0.790246 0.326535 -0.137905
C50   C     C_R   0.661171 0.855766 0.311634 0.032334
C51   C     C_R   0.748653 0.928063 0.338660 0.406639
C52   C     C_R   0.736729 0.939594 0.380354 -0.070985
C53   C     C_R   0.772382 0.924066 0.174031 -0.131306
C54   C     C_R   0.635150 0.859046 0.585327 -0.041784
C55   C     C_R   0.787925 0.911092 0.132672 0.351198
C56   C     C_R   0.616805 0.750798 0.121610 0.355515
C57   C     C_R   0.601800 0.764560 0.162926 0.423681
C58   C     C_R   0.681593 0.848685 0.189377 -0.089162
C59   C     C_R   0.589901 0.199588 0.570895 0.564550
C60   C     C_1   0.674344 0.852722 0.232492 0.109343
C61   C     C_1   0.668556 0.853763 0.268584 0.109950
C62   C     C_R   0.713053 0.820796 0.106387 -0.044638
C63   C     C_R   0.624205 0.251882 0.613661 -0.037481
C64   C     C_R   0.556852 0.279926 0.636222 -0.139089
C65   C     C_R   0.052540 0.781496 0.063772 0.563340
C66   C     C_R   0.574108 0.305947 0.678542 0.366804
C67   C     C_R   0.659264 0.304741 0.698788 -0.025363
C68   C     C_R   0.731495 0.285049 0.676516 -0.089544
C69   C     C_R   0.714811 0.259253 0.634154 0.384194
C70   C     C_R   0.758154 0.336626 0.845345 0.471480
C71   C     C_R   0.288864 0.886696 0.548406 0.549719
C72   C     C_R   0.766273 0.360605 0.887826 0.450537
C73   C     C_R   0.597529 0.361258 0.884017 -0.191210
C74   C     C_R   0.589726 0.337233 0.841745 -0.185190
C75   C     C_R   0.671881 0.329033 0.822300 -0.029743
C76   C     C_R   0.744104 0.486911 0.066294 0.563997
C77   C     C_1   0.670294 0.320397 0.778794 0.099295
C78   C     C_1   0.667073 0.314532 0.742343 0.094594
C79   C     C_R   0.688582 0.378804 0.907431 -0.040219
C80   C     C_R   0.066429 0.753004 0.907860 -0.106591
C81   C     C_R   0.107459 0.853427 0.896972 0.333094
C82   C     C_R   0.127497 0.868005 0.856684 0.354130
C83   C     C_R   0.738373 0.450959 0.106010 0.015439
C84   C     C_R   0.107453 0.782601 0.826971 -0.102148
C85   C     C_R   0.073219 0.683826 0.838286 0.354915
C86   C     C_R   0.053445 0.669138 0.878450 0.358623
C87   C     C_R   0.742482 0.789382 0.066376 0.602424
C88   C     C_R   0.178005 0.759703 0.760807 0.007032
C89   C     C_R   0.182768 0.765477 0.719432 0.459144
C90   C     C_R   0.125428 0.805440 0.700564 0.050840
C91   C     C_R   0.065301 0.841363 0.723688 -0.172579
C92   C     C_R   0.061219 0.836003 0.765189 -0.073564
C93   C     C_R   0.116966 0.794455 0.783854 0.035738
C94   C     C_R   0.182147 0.921372 0.648193 -0.172792
C95   C     C_R   0.653440 0.439229 0.129658 -0.156572
C96   C     C_R   0.223331 0.941949 0.610667 -0.136300
C97   C     C_R   0.167437 0.757911 0.590678 -0.039652
C98   C     C_R   0.021371 0.732007 0.947290 0.578256
C99   C     C_R   0.125390 0.737143 0.628078 0.464409
C100  C     C_R   0.138699 0.820025 0.657865 0.043903
C101  C     C_R   0.221875 0.861261 0.582701 -0.037650
C102  C     C_R   0.729245 0.701759 0.901232 0.008325
C103  C     C_R   0.631735 0.632417 0.878402 -0.113238
C104  C     C_R   0.622569 0.631996 0.836184 -0.089429
C105  C     C_R   0.711017 0.700232 0.816846 0.032154
C106  C     C_R   0.809649 0.762139 0.839401 -0.108519
C107  C     C_R   0.657014 0.427106 0.170317 -0.065165
C108  C     C_R   0.818524 0.763055 0.880930 -0.115204
Cr1   Cr    Cr6+3 0.424820 0.846020 0.489780 1.152850
Cr2   Cr    Cr6+3 0.657880 0.078580 0.505700 1.112048
Cr3   Cr    Cr6+3 0.417280 0.075360 0.504550 1.139801
Cr4   Cr    Cr6+3 0.903360 0.812540 0.006510 1.184355
Cr5   Cr    Cr6+3 0.914630 0.587050 0.006280 1.190614
Cr6   Cr    Cr6+3 0.673560 0.582680 0.008540 1.113858
F1    F     F_    0.474300 0.277191 0.412844 -0.499751
F2    F     F_    0.512054 0.692456 0.177506 -0.543877
F3    F     F_    0.539613 0.665554 0.097111 -0.547843
F4    F     F_    0.853285 0.372450 0.909352 -0.496121
F5    F     F_    0.874692 0.365236 0.366710 -0.559959
F6    F     F_    0.837247 0.326582 0.826629 -0.501560
F7    F     F_    0.783691 0.235290 0.613813 -0.568599
F8    F     F_    0.504256 0.326414 0.699871 -0.612232
F9    F     F_    0.123861 0.936506 0.924945 -0.539588
F10   F     F_    0.013684 0.570951 0.887641 -0.487143
F11   F     F_    0.078908 0.637621 0.636343 -0.547508
F12   F     F_    0.192013 0.709527 0.294596 -0.548633
F13   F     F_    0.246717 0.735953 0.698198 -0.532614
F14   F     F_    0.164219 0.964901 0.846476 -0.554175
F15   F     F_    0.051833 0.599787 0.809905 -0.533776
F16   F     F_    0.768740 0.945572 0.724064 -0.597775
F17   F     F_    0.484322 0.661031 0.649957 -0.537432
F18   F     F_    0.449559 0.726441 0.582452 -0.539673
F19   F     F_    0.725465 0.569397 0.248884 -0.605321
F20   F     F_    0.542890 0.364176 0.344993 -0.560213
F21   F     F_    0.235909 0.710680 0.374159 -0.539570
F22   F     F_    0.244736 0.042854 0.407410 -0.532245
F23   F     F_    0.115489 0.003645 0.194254 -0.539063
F24   F     F_    0.060776 0.962723 0.112635 -0.499090
F25   F     F_    0.906517 0.451485 0.101393 -0.579611
F26   F     F_    0.879409 0.983320 0.119223 -0.496714
F27   F     F_    0.843676 0.991287 0.324530 -0.579445
H1    H     H_    0.803723 0.999868 0.400546 0.181049
H2    H     H_    0.792231 0.279406 0.429667 0.197492
H3    H     H_    0.171787 0.718773 0.103749 0.205442
H4    H     H_    0.222649 0.758433 0.176711 0.195000
H5    H     H_    0.203325 0.022473 0.329936 0.217814
H6    H     H_    0.833609 0.990401 0.194383 0.212248
H7    H     H_    0.474196 0.754253 0.378804 0.208005
H8    H     H_    0.496092 0.733765 0.305776 0.194235
H9    H     H_    0.798139 0.285003 0.692068 0.201983
H10   H     H_    0.522238 0.330572 0.824111 0.180167
H11   H     H_    0.536050 0.374142 0.897945 0.185622
H12   H     H_    0.487100 0.275883 0.621453 0.184751
H13   H     H_    0.763657 0.261960 0.294311 0.180129
H14   H     H_    0.222810 0.729081 0.775018 0.189853
H15   H     H_    0.022291 0.874014 0.709647 0.134771
H16   H     H_    0.014131 0.863646 0.782582 0.159063
H17   H     H_    0.192495 0.985993 0.670871 0.159294
H18   H     H_    0.263983 0.022207 0.605017 0.166350
H19   H     H_    0.562209 0.582682 0.893267 0.148979
H20   H     H_    0.895074 0.815710 0.897577 0.168849
H21   H     H_    0.836058 0.906431 0.654330 0.183378
H22   H     H_    0.776148 0.886997 0.792993 0.170608
H23   H     H_    0.163113 0.694173 0.569025 0.188145
H24   H     H_    0.621491 0.556688 0.746926 0.173526
H25   H     H_    0.879053 0.814352 0.825236 0.119270
H26   H     H_    0.804774 0.969628 0.593946 0.188104
H27   H     H_    0.713500 0.527842 0.322854 0.180502
H28   H     H_    0.777835 0.287065 0.222851 0.145236
H29   H     H_    0.545606 0.583146 0.819178 0.150469
H30   H     H_    0.609043 0.594866 0.677708 0.188733
H31   H     H_    0.591953 0.420986 0.188242 0.200583
H32   H     H_    0.586382 0.444527 0.117396 0.197441
H33   H     H_    0.894234 0.427336 0.177265 0.171812
O1    O     O_R   0.318160 0.824460 0.443680 -0.448647
O2    O     O_R   0.668160 0.499860 0.053480 -0.498679
O3    O     O_R   0.689170 0.693840 0.050110 -0.444761
O4    O     O_R   0.525040 0.857250 0.449830 -0.493552
O5    O     O_R   0.803860 0.812940 0.962540 -0.473817
O6    O     O_R   0.982950 0.787950 0.964120 -0.490296
O7    O     O_R   0.007050 0.649970 0.960540 -0.418912
O8    O     O_R   0.807910 0.482370 0.965590 -0.424150
O9    O     O_R   0.643310 0.460980 0.963840 -0.525859
O10   O     O_R   0.666140 0.657800 0.967020 -0.486869
O11   O     O_3   0.830520 0.660760 0.007110 -0.352292
O12   O     O_R   0.645130 0.163230 0.552140 -0.419754
O13   O     O_R   0.684760 0.998800 0.456360 -0.511827
O14   O     O_R   0.647540 0.166310 0.470260 -0.519041
O15   O     O_R   0.500960 0.181750 0.467450 -0.398841
O16   O     O_R   0.331100 0.981120 0.457080 -0.434383
O17   O     O_R   0.315560 0.821140 0.532010 -0.465651
O18   O     O_R   0.522630 0.854180 0.531710 -0.430796
O19   O     O_R   0.682160 0.995480 0.544690 -0.482519
O20   O     O_R   0.498360 0.178430 0.555780 -0.527327
O21   O     O_R   0.328690 0.978040 0.538950 -0.507688
O22   O     O_3   0.499990 0.999990 0.500010 -0.303220
O23   O     O_R   0.828710 0.851830 0.052170 -0.402530
O24   O     O_R   0.005980 0.823990 0.047210 -0.424722
O25   O     O_R   0.031900 0.688850 0.050170 -0.495614
O26   O     O_R   0.830940 0.518420 0.048680 -0.427714

loop_
_geom_bond_atom_site_label_1
_geom_bond_atom_site_label_2
_ccdc_geom_bond_type
C41   C42   S    
C73   C74   A    
C105  C106  A    
C19   C20   A    
C8    C105  S    
C81   C82   A    
C90   C91   A    
C7    C8    A    
C99   F11   S    
C12   O10   A    
C77   C78   T    
C25   C28   A    
C29   C36   A    
Cr2   O14   S    
C26   C27   A    
C37   C38   A    
Cr6   O11   S    
C81   F9    S    
C56   F3    S    
C106  H25   S    
C22   C24   A    
C72   C79   A    
C30   C31   A    
C1    C46   S    
Cr1   O18   S    
C58   C60   S    
C15   C16   A    
C55   C62   A    
C46   C52   A    
C53   H6    S    
C56   C57   A    
C15   H28   S    
C59   O12   A    
C17   C18   A    
C18   C19   A    
C2    O8    A    
C9    F17   S    
Cr4   O24   S    
C47   O18   A    
C38   C45   A    
C80   C86   A    
C2    C79   S    
C103  C104  A    
C85   F15   S    
C65   O25   A    
C51   F27   S    
Cr1   O4    S    
Cr5   O26   S    
Cr5   O7    S    
C63   C69   A    
C70   F6    S    
C16   C17   A    
C32   H21   S    
C31   C33   A    
C102  C108  A    
C94   C100  A    
C9    C10   A    
C3    H22   S    
Cr3   O22   S    
C39   C45   A    
Cr6   O3    S    
C1    O13   A    
C66   C67   A    
C71   C101  S    
C39   F24   S    
Cr5   O11   S    
C94   H17   S    
C96   C101  A    
C11   H26   S    
C31   H5    S    
C25   H2    S    
C67   C78   S    
C42   C44   T    
C14   C83   A    
C10   C54   A    
C76   C83   S    
C90   C100  S    
C104  C105  A    
C97   C99   A    
C50   C51   A    
C57   F2    S    
C107  H31   S    
C53   C55   A    
C59   O20   A    
Cr5   O25   S    
C15   C20   A    
C46   C48   A    
Cr2   O13   S    
C9    C43   A    
C74   C75   A    
C51   C52   A    
C17   C27   S    
C88   H14   S    
C76   O2    A    
C84   C85   A    
C3    C8    A    
C76   O26   A    
C65   O24   A    
C91   C92   A    
C18   H27   S    
C68   C69   A    
C4    F16   S    
C25   C26   A    
C85   C86   A    
C64   H12   S    
C92   H16   S    
C52   H1    S    
C55   F26   S    
C67   C68   A    
C60   C61   T    
C64   C66   A    
C12   C102  S    
C29   C30   A    
C87   O3    A    
C1    O4    A    
C71   O21   A    
Cr5   O8    S    
C69   F7    S    
C34   F12   S    
C97   H23   S    
C83   C95   A    
C40   F23   S    
C12   O5    A    
Cr2   O19   S    
C66   F8    S    
C33   C34   A    
C73   C79   A    
C13   C21   A    
C23   C28   S    
C26   F5    S    
C94   C96   A    
C75   C77   S    
C82   F14   S    
C21   C107  A    
C11   C54   A    
C95   C107  A    
Cr3   O16   S    
C47   C54   S    
C23   O14   A    
C40   C41   A    
C22   F20   S    
C11   C32   A    
Cr3   O15   S    
C35   O16   A    
C30   F22   S    
C22   C27   A    
Cr4   O5    S    
C73   H11   S    
C16   H13   S    
C56   C62   A    
C74   H10   S    
C87   O23   A    
C98   O6    A    
C3    C4    A    
C36   F21   S    
Cr4   O23   S    
C23   O15   A    
Cr4   O11   S    
C13   H33   S    
C104  H29   S    
C6    H30   S    
C89   F13   S    
Cr2   O12   S    
C59   C63   S    
C88   C93   A    
C48   C49   A    
C86   F10   S    
C80   C98   S    
C20   C21   S    
C33   C44   S    
C38   H3    S    
C47   O19   A    
Cr1   O22   S    
C24   C28   A    
C80   C81   A    
C108  H20   S    
C53   C58   A    
Cr1   O1    S    
C6    C7    A    
C7    H24   S    
C49   H8    S    
C19   F19   S    
C62   C87   S    
C29   C35   S    
C82   C84   A    
C84   C93   S    
C99   C100  A    
Cr4   O6    S    
C35   O1    A    
C98   O7    A    
C95   H32   S    
C91   H15   S    
C71   O17   A    
C45   C65   S    
C57   C58   A    
C5    C6    A    
C106  C108  A    
Cr1   O17   S    
Cr6   O10   S    
C48   H7    S    
Cr6   O2    S    
C92   C93   A    
C32   C43   A    
Cr2   O22   S    
C34   C36   A    
C2    O9    A    
C37   C41   A    
C102  C103  A    
C103  H19   S    
C10   F18   S    
C14   F25   S    
C68   H9    S    
Cr3   O20   S    
C63   C64   A    
C39   C40   A    
C4    C5    A    
C96   H18   S    
C88   C89   A    
C24   F1    S    
C49   C50   A    
C72   F4    S    
C70   C75   A    
C50   C61   S    
C5    C43   S    
C70   C72   A    
C37   H4    S    
C89   C90   A    
C13   C14   A    
C97   C101  A    
Cr6   O9    S    
Cr3   O21   S    
