data_mof_unit_54346.cif
_audit_creation_date              2012-12-11T15:35:16-0500
_audit_creation_method            fapswitch 2.2
_symmetry_space_group_name_H-M    P1
_symmetry_Int_Tables_number       1
_space_group_crystal_system       triclinic
_cell_length_a                    17.402975
_cell_length_b                    24.256498
_cell_length_c                    14.838713
_cell_angle_alpha                 89.75111
_cell_angle_beta                  124.158089
_cell_angle_gamma                 90.796642
_cell_volume                      5182.81365059

loop_
_atom_site_label
_atom_site_type_symbol
_atom_type_description
_atom_site_fract_x
_atom_site_fract_y
_atom_site_fract_z
_atom_type_partial_charge
C1    C     C_R   0.368588 0.156665 0.918995 0.198956
C2    C     C_R   0.371914 0.842557 0.916873 0.172810
C3    C     C_R   0.868581 0.656663 0.918991 0.198933
C4    C     C_R   0.871941 0.342552 0.916885 0.172734
C5    C     C_R   0.690338 0.121090 0.093017 -0.141687
C6    C     C_R   0.685399 0.872727 0.095654 -0.168452
C7    C     C_R   0.190338 0.621088 0.093016 -0.141683
C8    C     C_R   0.185397 0.372724 0.095652 -0.168420
C9    C     C_R   0.601386 0.871647 0.913746 0.255754
C10   C     C_R   0.601487 0.127804 0.911988 0.244964
C11   C     C_R   0.101381 0.371644 0.913743 0.255707
C12   C     C_R   0.101488 0.627802 0.911987 0.244981
C13   C     C_R   0.421690 0.999700 0.627098 0.003908
C14   C     C_R   0.921688 0.499699 0.627097 0.003895
C15   C     C_R   0.790546 0.999425 0.370218 0.012603
C16   C     C_R   0.290538 0.499430 0.370225 0.012602
C17   C     C_R   0.692634 0.135589 0.004754 0.002141
C18   C     C_R   0.684645 0.856629 0.007739 -0.033126
C19   C     C_R   0.192635 0.635586 0.004751 0.002137
C20   C     C_R   0.184640 0.356625 0.007734 -0.033121
C21   C     C_3   0.017243 0.946514 0.616222 -0.362444
C22   C     C_3   0.018377 0.049365 0.619123 -0.366355
C23   C     C_3   0.517206 0.446544 0.616307 -0.362399
C24   C     C_3   0.518380 0.549404 0.619078 -0.366332
C25   C     C_3   0.912624 0.946023 0.529434 -0.424732
C26   C     C_3   0.912719 0.046699 0.541065 -0.441345
C27   C     C_3   0.412572 0.446081 0.529579 -0.424691
C28   C     C_3   0.412729 0.546766 0.540976 -0.441326
C29   C     C_3   0.048530 0.999530 0.494104 -0.441172
C30   C     C_3   0.548534 0.499484 0.494152 -0.441223
C31   C     C_3   0.066696 0.998485 0.608521 0.383962
C32   C     C_3   0.566685 0.498493 0.608559 0.383942
C33   C     C_3   0.887782 0.998890 0.461039 0.388987
C34   C     C_3   0.387771 0.498900 0.461060 0.388952
C35   C     C_R   0.443542 0.848245 0.094551 -0.156013
C36   C     C_R   0.446653 0.150955 0.097641 -0.186249
C37   C     C_R   0.943554 0.348243 0.094556 -0.156039
C38   C     C_R   0.946647 0.650954 0.097639 -0.186220
C39   C     C_3   0.944384 0.003033 0.408476 -0.362804
C40   C     C_3   0.444386 0.502944 0.408502 -0.362728
C41   C     C_R   0.316189 0.721185 0.920771 -0.265922
C42   C     C_R   0.265469 0.216707 0.007841 -0.260536
C43   C     C_R   0.816195 0.221184 0.920778 -0.265956
C44   C     C_R   0.765449 0.716708 0.007810 -0.260450
C45   C     C_R   0.779521 0.170441 0.924293 0.233808
C46   C     C_R   0.712139 0.757649 0.009423 0.249192
C47   C     C_R   0.279520 0.670440 0.924289 0.233833
C48   C     C_R   0.212149 0.257647 0.009434 0.249223
C49   C     C_R   0.774943 0.161020 0.014488 0.100483
C50   C     C_R   0.741073 0.812807 0.014139 0.064603
C51   C     C_R   0.274943 0.661017 0.014484 0.100474
C52   C     C_R   0.241071 0.312806 0.014131 0.064628
C53   C     C_R   0.845606 0.184677 0.113952 -0.241435
C54   C     C_R   0.825305 0.826135 0.027604 -0.235587
C55   C     C_R   0.345603 0.684676 0.113948 -0.241435
C56   C     C_R   0.325295 0.326137 0.027578 -0.235592
C57   C     C_R   0.401228 0.727177 0.116336 0.189013
C58   C     C_R   0.380474 0.284414 0.031339 0.259193
C59   C     C_R   0.901239 0.227173 0.116343 0.189005
C60   C     C_R   0.880480 0.784409 0.031362 0.259185
C61   C     C_R   0.374675 0.752597 0.016473 0.074322
C62   C     C_R   0.347704 0.230058 0.017136 0.016827
C63   C     C_R   0.874692 0.252593 0.016481 0.074346
C64   C     C_R   0.847694 0.730056 0.017129 0.016807
C65   C     C_R   0.382751 0.949253 0.461540 -0.135439
C66   C     C_R   0.382482 0.049062 0.460250 -0.140656
C67   C     C_R   0.882751 0.449252 0.461540 -0.135432
C68   C     C_R   0.882481 0.549062 0.460249 -0.140655
C69   C     C_R   0.391632 0.949161 0.374401 -0.135369
C70   C     C_R   0.391128 0.048948 0.372918 -0.156748
C71   C     C_R   0.891633 0.449161 0.374402 -0.135376
C72   C     C_R   0.891127 0.548947 0.372918 -0.156747
C73   C     C_R   0.405976 0.999101 0.337637 0.123477
C74   C     C_R   0.905976 0.499101 0.337638 0.123475
C75   C     C_R   0.481792 0.045468 0.251525 -0.117922
C76   C     C_R   0.481696 0.953801 0.251791 -0.107250
C77   C     C_R   0.981792 0.545468 0.251526 -0.117926
C78   C     C_R   0.981695 0.453801 0.251791 -0.107253
C79   C     C_R   0.388149 0.999299 0.511941 0.114920
C80   C     C_R   0.888147 0.499298 0.511940 0.114925
C81   C     C_R   0.229594 0.952594 0.729152 0.168334
C82   C     C_R   0.229556 0.045989 0.730841 0.143301
C83   C     C_R   0.729580 0.452605 0.729213 0.168340
C84   C     C_R   0.729559 0.545997 0.730851 0.143239
C85   C     C_R   0.396695 0.184859 0.012938 0.076129
C86   C     C_R   0.394403 0.812170 0.009119 0.040672
C87   C     C_R   0.896683 0.684856 0.012933 0.076126
C88   C     C_R   0.894431 0.312164 0.009130 0.040669
C89   C     C_R   0.451237 0.999383 0.278993 0.034086
C90   C     C_R   0.951237 0.499383 0.278993 0.034087
C91   C     C_R   0.170808 0.998848 0.692160 -0.115143
C92   C     C_R   0.670798 0.498859 0.692208 -0.115007
C93   C     C_R   0.441692 0.044832 0.692414 -0.096957
C94   C     C_R   0.440151 0.954880 0.692287 -0.059638
C95   C     C_R   0.941689 0.544831 0.692412 -0.096953
C96   C     C_R   0.940151 0.454879 0.692287 -0.059616
C97   C     C_R   0.747151 0.953904 0.305521 -0.143171
C98   C     C_R   0.748520 0.045473 0.306987 -0.156265
C99   C     C_R   0.247153 0.453907 0.305526 -0.143150
C100  C     C_R   0.248512 0.545476 0.306984 -0.156273
H1    H     H_    0.032547 0.941575 0.699340 0.179433
H2    H     H_    0.039532 0.055593 0.704407 0.174040
H3    H     H_    0.532556 0.441616 0.699447 0.179431
H4    H     H_    0.539507 0.555663 0.704344 0.174049
H5    H     H_    0.873849 0.943268 0.568705 0.179325
H6    H     H_    0.880610 0.040209 0.587463 0.176746
H7    H     H_    0.373837 0.443424 0.568908 0.179317
H8    H     H_    0.380576 0.540363 0.587348 0.176700
H9    H     H_    0.894139 0.908459 0.478104 0.157423
H10   H     H_    0.887228 0.086960 0.499082 0.158782
H11   H     H_    0.394000 0.408475 0.478339 0.157428
H12   H     H_    0.387300 0.587011 0.498907 0.158781
H13   H     H_    0.075546 0.962109 0.478884 0.161601
H14   H     H_    0.084348 0.035079 0.484807 0.162918
H15   H     H_    0.575595 0.462058 0.479013 0.161591
H16   H     H_    0.584326 0.535032 0.484805 0.162929
H17   H     H_    0.923410 0.969328 0.347806 0.162494
H18   H     H_    0.929825 0.042816 0.364221 0.164597
H19   H     H_    0.423437 0.469173 0.347962 0.162474
H20   H     H_    0.429807 0.542679 0.364095 0.164597
H21   H     H_    0.297035 0.734342 0.842064 0.174972
H22   H     H_    0.243328 0.173938 0.000140 0.141505
H23   H     H_    0.797029 0.234343 0.842067 0.175012
H24   H     H_    0.743295 0.673940 0.000085 0.141494
H25   H     H_    0.857547 0.171369 0.190284 0.153401
H26   H     H_    0.847829 0.868753 0.035382 0.162446
H27   H     H_    0.357548 0.671366 0.190280 0.153404
H28   H     H_    0.347809 0.368757 0.035339 0.162447
H29   H     H_    0.382404 0.909972 0.496001 0.139674
H30   H     H_    0.381898 0.088435 0.493710 0.137102
H31   H     H_    0.882404 0.409972 0.496002 0.139679
H32   H     H_    0.881896 0.588434 0.493708 0.137101
H33   H     H_    0.484463 0.838997 0.179260 0.156217
H34   H     H_    0.487842 0.162687 0.182682 0.129574
H35   H     H_    0.984475 0.338998 0.179267 0.156223
H36   H     H_    0.987834 0.662687 0.182680 0.129569
H37   H     H_    0.396598 0.909830 0.344212 0.129695
H38   H     H_    0.395503 0.088253 0.341396 0.116988
H39   H     H_    0.896600 0.409830 0.344213 0.129696
H40   H     H_    0.895503 0.588253 0.341396 0.116992
H41   H     H_    0.472758 0.088048 0.263154 0.095996
H42   H     H_    0.472455 0.911070 0.263797 0.109346
H43   H     H_    0.972759 0.588048 0.263157 0.095995
H44   H     H_    0.972454 0.411070 0.263795 0.109346
H45   H     H_    0.413688 0.085124 0.662370 0.141186
H46   H     H_    0.411890 0.914023 0.663120 0.137515
H47   H     H_    0.913682 0.585123 0.662367 0.141178
H48   H     H_    0.911887 0.414023 0.663120 0.137550
H49   H     H_    0.756218 0.911194 0.329693 0.103503
H50   H     H_    0.761238 0.088050 0.333020 0.102065
H51   H     H_    0.256238 0.411196 0.329692 0.103475
H52   H     H_    0.261203 0.588054 0.333009 0.102075
H53   H     H_    0.746917 0.122521 0.177550 0.111490
H54   H     H_    0.736882 0.863736 0.180297 0.126515
H55   H     H_    0.246917 0.622519 0.177548 0.111494
H56   H     H_    0.236881 0.363733 0.180294 0.126498
H57   H     H_    0.038464 0.910708 0.592997 0.185592
H58   H     H_    0.034313 0.085236 0.587666 0.191558
H59   H     H_    0.538364 0.410719 0.593035 0.185499
H60   H     H_    0.534363 0.585246 0.587607 0.191557
N1    N     N_R   0.392140 0.102630 0.941800 -0.070263
N2    N     N_R   0.392140 0.897370 0.941800 -0.055333
N3    N     N_R   0.892140 0.602630 0.941800 -0.070258
N4    N     N_R   0.892140 0.397370 0.941800 -0.055376
N5    N     N_R   0.450890 0.896450 0.057150 -0.057035
N6    N     N_R   0.450890 0.103550 0.057150 -0.056754
N7    N     N_R   0.950890 0.396450 0.057150 -0.057034
N8    N     N_R   0.950890 0.603550 0.057150 -0.056751
N9    N     N_R   0.525160 0.027960 0.206160 -0.038528
N10   N     N_R   0.525160 0.972040 0.206160 -0.039434
N11   N     N_R   0.025160 0.527960 0.206160 -0.038529
N12   N     N_R   0.025160 0.472040 0.206160 -0.039432
N13   N     N_R   0.317870 0.971120 0.792790 -0.076092
N14   N     N_R   0.317870 0.028880 0.792790 -0.079514
N15   N     N_R   0.817870 0.471120 0.792790 -0.076103
N16   N     N_R   0.817870 0.528880 0.792790 -0.079519
N17   N     N_R   0.473480 0.027920 0.793480 -0.052519
N18   N     N_R   0.473480 0.972080 0.793480 -0.045631
N19   N     N_R   0.973480 0.527920 0.793480 -0.052519
N20   N     N_R   0.973480 0.472080 0.793480 -0.045631
N21   N     N_R   0.681610 0.971120 0.207570 -0.035431
N22   N     N_R   0.681610 0.028880 0.207570 -0.038799
N23   N     N_R   0.181610 0.471120 0.207570 -0.035431
N24   N     N_R   0.181610 0.528880 0.207570 -0.038804
N25   N     N_R   0.605410 0.102620 0.056870 -0.048424
N26   N     N_R   0.605410 0.897380 0.056870 -0.051260
N27   N     N_R   0.105410 0.602620 0.056870 -0.048422
N28   N     N_R   0.105410 0.397380 0.056870 -0.051257
N29   N     N_R   0.549680 0.896430 0.944180 -0.061226
N30   N     N_R   0.549680 0.103570 0.944180 -0.059988
N31   N     N_R   0.049680 0.396430 0.944180 -0.061224
N32   N     N_R   0.049680 0.603570 0.944180 -0.059984
Ni1   Ni    Ni4+2 0.433410 0.064680 0.868830 0.231126
Ni2   Ni    Ni4+2 0.433410 0.935320 0.868830 0.228018
Ni3   Ni    Ni4+2 0.933410 0.564680 0.868830 0.231122
Ni4   Ni    Ni4+2 0.933410 0.435320 0.868830 0.228004
Ni5   Ni    Ni4+2 0.565650 0.934380 0.131170 0.222348
Ni6   Ni    Ni4+2 0.565650 0.065620 0.131170 0.221690
Ni7   Ni    Ni4+2 0.065650 0.434380 0.131170 0.222346
Ni8   Ni    Ni4+2 0.065650 0.565620 0.131170 0.221689
I1    I     I_    0.377356 0.207313 0.807163 -0.350521
I2    I     I_    0.393632 0.803911 0.802779 -0.536000
I3    I     I_    0.877394 0.707314 0.807194 -0.350525
I4    I     I_    0.893582 0.303909 0.802731 -0.535941
C101  C     C_3   0.764379 0.126306 0.842797 -0.355680
C102  C     C_3   0.755098 0.067091 0.872180 -0.848678
H61   H     H_    0.810868 0.058105 0.958328 0.254580
H62   H     H_    0.686241 0.059522 0.857991 0.264776
H63   H     H_    0.761556 0.037940 0.819343 0.258016
H64   H     H_    0.826566 0.127090 0.839244 0.199085
H65   H     H_    0.705052 0.136281 0.759387 0.222557
C103  C     C_3   0.626006 0.740686 0.005606 -0.365204
C104  C     C_3   0.651321 0.711624 0.110190 -0.850262
H66   H     H_    0.586835 0.700367 0.104914 0.276044
H67   H     H_    0.694213 0.739474 0.181287 0.269206
H68   H     H_    0.690226 0.673319 0.122417 0.250371
H69   H     H_    0.582726 0.776201 0.995072 0.230354
H70   H     H_    0.582128 0.712719 0.934926 0.217385
C105  C     C_3   0.264388 0.626305 0.842798 -0.355692
C106  C     C_3   0.255104 0.567090 0.872179 -0.848679
H71   H     H_    0.261565 0.537939 0.819344 0.258014
H72   H     H_    0.310872 0.558104 0.958328 0.254580
H73   H     H_    0.186246 0.559522 0.857985 0.264779
H74   H     H_    0.326579 0.627089 0.839255 0.199081
H75   H     H_    0.205065 0.636279 0.759385 0.222556
C107  C     C_3   0.126021 0.240681 0.005624 -0.365227
C108  C     C_3   0.151351 0.211675 0.110262 -0.850207
H76   H     H_    0.086867 0.200388 0.104970 0.276036
H77   H     H_    0.194164 0.239575 0.181295 0.269196
H78   H     H_    0.190344 0.173394 0.122611 0.250386
H79   H     H_    0.082697 0.276189 0.994997 0.230355
H80   H     H_    0.082180 0.212676 0.934999 0.217336
I5    I     I_    0.526598 0.740244 0.272589 -0.466813
I6    I     I_    0.511540 0.305348 0.060792 -0.364556
I7    I     I_    0.026604 0.240243 0.272601 -0.466820
I8    I     I_    0.011559 0.805338 0.060846 -0.364567
C109  C     C_3   0.206119 0.895052 0.681397 -0.356818
C110  C     C_3   0.175870 0.854468 0.737230 -0.794991
H81   H     H_    0.208461 0.814062 0.748973 0.261884
H82   H     H_    0.193211 0.870761 0.816515 0.254286
H83   H     H_    0.101363 0.843155 0.687319 0.241970
H84   H     H_    0.155712 0.894906 0.592200 0.163961
H85   H     H_    0.267708 0.880534 0.686721 0.216485
C111  C     C_3   0.205095 0.104315 0.689445 -0.318449
C112  C     C_3   0.172389 0.139832 0.748418 -0.831471
H86   H     H_    0.097047 0.147006 0.701348 0.239963
H87   H     H_    0.193439 0.121531 0.827747 0.237261
H88   H     H_    0.199893 0.182397 0.760980 0.279332
H89   H     H_    0.267456 0.121757 0.699032 0.210288
H90   H     H_    0.156205 0.106185 0.600036 0.170628
C113  C     C_3   0.706052 0.395041 0.681593 -0.356935
C114  C     C_3   0.675902 0.354533 0.737631 -0.794871
H91   H     H_    0.693632 0.370811 0.817089 0.254236
H92   H     H_    0.601333 0.343378 0.688054 0.242009
H93   H     H_    0.708257 0.314065 0.749076 0.261901
H94   H     H_    0.655612 0.394829 0.592403 0.163998
H95   H     H_    0.767612 0.380499 0.686890 0.216497
C115  C     C_3   0.705123 0.604319 0.689417 -0.318480
C116  C     C_3   0.672382 0.639860 0.748325 -0.831418
H96   H     H_    0.597044 0.647058 0.701192 0.239978
H97   H     H_    0.693368 0.621567 0.827638 0.237252
H98   H     H_    0.699921 0.682417 0.760912 0.279329
H99   H     H_    0.767503 0.621752 0.699038 0.210296
H100  H     H_    0.656264 0.606172 0.600000 0.170611
I9    I     I_    0.572194 0.849518 0.758363 -0.401451
I10   I     I_    0.548726 0.167510 0.759810 -0.438269
I11   I     I_    0.072179 0.349509 0.758358 -0.401436
I12   I     I_    0.048732 0.667501 0.759803 -0.438282

loop_
_geom_bond_atom_site_label_1
_geom_bond_atom_site_label_2
_ccdc_geom_bond_type
C68   C80   A    
C30   C32   S    
N11   N12   A    
C13   C79   S    
C94   H46   S    
C65   C79   A    
C83   N15   A    
C63   C88   S    
C3    I3    S    
N9    N10   A    
C14   C95   A    
C37   C88   A    
C115  H99   S    
C2    I2    S    
C8    N28   A    
C5    N25   A    
C29   H14   S    
C116  H98   S    
N21   Ni5   S    
C9    C18   A    
C2    N2    A    
C106  H72   S    
C53   C59   A    
C43   C63   A    
N25   N30   A    
C37   N7    A    
N19   Ni3   S    
C101  C102  S    
C44   C64   A    
C38   N8    A    
C83   C92   A    
N18   Ni2   S    
C110  H83   S    
C18   C50   S    
C10   N30   A    
N17   Ni1   S    
C109  H84   S    
N28   N31   A    
C34   C40   S    
C7    N27   A    
C69   C73   A    
C28   H12   S    
C48   C52   A    
C78   H44   S    
C82   C111  S    
C35   C86   A    
C102  H62   S    
C4    I4    S    
C5    C17   A    
C103  H69   S    
C101  H65   S    
C10   C17   A    
C107  H79   S    
C111  C112  S    
N12   Ni7   S    
C51   C55   A    
C94   N18   A    
C41   H21   S    
C57   C61   A    
C68   H32   S    
N31   Ni4   S    
C29   H13   S    
C75   H41   S    
N30   Ni1   S    
C16   C34   S    
C105  H74   S    
C42   C62   A    
N29   Ni2   S    
C33   C39   S    
C23   H3    S    
C82   N14   A    
C81   C109  S    
C77   N11   A    
N24   Ni8   S    
C23   H59   S    
C75   N9    A    
C100  N24   A    
C83   C113  S    
C4    N4    A    
N26   Ni5   S    
C93   H45   S    
C11   I11   S    
C23   C27   S    
N25   Ni6   S    
C10   I10   S    
C26   H10   S    
C64   C87   S    
C11   N31   A    
N1    N6    A    
N20   Ni4   S    
C3    N3    A    
C76   C89   A    
C53   H25   S    
C21   H1    S    
C104  H67   S    
N3    Ni3   S    
N27   Ni8   S    
C27   H11   S    
N2    Ni2   S    
C103  C104  S    
N13   N14   A    
C112  H86   S    
C69   H37   S    
C28   C34   S    
C35   H33   S    
C21   H57   S    
C15   C97   A    
C6    C18   A    
C14   C96   A    
C106  H71   S    
C44   C46   A    
C46   C50   A    
C78   C90   A    
C30   H15   S    
C107  H80   S    
C27   C34   S    
C1    C85   A    
C96   H48   S    
C62   C85   S    
C110  H82   S    
C11   C20   A    
C111  H89   S    
C109  H85   S    
C3    C87   A    
C61   C86   S    
N32   Ni3   S    
C113  C114  S    
C12   N32   A    
C95   H47   S    
C21   C31   S    
C72   C74   A    
C22   C31   S    
C17   C49   S    
C105  C106  S    
C38   H36   S    
C93   N17   A    
C102  H61   S    
C16   C100  A    
C47   C51   A    
C22   H58   S    
N28   Ni7   S    
C58   I6    S    
N21   N22   A    
C9    I9    S    
C77   H43   S    
C44   H24   S    
C100  H52   S    
C82   C91   A    
C30   H16   S    
C13   C93   A    
C24   H4    S    
C81   N13   A    
C98   N22   A    
C42   C48   A    
N23   N24   A    
C24   C32   S    
N11   Ni8   S    
C66   C79   A    
C65   H29   S    
N5    Ni5   S    
C26   H6    S    
N2    N5    A    
C48   C107  S    
C36   N6    A    
C26   C33   S    
C57   I5    S    
C108  H76   S    
C27   H7    S    
C68   C72   A    
C29   C39   S    
C70   C73   A    
C37   H35   S    
C45   C49   A    
C41   C47   A    
C13   C94   A    
C30   C40   S    
N6    Ni6   S    
C107  C108  S    
C8    C20   A    
C105  H75   S    
C81   C91   A    
C76   N10   A    
C60   I8    S    
C43   C45   A    
N27   N32   A    
C104  H66   S    
C67   H31   S    
C58   C62   A    
C46   C103  S    
C114  H93   S    
C95   N19   A    
C108  H77   S    
C55   H27   S    
C70   H38   S    
C7    C19   A    
C14   C80   S    
C55   C57   A    
C59   C63   A    
C108  H78   S    
C15   C98   A    
C116  H96   S    
C43   H23   S    
N15   Ni4   S    
N10   Ni5   S    
C42   H22   S    
C114  H92   S    
C98   H50   S    
C104  H68   S    
C84   C115  S    
C65   C69   A    
C97   H49   S    
C21   C25   S    
C110  H81   S    
C45   C101  S    
N8    Ni8   S    
C40   H20   S    
C29   C31   S    
C99   N23   A    
C12   I12   S    
N4    N7    A    
C59   I7    S    
C67   C80   A    
C24   C28   S    
C115  H100  S    
C116  H97   S    
C36   H34   S    
C71   C74   A    
C71   H39   S    
N4    Ni4   S    
C16   C99   A    
C97   N21   A    
C4    C88   A    
C25   H9    S    
C36   C85   A    
C39   H18   S    
C1    I1    S    
C6    N26   A    
C31   C91   S    
C22   H2    S    
C60   C64   A    
C38   C87   A    
C54   C60   A    
C9    N29   A    
C23   C32   S    
C96   N20   A    
N26   N29   A    
C112  H87   S    
N3    N8    A    
C73   C89   S    
C50   C54   A    
N15   N16   A    
C39   H17   S    
C113  H95   S    
C41   C61   A    
C6    H54   S    
C102  H63   S    
C74   C90   S    
C113  H94   S    
C32   C92   S    
C47   C105  S    
C101  H64   S    
C28   H8    S    
C5    H53   S    
C109  C110  S    
C12   C19   A    
C35   N5    A    
C56   C58   A    
C2    C86   A    
C67   C71   A    
C56   H28   S    
N16   Ni3   S    
C99   H51   S    
C8    H56   S    
N23   Ni7   S    
C25   H5    S    
C49   C53   A    
N1    Ni1   S    
C75   C89   A    
C111  H90   S    
C1    N1    A    
N19   N20   A    
C54   H26   S    
C19   C51   S    
C24   H60   S    
C72   H40   S    
C40   H19   S    
C7    H55   S    
C66   C70   A    
N14   Ni1   S    
C20   C52   S    
N17   N18   A    
C22   C26   S    
C112  H88   S    
C115  C116  S    
N13   Ni2   S    
C77   C90   A    
N7    Ni7   S    
N9    Ni6   S    
N22   Ni6   S    
C84   C92   A    
C66   H30   S    
C78   N12   A    
C84   N16   A    
C15   C33   S    
C106  H73   S    
C52   C56   A    
C25   C33   S    
C114  H91   S    
C103  H70   S    
C76   H42   S    
