data_mof_unit_55017.cif
_audit_creation_date              2012-12-10T19:00:01-0500
_audit_creation_method            fapswitch 2.2
_symmetry_space_group_name_H-M    P1
_symmetry_Int_Tables_number       1
_space_group_crystal_system       triclinic
_cell_length_a                    10.706236
_cell_length_b                    10.714462
_cell_length_c                    9.81769
_cell_angle_alpha                 90.084349
_cell_angle_beta                  89.887401
_cell_angle_gamma                 90.436897
_cell_volume                      1126.16641176

loop_
_atom_site_label
_atom_site_type_symbol
_atom_type_description
_atom_site_fract_x
_atom_site_fract_y
_atom_site_fract_z
_atom_type_partial_charge
C1    C     C_R   0.500026 0.259808 0.499900 0.863980
C2    C     C_R   0.499973 0.740192 0.500100 0.863981
C3    C     C_R   0.872414 0.494354 0.500496 -0.098659
C4    C     C_R   0.127585 0.505645 0.499503 -0.098657
C5    C     C_R   0.938045 0.441905 0.610399 0.010401
C6    C     C_R   0.061955 0.558093 0.389600 0.010406
C7    C     C_R   0.517340 0.063822 0.377073 -0.213275
C8    C     C_R   0.482653 0.936178 0.622927 -0.213274
C9    C     C_R   0.517355 0.936040 0.377183 -0.211202
C10   C     C_R   0.482638 0.063960 0.622818 -0.211201
C11   C     C_R   0.499964 0.872596 0.500096 -0.003652
C12   C     C_R   0.500031 0.127404 0.499904 -0.003651
C13   C     C_R   0.563526 0.590004 0.071992 -0.082002
C14   C     C_R   0.436474 0.409996 0.928007 -0.082002
C15   C     C_R   0.563437 0.590008 0.927961 -0.079353
C16   C     C_R   0.436563 0.409992 0.072039 -0.079354
C17   C     C_R   0.260047 0.503275 0.499878 0.877070
C18   C     C_R   0.739953 0.496724 0.500122 0.877070
C19   C     C_R   0.238404 0.803550 0.188860 -0.131248
C20   C     C_R   0.761592 0.196452 0.811142 -0.131247
C21   C     C_R   0.176280 0.742250 0.294937 -0.170896
C22   C     C_R   0.823717 0.257750 0.705064 -0.170892
C23   C     C_R   0.123867 0.623219 0.274186 0.120306
C24   C     C_R   0.876133 0.376780 0.725814 0.120304
C25   C     C_R   0.135162 0.564906 0.145623 0.145647
C26   C     C_R   0.864840 0.435094 0.854377 0.145644
C27   C     C_R   0.197005 0.628316 0.039349 -0.142212
C28   C     C_R   0.802996 0.371686 0.960651 -0.142211
C29   C     C_R   0.248596 0.746773 0.061289 -0.144132
C30   C     C_R   0.751403 0.253230 0.938712 -0.144131
C31   C     C_R   0.933847 0.550983 0.391032 -0.228696
C32   C     C_R   0.066153 0.449016 0.608968 -0.228696
H1    H     H_    0.297061 0.794373 0.979361 0.127823
H2    H     H_    0.702937 0.205631 0.020641 0.127824
H3    H     H_    0.614436 0.661671 0.873258 0.117891
H4    H     H_    0.385565 0.338329 0.126742 0.117890
H5    H     H_    0.278852 0.895155 0.205644 0.134177
H6    H     H_    0.721141 0.104848 0.794358 0.134176
H7    H     H_    0.169703 0.787037 0.393661 0.123899
H8    H     H_    0.830292 0.212962 0.606340 0.123898
H9    H     H_    0.206598 0.585480 0.939932 0.145525
H10   H     H_    0.793405 0.414522 0.060069 0.145524
H11   H     H_    0.882008 0.592839 0.308111 0.155326
H12   H     H_    0.117992 0.407159 0.691889 0.155326
H13   H     H_    0.531397 0.112358 0.281427 0.149568
H14   H     H_    0.468595 0.887642 0.718573 0.149568
H15   H     H_    0.531383 0.887391 0.281575 0.150741
H16   H     H_    0.468610 0.112609 0.718425 0.150740
H17   H     H_    0.614558 0.661692 0.126644 0.117093
H18   H     H_    0.385442 0.338308 0.873356 0.117092
N1    N     N_R   0.499970 0.499970 0.857200 -0.071370
N2    N     N_R   0.500030 0.500030 0.142800 -0.071370
O1    O     O_R   0.499990 0.316750 0.614620 -0.622923
O2    O     O_R   0.500010 0.683250 0.385380 -0.622922
O3    O     O_R   0.499990 0.316780 0.385290 -0.634710
O4    O     O_R   0.500010 0.683220 0.614710 -0.634709
O5    O     O_R   0.316760 0.500000 0.614660 -0.628072
O6    O     O_R   0.683240 0.500000 0.385340 -0.628071
O7    O     O_R   0.316760 0.500020 0.385330 -0.612057
O8    O     O_R   0.683240 0.499980 0.614670 -0.612056
Zn1   Zn    Zn3+2 0.500000 0.499980 0.653120 0.942982
Zn2   Zn    Zn3+2 0.500000 0.500020 0.346880 0.942982
N3    N     N_3   0.086225 0.441054 0.125016 -0.472976
H19   H     H_    0.137515 0.380638 0.186509 0.186046
H20   H     H_    0.101455 0.412318 0.024553 0.178956
N4    N     N_3   0.913781 0.558944 0.874984 -0.472976
H21   H     H_    0.862500 0.619362 0.813481 0.186046
H22   H     H_    0.898543 0.587686 0.975443 0.178953

loop_
_geom_bond_atom_site_label_1
_geom_bond_atom_site_label_2
_ccdc_geom_bond_type
O6    Zn2   S    
N4    H22   S    
N3    H20   S    
O5    Zn1   S    
C6    C31   A    
C14   C16   A    
C15   N1    A    
C27   C29   A    
C13   N2    A    
C20   H6    S    
C19   H5    S    
C27   H9    S    
C26   C28   A    
C14   N1    A    
C21   H7    S    
C25   N3    S    
C5    C32   A    
C22   H8    S    
C7    C9    A    
C28   C30   A    
N4    H21   S    
C32   H12   S    
O8    Zn1   S    
C2    O4    A    
C16   H4    S    
C2    C11   S    
C3    C31   A    
N1    Zn1   S    
C9    C11   A    
C30   H2    S    
C14   H18   S    
C1    C12   S    
C10   C12   A    
C17   O7    A    
C8    C11   A    
C13   H17   S    
C6    C23   S    
C7    H13   S    
C18   O8    A    
C19   C21   A    
C20   C22   A    
C9    H15   S    
C8    H14   S    
C13   C15   A    
C21   C23   A    
C10   H16   S    
C7    C12   A    
C22   C24   A    
C1    O3    A    
C25   C27   A    
C4    C17   S    
C4    C32   A    
C26   N4    S    
O3    Zn2   S    
C29   H1    S    
C23   C25   A    
C3    C18   S    
C4    C6    A    
C2    O2    A    
C28   H10   S    
C16   N2    A    
C15   H3    S    
C1    O1    A    
O4    Zn1   S    
C5    C24   S    
O7    Zn2   S    
C20   C30   A    
O2    Zn2   S    
C17   O5    A    
O1    Zn1   S    
N2    Zn2   S    
C8    C10   A    
C31   H11   S    
N3    H19   S    
C24   C26   A    
C18   O6    A    
C3    C5    A    
C19   C29   A    
