data_mof_unit_24062.cif
_audit_creation_date              2012-10-26T18:47:58-0400
_audit_creation_method            fapswitch 2.2
_symmetry_space_group_name_H-M    P1
_symmetry_Int_Tables_number       1
_space_group_crystal_system       triclinic
_cell_length_a                    15.853016
_cell_length_b                    8.702396
_cell_length_c                    7.525077
_cell_angle_alpha                 103.241897
_cell_angle_beta                  94.446777
_cell_angle_gamma                 92.870759
_cell_volume                      1005.04418216

loop_
_atom_site_label
_atom_site_type_symbol
_atom_type_description
_atom_site_fract_x
_atom_site_fract_y
_atom_site_fract_z
_atom_type_partial_charge
C1    C     C_R   0.493509 0.200081 0.453268 0.547441
C2    C     C_2   0.503359 0.967728 0.568232 -0.113756
C3    C     C_R   0.340645 0.499289 0.501631 0.534135
C4    C     C_R   0.500998 0.799755 0.546245 0.553378
C5    C     C_R   0.659463 0.501006 0.498374 0.554522
C6    C     C_3   0.054008 0.464365 0.676124 -0.080775
C7    C     C_3   0.038371 0.378851 0.330296 -0.055812
C8    C     C_3   0.940412 0.375701 0.338654 -0.206644
C9    C     C_1   0.749027 0.503760 0.495795 0.009897
C10   C     C_3   0.083349 0.504946 0.497758 0.029660
C11   C     C_3   0.346333 0.912937 0.263011 -0.292782
C12   C     C_3   0.956284 0.475820 0.679816 -0.244145
C13   C     C_3   0.380527 0.231120 0.943902 -0.219527
C14   C     C_2   0.079288 0.302873 0.696242 0.220416
C15   C     C_2   0.064869 0.404068 0.151187 0.224037
C16   C     C_3   0.084869 0.906918 0.364013 -0.321014
C17   C     C_2   0.925045 0.810711 0.607676 0.175089
C18   C     C_3   0.917162 0.509033 0.498495 -0.030995
C19   C     C_3   0.955822 0.671200 0.474427 -0.034451
C20   C     C_3   0.055130 0.675730 0.494688 0.027297
C21   C     C_1   0.824673 0.506575 0.496586 -0.038548
C22   C     C_1   0.175932 0.501763 0.502486 -0.054454
C23   C     C_1   0.251397 0.500253 0.504366 -0.023826
C24   C     C_2   0.479232 0.032067 0.428053 0.097097
Cu1   Cu    Cu3+1 0.509300 0.517380 0.684380 0.996514
Cu2   Cu    Cu3+1 0.490700 0.482620 0.315620 0.972259
H1    H     H_    0.924664 0.365676 0.702750 0.152815
H2    H     H_    0.080452 0.754738 0.628984 0.104337
H3    H     H_    0.451909 0.978704 0.144395 0.256357
H4    H     H_    0.319276 0.834830 0.130584 0.143155
H5    H     H_    0.315246 0.026628 0.284405 0.121245
H6    H     H_    0.332736 0.853325 0.374460 0.155289
H7    H     H_    0.352403 0.464110 0.971659 0.261553
H8    H     H_    0.357641 0.225276 0.077972 0.149320
H9    H     H_    0.436435 0.159955 0.919589 0.139235
H10   H     H_    0.329166 0.179590 0.834484 0.137771
H11   H     H_    0.035252 0.199317 0.648652 0.118157
H12   H     H_    0.085937 0.553857 0.795667 0.174462
H13   H     H_    0.123533 0.358959 0.102901 0.147090
H14   H     H_    0.149929 0.705445 0.318548 0.259322
H15   H     H_    0.111299 0.939607 0.244180 0.133884
H16   H     H_    0.122165 0.975698 0.490784 0.152894
H17   H     H_    0.017975 0.938387 0.363981 0.183128
H18   H     H_    0.943262 0.830794 0.753562 0.111847
H19   H     H_    0.943020 0.572179 0.797160 0.156201
H20   H     H_    0.934010 0.680614 0.333047 0.204964
H21   H     H_    0.531013 0.039837 0.699327 0.097245
H22   H     H_    0.574533 0.604420 0.044890 0.222070
H23   H     H_    0.058441 0.259521 0.337346 0.065272
H24   H     H_    0.917392 0.258808 0.360125 0.119275
H25   H     H_    0.906245 0.386159 0.207552 0.172344
N1    N     N_2   0.476670 0.456430 0.038530 -0.055375
N2    N     N_2   0.523330 0.543570 0.961470 -0.198504
N3    N     N_2   0.436860 0.941019 0.259058 -0.484843
N4    N     N_2   0.401748 0.393081 0.938662 -0.321306
N5    N     N_2   0.090395 0.738989 0.349613 -0.479448
O1    O     O_R   0.506050 0.286130 0.619770 -0.494118
O2    O     O_2   0.023437 0.480934 0.064398 -0.544542
O3    O     O_2   0.879805 0.902536 0.552250 -0.528915
O4    O     O_R   0.490330 0.256780 0.308370 -0.515787
O5    O     O_R   0.387300 0.514690 0.655770 -0.473943
O6    O     O_R   0.371580 0.485340 0.344370 -0.524097
O7    O     O_R   0.509670 0.743220 0.691630 -0.513017
O8    O     O_R   0.493950 0.713870 0.380230 -0.463344
O9    O     O_R   0.628420 0.514660 0.655630 -0.497909
O10   O     O_R   0.612700 0.485310 0.344230 -0.510286
O11   O     O_2   0.150595 0.286505 0.759804 -0.558814

loop_
_geom_bond_atom_site_label_1
_geom_bond_atom_site_label_2
_ccdc_geom_bond_type
C13   H10   S    
C6    C10   S    
C7    C10   S    
C2    C4    S    
C14   O11   D    
C16   N5    S    
C5    C9    S    
Cu2   N1    S    
C2    H21   S    
C6    C14   S    
C18   C21   S    
C4    O8    A    
C3    C23   S    
C19   C20   S    
C16   H17   S    
N1    N4    S    
C20   N5    S    
C15   H13   S    
C6    H12   S    
Cu2   O6    S    
C17   H18   S    
C11   H5    S    
C13   H8    S    
Cu1   O5    S    
C10   C22   S    
C14   H11   S    
C6    C12   S    
C4    O7    A    
C9    C21   T    
C8    H25   S    
C11   N3    S    
Cu1   O1    S    
C17   O3    D    
C7    C15   S    
C17   C19   S    
Cu1   N2    S    
C11   H6    S    
C13   H9    S    
C1    O1    A    
C3    O5    A    
C2    C24   D    
H22   N2    S    
C1    O4    A    
C15   O2    D    
C19   H20   S    
H3    N3    S    
C12   H1    S    
C24   N3    S    
Cu2   O10   S    
C8    H24   S    
C7    C8    S    
Cu1   O9    S    
N1    N2    D    
C7    H23   S    
C1    C24   S    
C5    O9    A    
C18   C19   S    
Cu1   O7    S    
C3    O6    A    
C12   C18   S    
Cu2   O8    S    
C22   C23   T    
C5    O10   A    
C20   H2    S    
H14   N5    S    
Cu1   Cu2   S    
C16   H16   S    
Cu2   O4    S    
C16   H15   S    
C8    C18   S    
H7    N4    S    
C11   H4    S    
C10   C20   S    
C12   H19   S    
C13   N4    S    
