data_mof_unit_38367.cif
_audit_creation_date              2012-12-10T19:45:16-0500
_audit_creation_method            fapswitch 2.2
_symmetry_space_group_name_H-M    P1
_symmetry_Int_Tables_number       1
_space_group_crystal_system       triclinic
_cell_length_a                    14.905267
_cell_length_b                    14.142762
_cell_length_c                    10.71238
_cell_angle_alpha                 88.92337
_cell_angle_beta                  90.30603
_cell_angle_gamma                 90.332124
_cell_volume                      2257.71980084

loop_
_atom_site_label
_atom_site_type_symbol
_atom_type_description
_atom_site_fract_x
_atom_site_fract_y
_atom_site_fract_z
_atom_type_partial_charge
C1    C     C_R   0.327361 0.499811 0.502314 0.956951
C2    C     C_R   0.555542 0.893807 0.582217 -0.254900
C3    C     C_R   0.443081 0.895460 0.419774 -0.261673
C4    C     C_R   0.554131 0.794539 0.580946 0.027574
C5    C     C_R   0.444774 0.796151 0.420428 0.052330
C6    C     C_R   0.499419 0.946490 0.500916 0.118022
C7    C     C_R   0.494248 0.500812 0.262281 0.788732
C8    C     C_R   0.504985 0.498751 0.737223 0.780288
C9    C     C_2   0.480270 0.425698 0.933388 -0.291146
C10   C     C_2   0.485022 0.423104 0.067151 -0.280716
C11   C     C_2   0.523421 0.493155 0.867769 0.422062
C12   C     C_R   0.673475 0.500465 0.506212 0.941099
C13   C     C_2   0.475598 0.502750 0.131067 0.412231
C14   C     C_R   0.085272 0.568121 0.482815 0.469219
C15   C     C_R   0.903906 0.584231 0.611209 0.454538
C16   C     C_R   0.177058 0.566764 0.457163 -0.212412
C17   C     C_R   0.814028 0.586881 0.573456 -0.201873
C18   C     C_R   0.231336 0.500210 0.521598 -0.363996
C19   C     C_R   0.770185 0.501735 0.535960 -0.402081
C20   C     C_R   0.195551 0.439933 0.615453 0.328209
C21   C     C_R   0.818752 0.415730 0.537972 0.350659
C22   C     C_R   0.105542 0.448634 0.649034 0.377314
C23   C     C_R   0.050276 0.509151 0.578596 -0.122120
C24   C     C_R   0.911399 0.418233 0.553832 0.359689
C25   C     C_3   0.671179 0.542732 0.877169 0.099087
C26   C     C_3   0.716621 0.458278 0.943039 -0.382754
C27   C     C_3   0.812616 0.445638 0.897716 -0.972169
C28   C     C_3   0.356811 0.598945 0.076971 0.087094
C29   C     C_3   0.319272 0.606806 0.943898 -0.293903
C30   C     C_3   0.221747 0.639169 0.943531 -0.998805
C31   C     C_3   0.998463 0.586434 0.308108 0.103445
C32   C     C_3   0.930132 0.651210 0.244120 -0.261983
C33   C     C_3   0.891076 0.605543 0.128106 -1.037339
C34   C     C_R   0.953443 0.501974 0.591364 -0.123606
C35   C     C_3   0.959216 0.673987 0.768880 0.121080
C36   C     C_3   0.999409 0.770639 0.798622 -0.279374
C37   C     C_3   0.006206 0.785284 0.939089 -0.982571
C38   C     C_2   0.215296 0.632305 0.360354 0.470837
C39   C     C_2   0.771129 0.681385 0.565800 0.518228
C40   C     C_3   0.238095 0.286624 0.645914 0.141681
C41   C     C_3   0.293367 0.220697 0.729942 -0.348854
C42   C     C_3   0.287433 0.118696 0.686432 -0.948723
C43   C     C_3   0.746828 0.283424 0.615913 0.137152
C44   C     C_3   0.819976 0.226845 0.684916 -0.341943
C45   C     C_R   0.480188 0.106319 0.391394 -0.282761
C46   C     C_3   0.780061 0.167070 0.791132 -0.991331
C47   C     C_3   0.090931 0.423014 0.859781 0.088552
C48   C     C_3   0.081300 0.342219 0.955382 -0.283780
C49   C     C_3   0.100677 0.375900 0.087435 -1.051037
C50   C     C_3   0.975509 0.326034 0.404769 0.133444
C51   C     C_3   0.983758 0.220946 0.375932 -0.320761
C52   C     C_3   0.063045 0.175066 0.443803 -0.825104
C53   C     C_R   0.519126 0.103804 0.609788 -0.273944
C54   C     C_R   0.480247 0.205564 0.393242 0.023245
C55   C     C_R   0.519083 0.203121 0.607266 -0.031615
C56   C     C_R   0.499619 0.053207 0.500735 0.145141
H1    H     H_    0.438924 0.372450 0.888507 0.142810
H2    H     H_    0.396928 0.931553 0.357154 0.141525
H3    H     H_    0.710600 0.607581 0.897624 0.186953
H4    H     H_    0.673102 0.535011 0.774075 0.108592
H5    H     H_    0.717321 0.469519 0.045432 0.238916
H6    H     H_    0.678245 0.392396 0.924467 0.210120
H7    H     H_    0.812777 0.429332 0.797261 0.255475
H8    H     H_    0.844923 0.386547 0.950362 0.273348
H9    H     H_    0.852478 0.510933 0.910994 0.261866
H10   H     H_    0.343319 0.666061 0.125528 0.169211
H11   H     H_    0.320072 0.541024 0.127985 0.070177
H12   H     H_    0.497431 0.355115 0.112642 0.137747
H13   H     H_    0.359961 0.658331 0.888297 0.248030
H14   H     H_    0.323088 0.536850 0.898835 0.213980
H15   H     H_    0.180046 0.591013 0.002632 0.255607
H16   H     H_    0.194830 0.639056 0.846637 0.266121
H17   H     H_    0.217245 0.712050 0.979746 0.285626
H18   H     H_    0.964767 0.517981 0.330129 0.086362
H19   H     H_    0.054982 0.574325 0.242891 0.135582
H20   H     H_    0.874793 0.666076 0.309951 0.217727
H21   H     H_    0.963025 0.719272 0.217293 0.244264
H22   H     H_    0.945375 0.590956 0.060638 0.260498
H23   H     H_    0.596399 0.754834 0.644955 0.164641
H24   H     H_    0.841642 0.653807 0.082934 0.277132
H25   H     H_    0.856542 0.538224 0.153900 0.278950
H26   H     H_    0.006334 0.618889 0.803064 0.098348
H27   H     H_    0.893751 0.665951 0.817942 0.158989
H28   H     H_    0.067471 0.776516 0.757105 0.225921
H29   H     H_    0.956724 0.827185 0.756620 0.251615
H30   H     H_    0.938167 0.786468 0.980701 0.277588
H31   H     H_    0.039858 0.853934 0.957254 0.273764
H32   H     H_    0.045863 0.727852 0.984343 0.277143
H33   H     H_    0.277351 0.615173 0.314719 0.006137
H34   H     H_    0.401358 0.757753 0.357674 0.129793
H35   H     H_    0.737641 0.704691 0.480604 0.073660
H36   H     H_    0.260171 0.279134 0.547438 0.146021
H37   H     H_    0.166620 0.264520 0.653573 0.177535
H38   H     H_    0.364424 0.244328 0.729491 0.236303
H39   H     H_    0.268514 0.224228 0.827344 0.211764
H40   H     H_    0.216910 0.093022 0.690414 0.264466
H41   H     H_    0.329345 0.072783 0.748124 0.269489
H42   H     H_    0.312243 0.113534 0.589217 0.275906
H43   H     H_    0.695128 0.232473 0.584547 0.176347
H44   H     H_    0.712824 0.332288 0.680824 0.119336
H45   H     H_    0.466167 0.071871 0.304067 0.135746
H46   H     H_    0.854033 0.179620 0.618610 0.250927
H47   H     H_    0.870539 0.275498 0.725383 0.254056
H48   H     H_    0.746530 0.213121 0.859421 0.266578
H49   H     H_    0.834335 0.127388 0.839978 0.277823
H50   H     H_    0.730504 0.115596 0.754075 0.268232
H51   H     H_    0.160942 0.450763 0.865644 0.171187
H52   H     H_    0.043541 0.479647 0.884712 0.125631
H53   H     H_    0.011982 0.312925 0.951349 0.222638
H54   H     H_    0.128929 0.285021 0.932469 0.220854
H55   H     H_    0.168625 0.408342 0.092981 0.267278
H56   H     H_    0.532883 0.067367 0.697422 0.137243
H57   H     H_    0.097892 0.314826 0.153813 0.268221
H58   H     H_    0.049800 0.428469 0.115118 0.258828
H59   H     H_    0.919848 0.354362 0.345072 0.104537
H60   H     H_    0.038498 0.363342 0.377480 0.106159
H61   H     H_    0.920861 0.183570 0.403154 0.228927
H62   H     H_    0.992501 0.212965 0.273740 0.168281
H63   H     H_    0.126324 0.212939 0.419942 0.229881
H64   H     H_    0.069067 0.100373 0.415040 0.245518
H65   H     H_    0.052562 0.175851 0.546304 0.279768
H66   H     H_    0.464597 0.244864 0.308544 0.120609
H67   H     H_    0.534520 0.240697 0.691753 0.118649
H68   H     H_    0.601218 0.928603 0.645584 0.148996
N1    N     N_R   0.500000 0.252470 0.500000 -0.085066
N2    N     N_R   0.500000 0.747550 0.500000 -0.108340
O1    O     O_R   0.369060 0.579480 0.500010 -0.630390
O2    O     O_3   0.451082 0.587613 0.073283 -0.585627
O3    O     O_3   0.029528 0.629947 0.417693 -0.547882
O4    O     O_3   0.947897 0.668065 0.638554 -0.566274
O5    O     O_2   0.178926 0.706867 0.331986 -0.542173
O6    O     O_2   0.774626 0.734949 0.653762 -0.607144
O7    O     O_3   0.251183 0.380618 0.684678 -0.637680
O8    O     O_3   0.779543 0.330196 0.506975 -0.611663
O9    O     O_3   0.068865 0.389347 0.740099 -0.615451
O10   O     O_3   0.960946 0.337233 0.534156 -0.584482
O11   O     O_R   0.630940 0.579480 0.499990 -0.649683
O12   O     O_R   0.369050 0.420520 0.500010 -0.593492
O13   O     O_R   0.630950 0.420520 0.499990 -0.571551
O14   O     O_R   0.500000 0.579460 0.319080 -0.592725
O15   O     O_R   0.500000 0.579460 0.680920 -0.601495
O16   O     O_R   0.499990 0.420500 0.319080 -0.659707
O17   O     O_R   0.500010 0.420500 0.680920 -0.658042
O18   O     O_3   0.583253 0.555900 0.923199 -0.590629
Zn1   Zn    Zn3+2 0.500000 0.606140 0.500000 0.957446
Zn2   Zn    Zn3+2 0.500000 0.393860 0.500000 0.939473

loop_
_geom_bond_atom_site_label_1
_geom_bond_atom_site_label_2
_ccdc_geom_bond_type
O17   Zn2   S    
C49   H57   S    
O13   Zn2   S    
C40   C41   S    
C41   C42   S    
O16   Zn2   S    
C37   H32   S    
C48   H54   S    
C35   C36   S    
C40   H37   S    
C3    C6    A    
C35   H26   S    
C30   H15   S    
C38   H33   S    
C1    C18   S    
C42   H40   S    
O11   Zn1   S    
C36   C37   S    
C19   C21   A    
C26   H5    S    
C43   H43   S    
N1    Zn2   S    
C42   H42   S    
C7    O14   A    
C33   H22   S    
C39   O6    D    
C46   H49   S    
C51   H62   S    
C50   H59   S    
C17   C39   S    
C28   H10   S    
C17   C19   A    
C32   H21   S    
C13   O2    S    
N2    Zn1   S    
C55   N1    A    
C45   C56   A    
C5    N2    A    
C8    O15   A    
C25   H4    S    
C20   O7    S    
C9    C10   S    
C15   C34   A    
C9    H1    S    
C5    H34   S    
O15   Zn1   S    
C49   H55   S    
C24   O10   S    
C48   H53   S    
C54   H66   S    
C2    C6    A    
C39   H35   S    
C44   H47   S    
C44   C46   S    
C29   H13   S    
C53   C55   A    
C54   N1    A    
C55   H67   S    
C51   C52   S    
C47   C48   S    
C37   H30   S    
C28   H11   S    
C43   H44   S    
C4    H23   S    
C42   H41   S    
C30   H17   S    
C35   H27   S    
C31   H18   S    
C25   C26   S    
C46   H48   S    
C24   C34   A    
C14   C23   A    
C43   O8    S    
C2    C4    A    
C43   C44   S    
C3    H2    S    
C29   C30   S    
C27   H9    S    
C52   H65   S    
C31   H19   S    
C41   H38   S    
C23   C34   S    
C10   H12   S    
C50   H60   S    
C50   C51   S    
C26   C27   S    
C12   O13   A    
C40   H36   S    
C9    C11   D    
C35   O4    S    
C45   H45   S    
O1    Zn1   S    
C52   H64   S    
C53   H56   S    
C48   C49   S    
C20   C22   A    
C45   C54   A    
C47   H51   S    
C14   C16   A    
C25   O18   S    
C21   O8    S    
C29   H14   S    
C11   O18   S    
C53   C56   A    
C15   C17   A    
C28   C29   S    
C44   H46   S    
C47   O9    S    
C22   C23   A    
C37   H31   S    
C31   C32   S    
C1    O1    A    
C6    C56   S    
C3    C5    A    
C10   C13   D    
O14   Zn1   S    
C32   H20   S    
C30   H16   S    
C33   H24   S    
C2    H68   S    
C36   H29   S    
C40   O7    S    
C4    N2    A    
C22   O9    S    
O12   Zn2   S    
C38   O5    D    
C26   H6    S    
C31   O3    S    
C50   O10   S    
C32   C33   S    
C41   H39   S    
C15   O4    S    
C36   H28   S    
C8    C11   S    
C46   H50   S    
C12   C19   S    
C51   H61   S    
C49   H58   S    
C8    O17   A    
C18   C20   A    
C27   H8    S    
C52   H63   S    
C7    C13   S    
C16   C18   A    
C47   H52   S    
C21   C24   A    
C12   O11   A    
C27   H7    S    
C25   H3    S    
C33   H25   S    
C7    O16   A    
C1    O12   A    
C28   O2    S    
C16   C38   S    
C14   O3    S    
