data_mof_unit_7315.cif
_audit_creation_date              2012-12-10T16:41:51-0500
_audit_creation_method            fapswitch 2.2
_symmetry_space_group_name_H-M    P1
_symmetry_Int_Tables_number       1
_space_group_crystal_system       triclinic
_cell_length_a                    10.880787
_cell_length_b                    8.689817
_cell_length_c                    7.457053
_cell_angle_alpha                 102.913794
_cell_angle_beta                  94.341482
_cell_angle_gamma                 92.398081
_cell_volume                      684.020795515

loop_
_atom_site_label
_atom_site_type_symbol
_atom_type_description
_atom_site_fract_x
_atom_site_fract_y
_atom_site_fract_z
_atom_type_partial_charge
C1    C     C_R   0.496310 0.199775 0.453318 0.891115
C2    C     C_2   0.505726 0.968117 0.572926 -0.360696
C3    C     C_R   0.265590 0.505339 0.502691 0.850085
C4    C     C_R   0.503848 0.800232 0.546677 0.885663
C5    C     C_R   0.733933 0.490837 0.496654 0.759311
C6    C     C_2   0.925806 0.504162 0.360786 -0.177117
C7    C     C_2   0.861995 0.453582 0.486498 -0.128785
C8    C     C_2   0.058730 0.493301 0.353859 -0.097171
C9    C     C_2   0.134244 0.520370 0.509352 -0.240303
C10   C     C_2   0.494658 0.031910 0.427067 -0.355833
Cu1   Cu    Cu3+1 0.513740 0.517380 0.684380 0.957768
Cu2   Cu    Cu3+1 0.486260 0.482620 0.315620 0.963413
H1    H     H_    0.879842 0.564198 0.263710 0.147389
H2    H     H_    0.094473 0.470917 0.218904 0.164532
H3    H     H_    0.098864 0.553736 0.644152 0.147350
H4    H     H_    0.484260 0.960441 0.286447 0.179646
H5    H     H_    0.516150 0.039592 0.713545 0.179882
H6    H     H_    0.403620 0.377769 0.948557 0.231346
H7    H     H_    0.596420 0.622178 0.051443 0.225064
N1    N     N_2   0.465540 0.456420 0.038510 -0.217802
N2    N     N_2   0.534460 0.543580 0.961490 -0.219708
O1    O     O_R   0.508930 0.286130 0.619780 -0.586486
O2    O     O_R   0.485720 0.256780 0.308360 -0.582442
O3    O     O_R   0.333540 0.514670 0.655670 -0.586654
O4    O     O_R   0.310330 0.485320 0.344250 -0.583346
O5    O     O_R   0.514280 0.743220 0.691640 -0.583537
O6    O     O_R   0.491070 0.713870 0.380220 -0.585100
O7    O     O_R   0.689670 0.514680 0.655750 -0.596178
O8    O     O_R   0.666460 0.485330 0.344330 -0.581004
C11   C     C_2   0.909270 0.346561 0.603469 0.347427
H8    H     H_    0.869426 0.344886 0.732175 0.082491
O9    O     O_2   0.987139 0.252984 0.552585 -0.530319

loop_
_geom_bond_atom_site_label_1
_geom_bond_atom_site_label_2
_ccdc_geom_bond_type
C4    O5    A    
Cu1   Cu2   S    
C6    C7    D    
C3    C9    S    
Cu2   O8    S    
C5    O7    A    
Cu1   O1    S    
C2    C4    S    
Cu2   O4    S    
Cu2   N1    S    
C9    H3    S    
C1    O1    A    
C7    C11   S    
C10   H4    S    
C2    H5    S    
C11   O9    D    
Cu2   O2    S    
C3    O3    A    
Cu1   O7    S    
C6    C8    S    
H7    N2    S    
C1    O2    A    
C5    O8    A    
C11   H8    S    
Cu2   O6    S    
C2    C10   D    
Cu1   O3    S    
C3    O4    A    
C4    O6    A    
N1    N2    D    
H6    N1    S    
C5    C7    S    
C8    H2    S    
Cu1   O5    S    
Cu1   N2    S    
C1    C10   S    
C8    C9    D    
C6    H1    S    
