data_mof_unit_23224.cif
_audit_creation_date              2012-12-10T19:03:03-0500
_audit_creation_method            fapswitch 2.2
_symmetry_space_group_name_H-M    P1
_symmetry_Int_Tables_number       1
_space_group_crystal_system       triclinic
_cell_length_a                    10.732103
_cell_length_b                    10.796181
_cell_length_c                    9.563612
_cell_angle_alpha                 89.907569
_cell_angle_beta                  90.427568
_cell_angle_gamma                 90.507026
_cell_volume                      1108.01928631

loop_
_atom_site_label
_atom_site_type_symbol
_atom_type_description
_atom_site_fract_x
_atom_site_fract_y
_atom_site_fract_z
_atom_type_partial_charge
C1    C     C_R   0.501856 0.262501 0.500207 0.800285
C2    C     C_3   0.878084 0.499369 0.501483 0.168658
C3    C     C_3   0.928571 0.616697 0.426296 -0.383265
C4    C     C_3   0.926157 0.382739 0.425108 -0.382590
C5    C     C_R   0.472562 0.063447 0.619514 0.139668
C6    C     C_R   0.511610 0.129439 0.502203 -0.098492
C7    C     C_R   0.565802 0.065526 0.390647 -0.228966
C8    C     C_R   0.565515 0.936250 0.390598 -0.230051
C9    C     C_R   0.510989 0.870955 0.501978 -0.096799
C10   C     C_R   0.472141 0.935948 0.619511 0.131126
C11   C     C_3   0.350167 0.929053 0.693745 -0.481824
C12   C     C_R   0.259838 0.499352 0.499895 0.755053
C13   C     C_3   0.351105 0.069554 0.694020 -0.484978
C14   C     C_R   0.586465 0.567874 0.074322 0.157110
C15   C     C_R   0.420932 0.424989 0.073459 0.330355
C16   C     C_R   0.420815 0.426096 0.924368 -0.152458
C17   C     C_R   0.586894 0.567661 0.926823 0.248463
C18   C     C_3   0.603891 0.705308 0.922095 -0.058780
C19   C     C_3   0.603815 0.704818 0.080915 -0.505402
C20   C     C_R   0.501718 0.737592 0.500064 0.789504
C21   C     C_R   0.740111 0.499785 0.500555 0.741801
C22   C     C_3   0.072434 0.498368 0.653112 -0.374406
C23   C     C_3   0.929814 0.498208 0.653517 -0.375438
C24   C     C_3   0.072374 0.616355 0.425462 -0.381572
C25   C     C_3   0.070002 0.382445 0.424946 -0.377263
C26   C     C_3   0.121769 0.499112 0.500596 0.162332
Cu1   Cu    Cu3+1 0.499990 0.499980 0.640670 0.927117
Cu2   Cu    Cu3+1 0.500010 0.500020 0.359330 0.947605
H1    H     H_    0.107642 0.581414 0.710539 0.168057
H2    H     H_    0.891028 0.380915 0.315312 0.168851
H3    H     H_    0.105514 0.619039 0.315474 0.167056
H4    H     H_    0.893114 0.620118 0.316677 0.166695
H5    H     H_    0.604978 0.114955 0.302476 0.152578
H6    H     H_    0.604813 0.888021 0.302620 0.153534
H7    H     H_    0.274456 0.888101 0.628025 0.186570
H8    H     H_    0.358953 0.888710 0.800227 0.188820
H9    H     H_    0.275751 0.110722 0.628875 0.184240
H10   H     H_    0.362009 0.109848 0.800121 0.192292
H11   H     H_    0.106346 0.414910 0.709918 0.161164
H12   H     H_    0.354683 0.369063 0.867058 0.148598
H13   H     H_    0.522408 0.753873 0.876406 0.181350
H14   H     H_    0.694245 0.730989 0.130715 0.193065
H15   H     H_    0.521189 0.752393 0.124040 0.192684
H16   H     H_    0.895282 0.414749 0.710348 0.169028
H17   H     H_    0.897429 0.581098 0.710932 0.168827
H18   H     H_    0.108749 0.701093 0.478559 0.144864
H19   H     H_    0.895290 0.701384 0.480212 0.146462
H20   H     H_    0.102984 0.380243 0.315206 0.169350
H21   H     H_    0.104469 0.297248 0.477716 0.145522
H22   H     H_    0.890789 0.297523 0.477757 0.148570
N1    N     N_R   0.500800 0.500930 0.147930 -0.200044
N2    N     N_R   0.500800 0.500890 0.852020 -0.214272
O1    O     O_R   0.500000 0.319640 0.618810 -0.579100
O2    O     O_R   0.500010 0.319680 0.381230 -0.551514
O3    O     O_R   0.317690 0.499960 0.618790 -0.593913
O4    O     O_R   0.317700 0.500000 0.381210 -0.562928
O5    O     O_R   0.499990 0.680320 0.618770 -0.581536
O6    O     O_R   0.500000 0.680360 0.381190 -0.583593
O7    O     O_R   0.682300 0.500000 0.618790 -0.584149
O8    O     O_R   0.682310 0.500040 0.381210 -0.586488
N3    N     N_2   0.331866 0.351559 0.145341 -0.373955
H23   H     H_    0.241965 0.379490 0.124824 0.216200
C27   C     C_3   0.345325 0.219249 0.128543 -0.697992
H24   H     H_    0.311246 0.190085 0.023753 0.188333
H25   H     H_    0.289178 0.170591 0.209100 0.227327
H26   H     H_    0.444232 0.191890 0.141512 0.239968
C28   C     C_3   0.728175 0.745955 0.858989 -0.845529
H27   H     H_    0.806996 0.693767 0.905798 0.221404
H28   H     H_    0.726243 0.730646 0.744302 0.245173
H29   H     H_    0.743293 0.846324 0.878495 0.231641

loop_
_geom_bond_atom_site_label_1
_geom_bond_atom_site_label_2
_ccdc_geom_bond_type
C2    C4    S    
C1    O2    A    
Cu1   O1    S    
C6    C7    A    
C23   H17   S    
C22   H1    S    
C15   N1    A    
C11   C13   S    
C9    C10   A    
C9    C20   S    
C5    C13   S    
C14   N1    A    
C14   C17   A    
C19   H14   S    
C28   H29   S    
C24   H18   S    
C2    C21   S    
C27   H25   S    
C2    C3    S    
C15   N3    S    
C27   H26   S    
C7    C8    A    
C25   C26   S    
C8    H6    S    
C12   C26   S    
Cu1   O5    S    
C7    H5    S    
C25   H20   S    
C13   H10   S    
C3    H4    S    
C13   H9    S    
C16   H12   S    
C5    C6    A    
C22   H11   S    
C17   N2    A    
C11   H7    S    
C11   H8    S    
C12   O4    A    
C3    C24   S    
C19   H15   S    
C21   O7    A    
Cu2   O6    S    
Cu2   O8    S    
Cu2   O4    S    
N3    H23   S    
C24   C26   S    
Cu2   N1    S    
Cu1   O3    S    
C24   H3    S    
C12   O3    A    
C10   C11   S    
C20   O6    A    
C28   H27   S    
C4    C25   S    
Cu1   Cu2   S    
Cu1   N2    S    
C21   O8    A    
C17   C18   S    
C18   C19   S    
C22   C26   S    
C18   H13   S    
C3    H19   S    
C2    C23   S    
N3    C27   S    
C1    O1    A    
C22   C23   S    
C8    C9    A    
Cu1   O7    S    
C1    C6    S    
C5    C10   A    
C18   C28   S    
Cu2   O2    S    
C20   O5    A    
C14   C19   S    
C15   C16   A    
C4    H2    S    
C23   H16   S    
C16   N2    A    
C4    H22   S    
C27   H24   S    
C28   H28   S    
C25   H21   S    
