data_mof_unit_13006.cif
_audit_creation_date              2012-12-11T16:06:34-0500
_audit_creation_method            fapswitch 2.2
_symmetry_space_group_name_H-M    P1
_symmetry_Int_Tables_number       1
_space_group_crystal_system       orthorhombic
_cell_length_a                    7.18413
_cell_length_b                    14.548967
_cell_length_c                    15.886194
_cell_angle_alpha                 90.0
_cell_angle_beta                  90.0
_cell_angle_gamma                 90.0
_cell_volume                      1660.45153149

loop_
_atom_site_label
_atom_site_type_symbol
_atom_type_description
_atom_site_fract_x
_atom_site_fract_y
_atom_site_fract_z
_atom_type_partial_charge
O1    O     O_R   0.388780 0.834790 0.412340 -0.540547
O2    O     O_R   0.111220 0.165210 0.912340 -0.540546
O3    O     O_R   0.888780 0.665210 0.587660 -0.540547
O4    O     O_R   0.611220 0.334790 0.087660 -0.540546
O5    O     O_R   0.059040 0.845930 0.587040 -0.532244
O6    O     O_R   0.440960 0.154070 0.087040 -0.532243
O7    O     O_R   0.559040 0.654070 0.412960 -0.532244
O8    O     O_R   0.940960 0.345930 0.912960 -0.532244
C1    C     C_R   0.229636 0.869091 0.614550 0.656341
C2    C     C_R   0.270364 0.130909 0.114550 0.656339
C3    C     C_R   0.729636 0.630909 0.385450 0.656339
C4    C     C_R   0.770364 0.369091 0.885450 0.656340
O9    O     O_R   0.059070 0.845930 0.412970 -0.542793
O10   O     O_R   0.440930 0.154070 0.912970 -0.542793
O11   O     O_R   0.559070 0.654070 0.587030 -0.542793
O12   O     O_R   0.940930 0.345930 0.087030 -0.542793
O13   O     O_R   0.888760 0.665210 0.412340 -0.542772
O14   O     O_R   0.611240 0.334790 0.912340 -0.542772
O15   O     O_R   0.388760 0.834790 0.587660 -0.542771
O16   O     O_R   0.111240 0.165210 0.087660 -0.542772
C5    C     C_R   0.228496 0.869602 0.386288 0.675479
C6    C     C_R   0.271504 0.130399 0.886288 0.675481
C7    C     C_R   0.728496 0.630399 0.613712 0.675481
C8    C     C_R   0.771504 0.369602 0.113712 0.675479
O17   O     O_3   0.222280 0.690700 0.500000 -0.377089
O18   O     O_3   0.277720 0.309300 0.000000 -0.377089
O19   O     O_3   0.722280 0.809300 0.500000 -0.377089
O20   O     O_3   0.777720 0.190700 0.000000 -0.377088
V1    V     V_3+5 0.947430 0.761000 0.500000 1.361972
V2    V     V_3+5 0.552570 0.239000 0.000000 1.361973
V3    V     V_3+5 0.447430 0.739000 0.500000 1.361973
V4    V     V_3+5 0.052570 0.261000 0.000000 1.361973
C9    C     C_3   0.803554 0.606560 0.767231 -0.324342
C10   C     C_3   0.696447 0.393440 0.267231 -0.324342
C11   C     C_3   0.303554 0.893440 0.232769 -0.324342
C12   C     C_3   0.196440 0.106559 0.732769 -0.324341
H1    H     H_    0.697772 0.658707 0.785686 0.125707
H2    H     H_    0.802230 0.341293 0.285687 0.125707
H3    H     H_    0.197771 0.841293 0.214313 0.125707
H4    H     H_    0.302218 0.158709 0.714313 0.125707
C13   C     C_3   0.827133 0.535917 0.840614 -0.021718
C14   C     C_3   0.672868 0.464083 0.340615 -0.021718
C15   C     C_3   0.327132 0.964083 0.159386 -0.021718
C16   C     C_3   0.172863 0.035916 0.659386 -0.021721
C17   C     C_3   0.872759 0.476448 0.662087 0.068203
C18   C     C_3   0.627240 0.523552 0.162087 0.068204
C19   C     C_3   0.372760 0.023552 0.337913 0.068203
C20   C     C_3   0.127246 0.976446 0.837914 0.068201
C21   C     C_3   0.545562 0.516835 0.700489 -0.365145
C22   C     C_3   0.954437 0.483165 0.200488 -0.365143
C23   C     C_3   0.045562 0.983165 0.299512 -0.365144
C24   C     C_3   0.454439 0.016838 0.799509 -0.365147
C25   C     C_3   0.740469 0.559311 0.684309 -0.059405
C26   C     C_3   0.759531 0.440689 0.184309 -0.059405
C27   C     C_3   0.240469 0.940689 0.315691 -0.059405
C28   C     C_3   0.259531 0.059311 0.815691 -0.059404
C29   C     C_3   0.753408 0.438370 0.812422 -0.010574
C30   C     C_3   0.746592 0.561631 0.312422 -0.010574
C31   C     C_3   0.253408 0.061631 0.187578 -0.010574
C32   C     C_3   0.246592 0.938370 0.687577 -0.010574
C33   C     C_3   0.879849 0.406158 0.736555 0.087165
C34   C     C_3   0.620150 0.593842 0.236555 0.087165
C35   C     C_3   0.379849 0.093842 0.263445 0.087164
C36   C     C_3   0.120155 0.906157 0.763446 0.087164
C37   C     C_3   0.542499 0.452799 0.779838 0.411590
C38   C     C_3   0.957501 0.547202 0.279838 0.411589
C39   C     C_3   0.042499 0.047202 0.220162 0.411589
C40   C     C_3   0.457502 0.952801 0.720160 0.411591
H5    H     H_    0.933017 0.646405 0.756526 0.167631
H6    H     H_    0.566985 0.353594 0.256527 0.167632
H7    H     H_    0.433016 0.853595 0.243474 0.167632
H8    H     H_    0.066975 0.146402 0.743476 0.167632
N1    N     N_3   0.455584 0.364392 0.755907 -0.681991
H9    H     H_    0.389733 0.333846 0.807348 0.262415
H10   H     H_    0.345563 0.375631 0.714059 0.239348
N2    N     N_3   0.044415 0.635608 0.255907 -0.681992
H11   H     H_    0.110264 0.666155 0.307348 0.262414
H12   H     H_    0.154437 0.624370 0.214059 0.239349
N3    N     N_3   0.955585 0.135608 0.244093 -0.681992
H13   H     H_    0.889735 0.166155 0.192652 0.262414
H14   H     H_    0.845563 0.124369 0.285940 0.239349
N4    N     N_3   0.544420 0.864395 0.744090 -0.681990
H15   H     H_    0.610272 0.833849 0.692649 0.262416
H16   H     H_    0.654441 0.875634 0.785938 0.239347
H17   H     H_    0.812464 0.441866 0.605689 0.111034
H18   H     H_    0.687534 0.558134 0.105690 0.111034
H19   H     H_    0.312465 0.058134 0.394310 0.111034
H20   H     H_    0.187546 0.941864 0.894310 0.111036
N5    N     N_3   0.838760 0.312773 0.706093 -0.708143
H21   H     H_    0.825708 0.266848 0.756251 0.223439
H22   H     H_    0.715917 0.311150 0.671080 0.258959
N6    N     N_3   0.661238 0.687226 0.206093 -0.708144
H23   H     H_    0.674290 0.733152 0.256250 0.223439
H24   H     H_    0.784081 0.688850 0.171080 0.258959
N7    N     N_3   0.338762 0.187227 0.293907 -0.708144
H25   H     H_    0.325710 0.233152 0.243749 0.223440
H26   H     H_    0.215918 0.188850 0.328920 0.258959
N8    N     N_3   0.161246 0.812772 0.793906 -0.708142
H27   H     H_    0.174294 0.766847 0.743749 0.223439
H28   H     H_    0.284092 0.811149 0.828918 0.258959
H29   H     H_    0.743645 0.560446 0.895214 0.092520
H30   H     H_    0.756357 0.439554 0.395214 0.092520
H31   H     H_    0.243643 0.939554 0.104786 0.092520
H32   H     H_    0.256349 0.060447 0.604786 0.092520
N9    N     N_3   0.022248 0.533133 0.868234 -0.631301
H33   H     H_    0.027248 0.505652 0.928957 0.233761
H34   H     H_    0.070521 0.600419 0.876130 0.240660
N10   N     N_3   0.477753 0.466867 0.368235 -0.631302
H35   H     H_    0.472753 0.494348 0.428957 0.233761
H36   H     H_    0.429482 0.399580 0.376131 0.240659
N11   N     N_3   0.522248 0.966867 0.131765 -0.631301
H37   H     H_    0.527247 0.994348 0.071043 0.233761
H38   H     H_    0.570519 0.899580 0.123869 0.240659
N12   N     N_3   0.977747 0.033131 0.631767 -0.631300
H39   H     H_    0.972748 0.005651 0.571044 0.233762
H40   H     H_    0.929472 0.100417 0.623872 0.240661
N13   N     N_3   0.063587 0.503294 0.639518 -0.677911
H41   H     H_    0.111534 0.556721 0.677497 0.257343
H42   H     H_    0.069014 0.523741 0.576497 0.237876
N14   N     N_3   0.436411 0.496706 0.139519 -0.677911
H43   H     H_    0.388466 0.443277 0.177498 0.257343
H44   H     H_    0.430984 0.476259 0.076498 0.237876
N15   N     N_3   0.563588 0.996706 0.360482 -0.677911
H45   H     H_    0.611534 0.943278 0.322503 0.257343
H46   H     H_    0.569015 0.976259 0.423502 0.237876
N16   N     N_3   0.936418 0.003290 0.860486 -0.677913
H47   H     H_    0.888465 0.056717 0.822507 0.257342
H48   H     H_    0.930995 0.023738 0.923506 0.237876
H49   H     H_    0.025359 0.403492 0.760356 0.204769
H50   H     H_    0.474640 0.596507 0.260356 0.204770
H51   H     H_    0.525359 0.096507 0.239644 0.204770
H52   H     H_    0.974644 0.903491 0.739646 0.204766
H53   H     H_    0.502900 0.479001 0.642674 0.139266
H54   H     H_    0.997098 0.520999 0.142673 0.139266
H55   H     H_    0.002901 0.020999 0.357326 0.139266
H56   H     H_    0.497106 0.979005 0.857324 0.139267
H57   H     H_    0.440281 0.572327 0.707924 0.171175
H58   H     H_    0.059720 0.427674 0.207923 0.171176
H59   H     H_    0.940280 0.927674 0.292077 0.171176
H60   H     H_    0.559718 0.072330 0.792073 0.171173
N17   N     N_3   0.423029 0.497172 0.844123 -0.652644
H61   H     H_    0.449501 0.567576 0.849251 0.207417
H62   H     H_    0.441385 0.469382 0.903933 0.234548
N18   N     N_3   0.076972 0.502829 0.344122 -0.652644
H63   H     H_    0.050501 0.432425 0.349250 0.207417
H64   H     H_    0.058617 0.530619 0.403932 0.234549
N19   N     N_3   0.923028 0.002829 0.155877 -0.652643
H65   H     H_    0.949500 0.932425 0.150749 0.207417
H66   H     H_    0.941384 0.030619 0.096068 0.234549
N20   N     N_3   0.576967 0.997174 0.655874 -0.652645
H67   H     H_    0.550494 0.067578 0.650746 0.207416
H68   H     H_    0.558609 0.969385 0.596064 0.234546

loop_
_geom_bond_atom_site_label_1
_geom_bond_atom_site_label_2
_ccdc_geom_bond_type
O17   V3    S    
C30   C34   S    
N16   H47   S    
C21   H57   S    
C15   C31   S    
O19   V1    S    
O13   V1    S    
N1    H9    S    
C34   H50   S    
O3    C7    A    
N7    H25   S    
C10   C14   S    
O15   V3    S    
C14   C30   S    
N12   H39   S    
C16   H32   S    
N15   H45   S    
O1    C5    A    
N9    H34   S    
C30   C38   S    
C22   C26   S    
C13   N9    S    
C18   C34   S    
C18   N14   S    
O9    V1    S    
N19   H66   S    
N2    H12   S    
N13   H42   S    
C19   C35   S    
O4    C8    A    
C20   C36   S    
C38   N18   S    
C8    C26   S    
C35   N7    S    
O1    V3    S    
C37   N1    S    
N10   H35   S    
O2    V4    S    
O3    V1    S    
N19   H65   S    
C31   C39   S    
C23   H55   S    
C1    O15   A    
C36   H52   S    
C2    O16   A    
C34   N6    S    
O2    C6    A    
C20   H20   S    
C7    C25   S    
O14   V2    S    
C35   H51   S    
N5    H22   S    
C3    C30   S    
C11   C15   S    
C10   H6    S    
C24   C40   S    
C33   H49   S    
O11   C7    A    
C36   N8    S    
C19   C27   S    
C11   H7    S    
O12   C8    A    
N1    H10   S    
C15   N11   S    
O10   V2    S    
C14   H30   S    
C33   N5    S    
O7    C3    A    
O5    V1    S    
C9    C25   S    
C13   C29   S    
O7    V3    S    
C11   C27   S    
O8    V4    S    
C12   H4    S    
C39   N3    S    
N2    H11   S    
N18   H64   S    
C22   H54   S    
N3    H14   S    
O18   V4    S    
C6    C28   S    
C17   C25   S    
C9    H1    S    
C19   H19   S    
C11   H3    S    
O5    C1    A    
C12   C28   S    
C37   N17   S    
C19   N15   S    
O8    C4    A    
C38   N2    S    
C18   C26   S    
N6    H24   S    
O9    C5    A    
N11   H38   S    
C23   C39   S    
O11   V3    S    
C22   C38   S    
C21   C37   S    
C4    C29   S    
O6    V2    S    
C10   C26   S    
N4    H16   S    
C39   N19   S    
C24   H56   S    
N20   H68   S    
C12   C16   S    
N14   H43   S    
N14   H44   S    
C5    C27   S    
O16   V4    S    
C17   N13   S    
C20   C28   S    
C40   N20   S    
C21   H53   S    
C3    O13   A    
N16   H48   S    
N11   H37   S    
C10   H2    S    
C31   C35   S    
C29   C37   S    
N18   H63   S    
O6    C2    A    
N12   H40   S    
N7    H26   S    
C29   C33   S    
C9    H5    S    
O12   V4    S    
N9    H33   S    
N8    H28   S    
N20   H67   S    
C17   H17   S    
C32   C36   S    
C1    C32   S    
C40   N4    S    
O10   C6    A    
N17   H62   S    
C2    C31   S    
C9    C13   S    
O20   V2    S    
N17   H61   S    
N10   H36   S    
C16   C32   S    
C21   C25   S    
C17   C33   S    
N6    H23   S    
C24   H60   S    
C13   H29   S    
C23   C27   S    
C16   N12   S    
C15   H31   S    
N15   H46   S    
C20   N16   S    
N3    H13   S    
C12   H8    S    
C32   C40   S    
N8    H27   S    
C4    O14   A    
C22   H58   S    
N4    H15   S    
N5    H21   S    
N13   H41   S    
C14   N10   S    
O4    V2    S    
C24   C28   S    
C18   H18   S    
C23   H59   S    
