data_mof_unit_67939.cif
_audit_creation_date              2013-03-05T16:22:15-0500
_audit_creation_method            fapswitch 2.2
_symmetry_space_group_name_H-M    P1
_symmetry_Int_Tables_number       1
_space_group_crystal_system       triclinic
_cell_length_a                    10.540181
_cell_length_b                    10.529096
_cell_length_c                    9.890803
_cell_angle_alpha                 87.241342
_cell_angle_beta                  91.781016
_cell_angle_gamma                 90.120929
_cell_volume                      1095.86532717

loop_
_atom_site_label
_atom_site_type_symbol
_atom_site_description
_atom_site_fract_x
_atom_site_fract_y
_atom_site_fract_z
_atom_type_partial_charge
O1    O     O_R   0.500010 0.313960 0.616610 -0.644076
O2    O     O_R   0.499990 0.686040 0.383390 -0.635815
O3    O     O_R   0.500060 0.313950 0.383350 -0.579110
O4    O     O_R   0.499940 0.686050 0.616650 -0.589340
C1    C     C_R   0.498043 0.257683 0.502565 0.867290
C2    C     C_R   0.500406 0.742212 0.497375 0.889902
O5    O     O_R   0.313930 0.499970 0.616610 -0.634804
O6    O     O_R   0.686070 0.500030 0.383390 -0.626784
O7    O     O_R   0.313980 0.499960 0.383350 -0.580440
O8    O     O_R   0.686020 0.500040 0.616650 -0.599827
C3    C     C_R   0.258433 0.500624 0.498332 0.933140
C4    C     C_R   0.741878 0.500413 0.501139 0.919053
Zn1   Zn    Zn3+2 0.499970 0.500010 0.655740 0.982876
Zn2   Zn    Zn3+2 0.500030 0.499990 0.344260 0.999762
C5    C     C_3   0.048077 0.508906 0.626414 -0.252567
C6    C     C_3   0.952680 0.494613 0.369144 -0.235195
C7    C     C_3   0.962869 0.402950 0.572690 0.370149
C8    C     C_3   0.038507 0.600581 0.422449 0.368498
H1    H     H_    0.087715 0.512936 0.731485 0.207037
H2    H     H_    0.912247 0.491480 0.264344 0.197572
C9    C     C_3   0.876830 0.502092 0.500505 -0.197791
C10   C     C_3   0.123987 0.501296 0.495925 -0.203995
C11   C     C_3   0.961768 0.609557 0.550405 -0.023284
C12   C     C_3   0.039346 0.394070 0.444709 -0.009554
C13   C     C_3   0.495662 0.030024 0.630227 -0.148310
C14   C     C_3   0.499953 0.969354 0.369393 -0.127838
C15   C     C_3   0.601828 0.953990 0.567023 -0.123447
C16   C     C_3   0.393913 0.045628 0.432688 -0.114222
H3    H     H_    0.688091 0.914622 0.620356 0.181298
H4    H     H_    0.307404 0.085001 0.379894 0.174499
H5    H     H_    0.489569 0.051638 0.737667 0.153074
H6    H     H_    0.503100 0.944405 0.262577 0.152606
C17   C     C_3   0.499669 0.877727 0.493715 0.011081
C18   C     C_3   0.496305 0.121918 0.506041 0.013166
C19   C     C_3   0.393614 0.951329 0.556855 -0.179363
C20   C     C_3   0.602220 0.048020 0.442680 -0.157234
H7    H     H_    0.308623 0.907821 0.603749 0.145105
H8    H     H_    0.687626 0.090997 0.396074 0.160768
C21   C     C_3   0.417492 0.423826 0.048294 0.403325
C22   C     C_3   0.582191 0.576924 0.952189 0.407405
C23   C     C_3   0.525895 0.388982 0.960311 0.041127
C24   C     C_3   0.473592 0.611415 0.040517 0.016731
N1    N     N_3   0.499910 0.500030 0.863290 -0.146166
N2    N     N_3   0.500090 0.499970 0.136710 -0.152136
C25   C     C_3   0.389543 0.533502 0.944940 -0.217896
C26   C     C_3   0.609984 0.466517 0.055632 -0.228818
H9    H     H_    0.296245 0.558106 0.895490 0.170070
H10   H     H_    0.702492 0.439617 0.105613 0.170512
N3    N     N_R   0.921309 0.293071 0.653964 0.187864
O9    O     O_R   0.971183 0.270097 0.774506 -0.413768
O10   O     O_R   0.847508 0.209246 0.599746 -0.508087
N4    N     N_R   0.079352 0.709551 0.338249 0.202036
O11   O     O_R   0.996770 0.771052 0.259874 -0.404622
O12   O     O_R   0.194697 0.752567 0.349527 -0.471175
C27   C     C_3   0.917487 0.732874 0.608259 -0.345906
C28   C     C_3   0.030723 0.812218 0.656844 -0.377045
C29   C     C_3   0.987013 0.924545 0.734523 -0.775451
H11   H     H_    0.919619 0.983600 0.670522 0.298638
H12   H     H_    0.939836 0.890112 0.828265 0.293008
H13   H     H_    0.070070 0.983775 0.762920 0.258200
H14   H     H_    0.095728 0.753103 0.724318 0.228668
H15   H     H_    0.084261 0.848674 0.568225 0.246626
H16   H     H_    0.861174 0.788055 0.528920 0.193866
H17   H     H_    0.855381 0.708405 0.693754 0.278176
C30   C     C_3   0.087473 0.270173 0.389975 -0.354370
C31   C     C_3   0.987642 0.209163 0.297484 -0.348463
C32   C     C_3   0.032336 0.080344 0.253553 -0.715055
H18   H     H_    0.120253 0.091680 0.195242 0.286785
H19   H     H_    0.051027 0.015046 0.343528 0.274131
H20   H     H_    0.957750 0.037938 0.187958 0.262109
H21   H     H_    0.897130 0.196103 0.350675 0.244594
H22   H     H_    0.969162 0.272171 0.205613 0.252470
H23   H     H_    0.173818 0.290893 0.332035 0.260045
H24   H     H_    0.114080 0.203719 0.476913 0.199072
C33   C     C_3   0.552587 0.252207 0.928000 -0.436391
C34   C     C_3   0.687159 0.233697 0.878402 -0.265127
C35   C     C_3   0.735664 0.099149 0.914350 -0.792770
H25   H     H_    0.738007 0.080131 0.025951 0.241940
H26   H     H_    0.674638 0.027180 0.866313 0.276053
H27   H     H_    0.833491 0.089321 0.878809 0.302146
H28   H     H_    0.686824 0.252304 0.767589 0.291003
H29   H     H_    0.754612 0.301318 0.924944 0.247804
H30   H     H_    0.542512 0.194613 0.023836 0.230514
H31   H     H_    0.479135 0.220787 0.854907 0.215342
C36   C     C_3   0.438897 0.743222 0.084963 -0.321876
C37   C     C_3   0.366879 0.821273 0.971899 -0.403427
C38   C     C_3   0.343929 0.956730 0.012477 -0.786884
H32   H     H_    0.288732 0.956330 0.106313 0.292565
H33   H     H_    0.436047 0.004856 0.029917 0.255985
H34   H     H_    0.290033 0.010284 0.930066 0.254232
H35   H     H_    0.420862 0.824499 0.877267 0.266860
H36   H     H_    0.273238 0.776533 0.950626 0.236469
H37   H     H_    0.376510 0.732420 0.172807 0.268941
H38   H     H_    0.528211 0.791967 0.114450 0.207018
N5    N     N_R   0.321111 0.338114 0.102615 0.201553
O13   O     O_R   0.202004 0.358554 0.070846 -0.406849
O14   O     O_R   0.354170 0.233164 0.168528 -0.474447
N6    N     N_R   0.679784 0.661985 0.899506 0.201867
O15   O     O_R   0.797937 0.642387 0.936286 -0.414961
O16   O     O_R   0.648314 0.767016 0.832932 -0.467938

loop_
_geom_bond_atom_site_label_1
_geom_bond_atom_site_label_2
_geom_bond_distance
_ccdc_geom_bond_type
C13   H5    1.101256 S    
C38   H32   1.110442 S    
C14   H6    1.102369 S    
C6    C9    1.551813 S    
C15   H3    1.107932 S    
N5    O13   1.300459 A    
C27   C28   1.533660 S    
C8    N4    1.457234 S    
C21   C23   1.513834 S    
C36   C37   1.537385 S    
C15   C17   1.527677 S    
O5    C3    1.291312 A    
O1    C1    1.298749 A    
C19   H7    1.109555 S    
C37   H35   1.109477 S    
C22   N6    1.454747 S    
C33   H31   1.103927 S    
C29   H12   1.110813 S    
C30   H23   1.106270 S    
C28   C29   1.520891 S    
C5    C10   1.544913 S    
C25   H9    1.110107 S    
O4    Zn1   1.978284 S    
C36   H37   1.107207 S    
C22   N1    1.482878 S    
C31   H22   1.111431 S    
C16   C19   1.541732 S    
N4    O12   1.299909 A    
N3    O10   1.299369 A    
C27   H16   1.110983 S    
C23   C26   1.536220 S    
C18   C20   1.529213 S    
C6    H2    1.110375 S    
C13   C18   1.526767 S    
C21   C25   1.527881 S    
C5    C11   1.549437 S    
C31   C32   1.523995 S    
C16   C18   1.529738 S    
C6    C12   1.548935 S    
C27   H17   1.105747 S    
C23   N1    1.496662 S    
O2    C2    1.297967 A    
C24   N2    1.495838 S    
N2    C26   1.481705 S    
C35   H26   1.107841 S    
C26   H10   1.110438 S    
C7    C12   1.528397 S    
C32   H18   1.109831 S    
C34   C35   1.529057 S    
O4    C2    1.294080 A    
C34   H29   1.110580 S    
O7    Zn2   2.010503 S    
C37   C38   1.521958 S    
C29   H13   1.110617 S    
C35   H25   1.111830 S    
C4    C9    1.422704 S    
C7    C9    1.521128 S    
C30   H24   1.111556 S    
C8    C11   1.529820 S    
C32   H19   1.110965 S    
C24   C25   1.539796 S    
C5    H1    1.110641 S    
C33   C34   1.531059 S    
C23   C33   1.518823 S    
O7    C3    1.295524 A    
C36   H38   1.109052 S    
C14   C17   1.526040 S    
C31   H21   1.108836 S    
O6    C4    1.288508 A    
C1    C18   1.428331 S    
C24   C36   1.524420 S    
N1    C25   1.489013 S    
C21   N5    1.455504 S    
O3    Zn2   1.978284 S    
O8    C4    1.301270 A    
C12   C30   1.529706 S    
C13   C19   1.541348 S    
C14   C20   1.542343 S    
N6    O15   1.300585 A    
N6    O16   1.297866 A    
C9    C11   1.532131 S    
C10   C12   1.532920 S    
O1    Zn1   2.015001 S    
C22   C26   1.533722 S    
C7    N3    1.451479 S    
Zn1   N1    2.052865 S    
N4    O11   1.299995 A    
Zn2   N2    2.052865 S    
C35   H27   1.106325 S    
C5    C7    1.535172 S    
O6    Zn2   1.986892 S    
C8    C10   1.524095 S    
C22   C24   1.516514 S    
O3    C1    1.294628 A    
O8    Zn1   2.010502 S    
C34   H28   1.103975 S    
N5    O14   1.298343 A    
C11   C27   1.523759 S    
C21   N2    1.477396 S    
C15   C20   1.541381 S    
C13   C15   1.542507 S    
C3    C10   1.416576 S    
C14   C16   1.543302 S    
C2    C17   1.425604 S    
C32   H20   1.110414 S    
C20   H8    1.109777 S    
C37   H36   1.111306 S    
C33   H30   1.108228 S    
C29   H11   1.108138 S    
C16   H4    1.107755 S    
C17   C19   1.527675 S    
C28   H15   1.109724 S    
C30   C31   1.533166 S    
O2    Zn2   2.015001 S    
O5    Zn1   1.986893 S    
C6    C8    1.537516 S    
N3    O9    1.300059 A    
C38   H34   1.110581 S    
C38   H33   1.106879 S    
C28   H14   1.111595 S    
