data_mof_unit_56147.cif
_audit_creation_date              2012-12-10T16:47:50-0500
_audit_creation_method            fapswitch 2.2
_symmetry_space_group_name_H-M    P1
_symmetry_Int_Tables_number       1
_space_group_crystal_system       triclinic
_cell_length_a                    7.814321
_cell_length_b                    8.610067
_cell_length_c                    10.619157
_cell_angle_alpha                 90.882981
_cell_angle_beta                  86.348406
_cell_angle_gamma                 93.219148
_cell_volume                      711.850418325

loop_
_atom_site_label
_atom_site_type_symbol
_atom_type_description
_atom_site_fract_x
_atom_site_fract_y
_atom_site_fract_z
_atom_type_partial_charge
C1    C     C_R   0.544354 0.794210 0.502573 0.929105
C2    C     C_2   0.563744 0.957650 0.504128 -0.442794
C3    C     C_R   0.785729 0.683789 0.108991 0.158662
C4    C     C_R   0.949221 0.655537 0.052845 -0.173435
C5    C     C_R   0.094800 0.741358 0.090489 -0.142427
C6    C     C_R   0.079515 0.853933 0.185912 -0.108500
C7    C     C_R   0.917804 0.884095 0.241374 -0.130521
C8    C     C_R   0.771159 0.801066 0.202040 -0.095315
C9    C     C_2   0.428127 0.046104 0.528348 -0.083221
C10   C     C_R   0.502419 0.497100 0.737084 0.919801
C11   C     C_R   0.454697 0.206485 0.508518 0.953336
C12   C     C_R   0.499523 0.513054 0.263288 0.924168
C13   C     C_2   0.629438 0.603495 0.059487 0.048884
C14   C     C_2   0.494930 0.543205 0.132152 -0.402491
C15   C     C_2   0.616822 0.599174 0.923231 -0.225793
C16   C     C_2   0.510648 0.495455 0.869151 -0.326635
H1    H     H_    0.371785 0.513159 0.094351 0.144307
H2    H     H_    0.646033 0.830527 0.241784 0.102564
H3    H     H_    0.192027 0.932500 0.509189 0.222385
H4    H     H_    0.269233 0.924203 0.658602 0.216138
H5    H     H_    0.943465 0.495229 0.704762 0.208742
H6    H     H_    0.885024 0.666787 0.638053 0.222382
H7    H     H_    0.698371 0.680737 0.865721 0.150664
H8    H     H_    0.429968 0.407379 0.919412 0.136768
H9    H     H_    0.691167 0.006963 0.476101 0.163748
H10   H     H_    0.012349 0.405676 0.390252 0.180676
H11   H     H_    0.963662 0.569030 0.978335 0.137220
H12   H     H_    0.219127 0.722715 0.044023 0.143476
H13   H     H_    0.192569 0.919781 0.215220 0.124579
H14   H     H_    0.906209 0.974253 0.312879 0.123640
N1    N     N_2   0.950320 0.457950 0.466680 -0.145697
N2    N     N_2   0.049680 0.542050 0.533320 -0.038673
N3    N     N_3   0.259652 0.991943 0.578681 -0.443794
N4    N     N_3   0.982819 0.592261 0.650159 -0.364645
O1    O     O_R   0.389250 0.738570 0.508180 -0.610512
O2    O     O_R   0.678390 0.711630 0.486820 -0.636946
O3    O     O_R   0.355470 0.513470 0.691600 -0.604182
O4    O     O_R   0.644610 0.486520 0.670240 -0.645021
O5    O     O_R   0.321610 0.288370 0.513180 -0.612728
O6    O     O_R   0.610750 0.261430 0.491820 -0.634503
O7    O     O_R   0.355390 0.513480 0.329760 -0.628748
O8    O     O_R   0.644530 0.486530 0.308400 -0.599216
Zn1   Zn    Zn3+2 0.306940 0.517990 0.514260 0.952218
Zn2   Zn    Zn3+2 0.693060 0.482010 0.485740 0.932334

loop_
_geom_bond_atom_site_label_1
_geom_bond_atom_site_label_2
_ccdc_geom_bond_type
O3    Zn1   S    
C9    N3    S    
O4    Zn2   S    
C6    C7    A    
C5    H12   S    
O1    Zn1   S    
O7    Zn1   S    
N1    N2    D    
C3    C13   S    
C10   O4    A    
C4    H11   S    
C15   H7    S    
C7    C8    A    
C16   H8    S    
C7    H14   S    
C10   C16   S    
C13   C14   D    
C11   O5    A    
C9    C11   S    
C14   H1    S    
C5    C6    A    
O8    Zn2   S    
C10   O3    A    
H4    N3    S    
N2    Zn1   S    
C12   C14   S    
C1    C2    S    
C2    H9    S    
C13   C15   S    
C11   O6    A    
H6    N4    S    
O2    Zn2   S    
N1    Zn2   S    
C12   O8    A    
C15   C16   D    
O6    Zn2   S    
C6    H13   S    
C1    O1    A    
C12   O7    A    
C3    C8    A    
H3    N3    S    
O5    Zn1   S    
H5    N4    S    
C2    C9    D    
H10   N1    S    
C8    H2    S    
C3    C4    A    
C1    O2    A    
C4    C5    A    
N2    N4    S    
