data_mof_unit_62781.cif
_audit_creation_date              2012-12-10T17:01:01-0500
_audit_creation_method            fapswitch 2.2
_symmetry_space_group_name_H-M    P1
_symmetry_Int_Tables_number       1
_space_group_crystal_system       triclinic
_cell_length_a                    21.727818
_cell_length_b                    21.726673
_cell_length_c                    55.751689
_cell_angle_alpha                 89.08052
_cell_angle_beta                  90.316208
_cell_angle_gamma                 89.72995
_cell_volume                      26314.784856

loop_
_atom_site_label
_atom_site_type_symbol
_atom_type_description
_atom_site_fract_x
_atom_site_fract_y
_atom_site_fract_z
_atom_type_partial_charge
C1    C     C_R   0.502356 0.618968 0.999787 0.928183
C2    C     C_R   0.381005 0.502259 0.999880 0.928918
C3    C     C_R   0.497645 0.381032 0.000293 0.928501
C4    C     C_R   0.618995 0.497742 0.000200 0.929205
C5    C     C_R   0.002356 0.118968 0.499787 0.928742
C6    C     C_R   0.881005 0.002259 0.499880 0.929435
C7    C     C_R   0.997645 0.881032 0.500293 0.928709
C8    C     C_R   0.118995 0.997742 0.500200 0.929676
C9    C     C_R   0.954091 0.534675 0.762441 0.071316
C10   C     C_R   0.458577 0.037915 0.762379 0.071846
C11   C     C_R   0.048019 0.470566 0.763152 0.071083
C12   C     C_R   0.536516 0.955133 0.763241 0.072175
C13   C     C_R   0.453972 0.034150 0.262452 0.071434
C14   C     C_R   0.954251 0.532850 0.262435 0.072844
C15   C     C_R   0.550934 0.974736 0.263134 0.071373
C16   C     C_R   0.040180 0.458450 0.263199 0.072614
C17   C     C_R   0.001190 0.502951 0.775382 0.071663
C18   C     C_R   0.497668 0.996795 0.775396 0.072417
C19   C     C_R   0.502445 0.004574 0.275380 0.071658
C20   C     C_R   0.997314 0.495895 0.275404 0.073065
C21   C     C_R   0.905917 0.562359 0.775501 -0.220363
C22   C     C_R   0.424419 0.081907 0.775285 -0.219506
C23   C     C_R   0.096607 0.443783 0.776798 -0.220739
C24   C     C_R   0.570753 0.911542 0.776993 -0.221738
C25   C     C_R   0.404408 0.059284 0.275514 -0.220223
C26   C     C_R   0.915998 0.573337 0.275339 -0.220956
C27   C     C_R   0.600583 0.950070 0.276799 -0.220370
C28   C     C_R   0.078560 0.418406 0.276917 -0.220547
C29   C     C_R   0.905823 0.561428 0.800402 -0.141726
C30   C     C_R   0.426300 0.083169 0.800168 -0.141966
C31   C     C_R   0.097118 0.445782 0.801670 -0.141762
C32   C     C_R   0.569465 0.911392 0.801887 -0.139050
C33   C     C_R   0.404145 0.058015 0.300413 -0.141583
C34   C     C_R   0.917866 0.574877 0.300219 -0.139644
C35   C     C_R   0.600696 0.951618 0.301679 -0.141741
C36   C     C_R   0.077204 0.417963 0.301817 -0.138943
C37   C     C_R   0.953586 0.532837 0.813258 -0.020391
C38   C     C_R   0.462168 0.040669 0.813145 -0.019762
C39   C     C_R   0.049391 0.474642 0.813894 -0.020508
C40   C     C_R   0.534004 0.954574 0.814009 -0.020362
C41   C     C_R   0.453094 0.031554 0.313266 -0.020414
C42   C     C_R   0.957795 0.536118 0.313174 -0.019498
C43   C     C_R   0.551520 0.977943 0.313901 -0.020417
C44   C     C_R   0.037653 0.457399 0.313977 -0.020171
C45   C     C_R   0.001408 0.503512 0.800829 -0.059037
C46   C     C_R   0.497947 0.997348 0.800837 -0.059314
C47   C     C_R   0.502372 0.004728 0.300833 -0.058821
C48   C     C_R   0.997572 0.496454 0.300840 -0.059437
C49   C     C_R   0.954242 0.532122 0.838403 0.503661
C50   C     C_R   0.463623 0.040875 0.838280 0.503602
C51   C     C_R   0.048733 0.475738 0.839018 0.503351
C52   C     C_R   0.533170 0.955550 0.839136 0.503401
C53   C     C_R   0.453562 0.030535 0.338411 0.503756
C54   C     C_R   0.959430 0.536609 0.338306 0.503342
C55   C     C_R   0.550535 0.978571 0.339030 0.503729
C56   C     C_R   0.036746 0.458241 0.339107 0.503845
C57   C     C_R   0.456386 0.037308 0.237019 -0.000206
C58   C     C_R   0.951441 0.528929 0.237076 -0.000320
C59   C     C_R   0.548340 0.970669 0.237759 -0.000247
C60   C     C_R   0.042858 0.461692 0.237786 -0.000244
C61   C     C_R   0.956497 0.537441 0.737000 -0.000321
C62   C     C_R   0.455242 0.034029 0.737006 -0.000757
C63   C     C_R   0.044969 0.466244 0.737800 -0.001174
C64   C     C_R   0.539411 0.957846 0.737837 -0.000142
C65   C     C_R   0.502273 0.003703 0.224739 0.068162
C66   C     C_R   0.997189 0.495255 0.224772 0.073013
C67   C     C_R   0.000640 0.501521 0.724751 0.068088
C68   C     C_R   0.497116 0.995479 0.724770 0.070538
C69   C     C_R   0.589916 0.933713 0.224979 -0.323374
C70   C     C_R   0.090511 0.433121 0.224970 -0.330160
C71   C     C_R   0.414656 0.073703 0.223443 -0.323291
C72   C     C_R   0.903725 0.557151 0.223629 -0.330807
C73   C     C_R   0.084304 0.426813 0.725080 -0.323023
C74   C     C_R   0.584275 0.924923 0.725091 -0.329410
C75   C     C_R   0.916489 0.575655 0.723386 -0.323749
C76   C     C_R   0.410884 0.067173 0.723455 -0.323310
C77   C     C_R   0.501225 0.001055 0.123591 0.288771
C78   C     C_R   0.998666 0.496673 0.123691 0.302549
C79   C     C_R   0.000497 0.499491 0.623616 0.289494
C80   C     C_R   0.499558 0.996917 0.623670 0.296519
C81   C     C_R   0.587609 0.929840 0.200075 0.507673
C82   C     C_R   0.091155 0.432869 0.199982 0.511053
C83   C     C_R   0.416515 0.076338 0.198477 0.507942
C84   C     C_R   0.903388 0.557464 0.198634 0.511608
C85   C     C_R   0.081802 0.422978 0.700180 0.509382
C86   C     C_R   0.585161 0.924715 0.700105 0.511431
C87   C     C_R   0.918495 0.578088 0.698418 0.508617
C88   C     C_R   0.408524 0.064542 0.698519 0.510114
C89   C     C_R   0.544891 0.966092 0.186893 -0.108959
C90   C     C_R   0.044681 0.464310 0.186873 -0.109138
C91   C     C_R   0.458954 0.039398 0.186094 -0.109151
C92   C     C_R   0.950180 0.526269 0.186198 -0.108997
C93   C     C_R   0.041380 0.461684 0.686950 -0.110908
C94   C     C_R   0.541826 0.960252 0.686933 -0.109114
C95   C     C_R   0.959241 0.539224 0.686072 -0.109076
C96   C     C_R   0.453193 0.030319 0.686130 -0.110428
C97   C     C_R   0.502051 0.003077 0.199243 -0.175747
C98   C     C_R   0.997326 0.495241 0.199283 -0.174827
C99   C     C_R   0.000434 0.500828 0.699258 -0.176002
C100  C     C_R   0.497289 0.995234 0.699279 -0.175868
C101  C     C_R   0.460227 0.038298 0.160857 0.526940
C102  C     C_R   0.951241 0.524953 0.160966 0.526629
C103  C     C_R   0.543060 0.965825 0.161645 0.526506
C104  C     C_R   0.044295 0.466199 0.161617 0.526810
C105  C     C_R   0.960704 0.538183 0.660836 0.526707
C106  C     C_R   0.454737 0.029500 0.660896 0.525578
C107  C     C_R   0.039961 0.461810 0.661697 0.526324
C108  C     C_R   0.541930 0.962336 0.661677 0.528630
C109  C     C_R   0.994681 0.447277 0.888980 -0.101550
C110  C     C_R   0.553515 0.010977 0.888899 -0.098711
C111  C     C_R   0.006608 0.558200 0.888896 -0.099906
C112  C     C_R   0.444472 0.987672 0.889074 -0.100152
C113  C     C_R   0.496760 0.947337 0.388938 -0.101843
C114  C     C_R   0.052400 0.514257 0.388864 -0.098433
C115  C     C_R   0.505128 0.058598 0.388923 -0.100104
C116  C     C_R   0.945296 0.483339 0.389183 -0.098511
C117  C     C_R   0.994429 0.446359 0.913944 -0.216253
C118  C     C_R   0.553940 0.011092 0.913867 -0.213713
C119  C     C_R   0.006082 0.557438 0.913872 -0.213064
C120  C     C_R   0.444665 0.988353 0.914036 -0.217141
C121  C     C_R   0.496345 0.946311 0.413905 -0.216085
C122  C     C_R   0.052931 0.514474 0.413835 -0.214324
C123  C     C_R   0.504522 0.057717 0.413896 -0.212417
C124  C     C_R   0.945511 0.484315 0.414141 -0.217364
C125  C     C_R   0.000114 0.501459 0.926588 -0.044225
C126  C     C_R   0.499469 0.999879 0.926617 -0.043492
C127  C     C_R   0.500227 0.001522 0.426583 -0.044602
C128  C     C_R   0.999417 0.499663 0.426641 -0.042556
C129  C     C_R   0.000900 0.503141 0.876388 0.311414
C130  C     C_R   0.498845 0.999083 0.876417 0.308021
C131  C     C_R   0.501252 0.003436 0.376387 0.312211
C132  C     C_R   0.998664 0.498468 0.376440 0.305673
C133  C     C_R   0.448881 0.981244 0.111168 -0.099942
C134  C     C_R   0.991401 0.441860 0.111139 -0.102734
C135  C     C_R   0.553265 0.020336 0.110835 -0.100208
C136  C     C_R   0.006591 0.552372 0.111137 -0.104068
C137  C     C_R   0.947644 0.481760 0.611044 -0.100218
C138  C     C_R   0.488194 0.942758 0.611133 -0.112709
C139  C     C_R   0.053364 0.517116 0.611022 -0.101141
C140  C     C_R   0.511426 0.051833 0.611080 -0.091637
C141  C     C_R   0.448330 0.981291 0.086198 -0.214863
C142  C     C_R   0.992130 0.442684 0.086167 -0.211301
C143  C     C_R   0.553161 0.019407 0.085877 -0.217610
C144  C     C_R   0.006956 0.553367 0.086170 -0.214766
C145  C     C_R   0.947398 0.482247 0.586079 -0.213969
C146  C     C_R   0.488764 0.943453 0.586161 -0.210751
C147  C     C_R   0.053504 0.516725 0.586053 -0.217648
C148  C     C_R   0.511440 0.052759 0.586113 -0.217670
C149  C     C_2   0.783339 0.458305 0.985967 -0.152257
C150  C     C_2   0.543409 0.782520 0.013742 -0.149800
C151  C     C_2   0.216661 0.541685 0.014118 -0.152650
C152  C     C_2   0.456579 0.217480 0.986346 -0.148206
C153  C     C_2   0.283339 0.958303 0.485968 -0.152752
C154  C     C_2   0.043407 0.282520 0.513744 -0.149241
C155  C     C_2   0.716661 0.041681 0.514121 -0.152618
C156  C     C_2   0.956578 0.717480 0.486346 -0.148350
C157  C     C_R   0.500565 0.000171 0.073402 -0.040753
C158  C     C_R   0.999763 0.498499 0.073490 -0.043202
C159  C     C_R   0.000391 0.499591 0.573421 -0.041642
C160  C     C_R   0.500143 0.998544 0.573469 -0.042848
C161  C     C_2   0.815040 0.503027 0.996534 -0.332047
C162  C     C_2   0.497900 0.814904 0.003311 -0.335646
C163  C     C_2   0.184960 0.496971 0.003545 -0.332009
C164  C     C_2   0.502098 0.185096 0.996770 -0.336348
C165  C     C_2   0.315040 0.003027 0.496535 -0.332884
C166  C     C_2   0.997899 0.314904 0.503311 -0.335692
C167  C     C_2   0.684960 0.996971 0.503545 -0.331713
C168  C     C_2   0.002098 0.685096 0.496769 -0.336903
C169  C     C_2   0.716438 0.463700 0.983853 -0.147676
C170  C     C_2   0.538069 0.715612 0.015872 -0.152188
C171  C     C_2   0.283561 0.536286 0.016233 -0.148947
C172  C     C_2   0.461916 0.284388 0.984215 -0.149914
C173  C     C_2   0.216439 0.963699 0.483853 -0.147423
C174  C     C_2   0.038066 0.215612 0.515873 -0.152291
C175  C     C_2   0.783561 0.036283 0.516234 -0.148996
C176  C     C_2   0.961915 0.784388 0.484215 -0.149970
C177  C     C_2   0.684784 0.491094 0.001214 -0.331736
C178  C     C_2   0.509393 0.684664 0.998590 -0.328951
C179  C     C_2   0.315216 0.508907 0.998867 -0.331033
C180  C     C_2   0.490610 0.315337 0.001493 -0.331144
C181  C     C_2   0.184784 0.991095 0.501214 -0.332848
C182  C     C_2   0.009394 0.184664 0.498590 -0.328959
C183  C     C_2   0.815216 0.008910 0.498868 -0.330978
C184  C     C_2   0.990610 0.815337 0.501493 -0.331504
C185  C     C_R   0.999981 0.500455 0.952904 0.880015
C186  C     C_R   0.499841 0.000042 0.952914 0.879522
C187  C     C_R   0.499996 0.000461 0.452903 0.880104
C188  C     C_R   0.999835 0.500010 0.452922 0.878786
C189  C     C_R   0.880821 0.500460 0.999138 0.942662
C190  C     C_R   0.499840 0.880789 0.000897 0.941938
C191  C     C_R   0.119179 0.499540 0.000942 0.942807
C192  C     C_R   0.500160 0.119211 0.999185 0.941682
C193  C     C_R   0.380821 0.000460 0.499139 0.941928
C194  C     C_R   0.999840 0.380789 0.500896 0.941641
C195  C     C_R   0.619178 0.999540 0.500942 0.942566
C196  C     C_R   0.000160 0.619211 0.499184 0.941473
C197  C     C_R   0.000005 0.499542 0.047175 0.878289
C198  C     C_R   0.500164 0.999960 0.047145 0.876366
C199  C     C_R   0.500081 0.999547 0.547167 0.877553
C200  C     C_R   0.000146 0.499871 0.547150 0.876548
H1    H     H_    0.806529 0.419093 0.978141 0.167395
H2    H     H_    0.583050 0.805155 0.021558 0.169331
H3    H     H_    0.193471 0.580889 0.021949 0.167120
H4    H     H_    0.416931 0.194844 0.978535 0.169749
H5    H     H_    0.306528 0.919091 0.478143 0.167516
H6    H     H_    0.083044 0.305156 0.521561 0.169601
H7    H     H_    0.693470 0.080883 0.521954 0.167145
H8    H     H_    0.916929 0.694845 0.478536 0.169931
H9    H     H_    0.989584 0.402617 0.923313 0.164147
H10   H     H_    0.596715 0.020366 0.923165 0.164409
H11   H     H_    0.010672 0.600531 0.923198 0.165104
H12   H     H_    0.402131 0.979323 0.923468 0.163751
H13   H     H_    0.492858 0.902394 0.423249 0.164374
H14   H     H_    0.094951 0.526765 0.423096 0.163522
H15   H     H_    0.507679 0.100912 0.423240 0.165515
H16   H     H_    0.903779 0.472402 0.423644 0.163294
H17   H     H_    0.408632 0.965878 0.120897 0.149388
H18   H     H_    0.985049 0.398697 0.120771 0.138809
H19   H     H_    0.593744 0.036104 0.120297 0.149523
H20   H     H_    0.012499 0.594844 0.120771 0.137806
H21   H     H_    0.906749 0.467694 0.620657 0.149180
H22   H     H_    0.478722 0.900218 0.620777 0.137477
H23   H     H_    0.094268 0.531232 0.620617 0.148535
H24   H     H_    0.520557 0.093778 0.620683 0.148920
H25   H     H_    0.407403 0.965925 0.076919 0.161701
H26   H     H_    0.986326 0.399782 0.076811 0.163499
H27   H     H_    0.593827 0.034505 0.076344 0.161515
H28   H     H_    0.013111 0.596964 0.076823 0.162262
H29   H     H_    0.906036 0.468483 0.576697 0.162707
H30   H     H_    0.479725 0.901104 0.576811 0.162471
H31   H     H_    0.094792 0.530558 0.576643 0.161891
H32   H     H_    0.520634 0.095743 0.576731 0.163380
H33   H     H_    0.792593 0.545466 0.001841 0.159860
H34   H     H_    0.455204 0.792891 0.998027 0.158357
H35   H     H_    0.207407 0.454536 0.998234 0.159895
H36   H     H_    0.544798 0.207109 0.002050 0.158240
H37   H     H_    0.292593 0.045467 0.501841 0.160156
H38   H     H_    0.955206 0.292892 0.498025 0.158353
H39   H     H_    0.707407 0.954538 0.498232 0.159913
H40   H     H_    0.044799 0.707109 0.502048 0.158037
H41   H     H_    0.693212 0.443369 0.968621 0.170753
H42   H     H_    0.559197 0.691803 0.031121 0.168916
H43   H     H_    0.306788 0.556603 0.031467 0.170143
H44   H     H_    0.440771 0.308196 0.968970 0.170335
H45   H     H_    0.193212 0.943366 0.468622 0.170677
H46   H     H_    0.059190 0.191804 0.531123 0.168548
H47   H     H_    0.806787 0.056595 0.531470 0.169982
H48   H     H_    0.940769 0.808196 0.468971 0.170153
H49   H     H_    0.707276 0.504960 0.017720 0.159846
H50   H     H_    0.494700 0.707617 0.982047 0.161337
H51   H     H_    0.292723 0.495057 0.982359 0.160446
H52   H     H_    0.505321 0.292384 0.018033 0.160075
H53   H     H_    0.207276 0.004962 0.517720 0.158718
H54   H     H_    0.994705 0.207617 0.482046 0.161219
H55   H     H_    0.792723 0.995064 0.482359 0.160488
H56   H     H_    0.005323 0.792384 0.518033 0.159667
H57   H     H_    0.866454 0.583819 0.767043 0.147399
H58   H     H_    0.396910 0.117320 0.766681 0.148300
H59   H     H_    0.136018 0.422186 0.768783 0.148566
H60   H     H_    0.597747 0.875588 0.769016 0.142087
H61   H     H_    0.364017 0.078902 0.267057 0.147251
H62   H     H_    0.885278 0.605940 0.266677 0.141885
H63   H     H_    0.641067 0.930480 0.268817 0.147415
H64   H     H_    0.109083 0.385417 0.268917 0.142241
H65   H     H_    0.867893 0.583313 0.809548 0.190879
H66   H     H_    0.399255 0.117723 0.809203 0.190760
H67   H     H_    0.135240 0.424366 0.811294 0.191023
H68   H     H_    0.596593 0.877149 0.811605 0.190462
H69   H     H_    0.365131 0.077920 0.309559 0.190834
H70   H     H_    0.887648 0.606690 0.309268 0.189971
H71   H     H_    0.639675 0.931865 0.311310 0.190679
H72   H     H_    0.107587 0.386539 0.311508 0.190485
H73   H     H_    0.624172 0.905352 0.233828 0.154843
H74   H     H_    0.129543 0.411933 0.233863 0.159213
H75   H     H_    0.380545 0.102477 0.231665 0.154742
H76   H     H_    0.864517 0.578154 0.232040 0.159061
H77   H     H_    0.116692 0.396404 0.733989 0.156129
H78   H     H_    0.621193 0.900317 0.734047 0.159308
H79   H     H_    0.883733 0.606008 0.731576 0.154699
H80   H     H_    0.375833 0.094782 0.731698 0.155276
H81   H     H_    0.989956 0.404607 0.879379 0.144329
H82   H     H_    0.595635 0.020181 0.879216 0.147396
H83   H     H_    0.011641 0.601501 0.879232 0.145136
H84   H     H_    0.402122 0.978114 0.879533 0.146472
H85   H     H_    0.493490 0.904580 0.379304 0.143866
H86   H     H_    0.093717 0.526405 0.379138 0.148471
H87   H     H_    0.508802 0.102080 0.379282 0.144853
H88   H     H_    0.903699 0.470701 0.379714 0.148524
N1    N     N_R   0.001401 0.503871 0.850709 -0.355019
N2    N     N_R   0.498557 0.998505 0.850722 -0.354372
N3    N     N_R   0.501860 0.004333 0.350714 -0.355200
N4    N     N_R   0.998285 0.497768 0.350732 -0.353966
N5    N     N_R   0.501496 0.001721 0.149320 -0.364499
N6    N     N_R   0.997994 0.495819 0.149390 -0.366080
N7    N     N_R   0.000390 0.499829 0.649341 -0.364754
N8    N     N_R   0.498731 0.996228 0.649377 -0.365694
O1    O     O_R   0.499960 0.590510 0.020150 -0.618802
O2    O     O_R   0.409490 0.499960 0.020150 -0.613824
O3    O     O_R   0.500040 0.409490 0.020150 -0.619977
O4    O     O_R   0.590510 0.500040 0.020150 -0.624706
O5    O     O_R   0.999960 0.090510 0.520150 -0.619220
O6    O     O_R   0.909490 0.999960 0.520150 -0.614007
O7    O     O_R   0.000040 0.909490 0.520150 -0.620704
O8    O     O_R   0.090510 0.000040 0.520150 -0.626143
O9    O     O_R   0.499990 0.590510 0.979930 -0.618525
O10   O     O_R   0.409490 0.499990 0.979930 -0.623733
O11   O     O_R   0.500010 0.409490 0.979930 -0.617548
O12   O     O_R   0.590510 0.500010 0.979930 -0.612742
O13   O     O_R   0.999990 0.090510 0.479930 -0.618406
O14   O     O_R   0.909490 0.999990 0.479930 -0.623603
O15   O     O_R   0.000010 0.909490 0.479930 -0.617523
O16   O     O_R   0.090510 0.000010 0.479930 -0.612463
O17   O     O_R   0.999980 0.448970 0.964420 -0.627481
O18   O     O_R   0.551030 0.999980 0.964420 -0.622597
O19   O     O_R   0.000020 0.551030 0.964420 -0.623619
O20   O     O_R   0.448970 0.000020 0.964420 -0.627255
O21   O     O_R   0.499980 0.948970 0.464420 -0.627520
O22   O     O_R   0.051030 0.499980 0.464420 -0.621929
O23   O     O_R   0.500020 0.051030 0.464420 -0.623647
O24   O     O_R   0.948970 0.500020 0.464420 -0.626708
O25   O     O_R   0.909490 0.448990 0.000040 -0.617121
O26   O     O_R   0.551010 0.909490 0.000040 -0.612487
O27   O     O_R   0.090510 0.551010 0.000040 -0.617031
O28   O     O_R   0.448990 0.090510 0.000040 -0.612732
O29   O     O_R   0.409490 0.948990 0.500040 -0.617673
O30   O     O_R   0.051010 0.409490 0.500040 -0.612219
O31   O     O_R   0.590510 0.051010 0.500040 -0.616942
O32   O     O_R   0.948990 0.590510 0.500040 -0.612477
O33   O     O_R   0.909510 0.551130 0.000040 -0.619646
O34   O     O_R   0.448870 0.909510 0.000040 -0.624671
O35   O     O_R   0.090490 0.448870 0.000040 -0.619711
O36   O     O_R   0.551130 0.090490 0.000040 -0.624515
O37   O     O_R   0.409510 0.051130 0.500040 -0.619100
O38   O     O_R   0.948870 0.409510 0.500040 -0.624760
O39   O     O_R   0.590490 0.948870 0.500040 -0.619591
O40   O     O_R   0.051130 0.590490 0.500040 -0.624757
O41   O     O_R   0.999930 0.448970 0.035660 -0.623889
O42   O     O_R   0.551030 0.999930 0.035660 -0.626396
O43   O     O_R   0.000070 0.551030 0.035660 -0.627665
O44   O     O_R   0.448970 0.000070 0.035660 -0.621587
O45   O     O_R   0.499930 0.948970 0.535660 -0.623828
O46   O     O_R   0.051030 0.499930 0.535660 -0.626439
O47   O     O_R   0.500070 0.051030 0.535660 -0.626602
O48   O     O_R   0.948970 0.500070 0.535660 -0.621994
O49   O     O_2   0.907866 0.558908 0.850484 -0.561609
O50   O     O_2   0.430774 0.083351 0.850210 -0.563676
O51   O     O_2   0.095131 0.449172 0.851692 -0.562197
O52   O     O_2   0.566298 0.913632 0.851911 -0.562308
O53   O     O_2   0.405924 0.055017 0.350494 -0.561260
O54   O     O_2   0.922856 0.575937 0.350243 -0.564522
O55   O     O_2   0.597940 0.953931 0.351715 -0.561919
O56   O     O_2   0.073654 0.419548 0.351843 -0.562572
O57   O     O_2   0.421002 0.073786 0.147786 -0.517352
O58   O     O_2   0.905922 0.552201 0.147933 -0.514078
O59   O     O_2   0.582035 0.929689 0.149351 -0.518877
O60   O     O_2   0.089924 0.439192 0.149210 -0.513617
O61   O     O_2   0.923284 0.575496 0.647726 -0.517529
O62   O     O_2   0.412583 0.061357 0.647808 -0.516672
O63   O     O_2   0.077419 0.424065 0.649426 -0.517053
O64   O     O_2   0.585046 0.931311 0.649344 -0.513018
Zn1   Zn    Zn3+2 0.500000 0.500000 0.026890 0.967055
Zn2   Zn    Zn3+2 0.000000 0.000000 0.526890 0.962858
Zn3   Zn    Zn3+2 0.500000 0.500000 0.973180 0.972227
Zn4   Zn    Zn3+2 1.000000 1.000000 0.473180 0.971862
Zn5   Zn    Zn3+2 0.999950 0.431840 0.000040 0.962426
Zn6   Zn    Zn3+2 0.568160 0.999950 0.000040 0.963555
Zn7   Zn    Zn3+2 0.000050 0.568160 0.000040 0.962496
Zn8   Zn    Zn3+2 0.431840 0.000050 0.000040 0.963325
Zn9   Zn    Zn3+2 0.499950 0.931840 0.500040 0.962227
Zn10  Zn    Zn3+2 0.068160 0.499950 0.500040 0.964259
Zn11  Zn    Zn3+2 0.500050 0.068160 0.500040 0.964391
Zn12  Zn    Zn3+2 0.931840 0.500050 0.500040 0.964037
O65   O     O_3   0.630958 0.893854 0.188700 -0.562709
C201  C     C_3   0.612792 0.831590 0.190372 0.135435
H89   H     H_    0.566083 0.825187 0.182438 0.146232
H90   H     H_    0.612794 0.814999 0.209373 0.115234
C202  C     C_3   0.658116 0.792281 0.176551 -0.767633
H91   H     H_    0.705100 0.797007 0.184236 0.246029
H92   H     H_    0.644346 0.743173 0.177728 0.195219
H93   H     H_    0.658654 0.807069 0.157391 0.278455
O66   O     O_3   0.140267 0.405333 0.188553 -0.559709
C203  C     C_3   0.132160 0.340849 0.189197 0.131130
H94   H     H_    0.087277 0.327968 0.180929 0.141210
H95   H     H_    0.134364 0.322517 0.207950 0.115814
C204  C     C_3   0.183408 0.310669 0.175019 -0.763831
H96   H     H_    0.228846 0.321925 0.183009 0.247582
H97   H     H_    0.177538 0.259916 0.175388 0.194786
H98   H     H_    0.182036 0.327365 0.156089 0.278934
O67   O     O_3   0.372911 0.111682 0.186322 -0.562689
C205  C     C_3   0.390970 0.174030 0.186797 0.132584
H99   H     H_    0.437436 0.180168 0.178739 0.147069
H100  H     H_    0.391464 0.191474 0.205468 0.115454
C206  C     C_3   0.345147 0.212594 0.172233 -0.762565
H101  H     H_    0.298386 0.207988 0.179990 0.245904
H102  H     H_    0.358751 0.261783 0.172499 0.196477
H103  H     H_    0.344178 0.197027 0.153356 0.278959
O68   O     O_3   0.854392 0.584966 0.186558 -0.559611
C207  C     C_3   0.862142 0.649496 0.186634 0.130368
H104  H     H_    0.907037 0.662758 0.178501 0.141383
H105  H     H_    0.859663 0.667486 0.205195 0.115228
C208  C     C_3   0.810874 0.679702 0.171876 -0.763887
H106  H     H_    0.765426 0.668109 0.179729 0.248085
H107  H     H_    0.816507 0.730481 0.171781 0.194642
H108  H     H_    0.812476 0.663345 0.153116 0.278007
O69   O     O_3   0.122578 0.384005 0.688875 -0.560373
C209  C     C_3   0.099671 0.323323 0.690362 0.131708
H109  H     H_    0.052597 0.320621 0.682388 0.144271
H110  H     H_    0.098383 0.306520 0.709327 0.115551
C210  C     C_3   0.141851 0.280889 0.676455 -0.758438
H111  H     H_    0.189076 0.281871 0.684166 0.250829
H112  H     H_    0.124336 0.232989 0.677502 0.190119
H113  H     H_    0.143510 0.295891 0.657331 0.278406
O70   O     O_3   0.631881 0.893142 0.688752 -0.558833
C211  C     C_3   0.618344 0.829608 0.689333 0.126357
H114  H     H_    0.572590 0.820596 0.680971 0.139008
H115  H     H_    0.618834 0.811105 0.708074 0.116017
C212  C     C_3   0.667023 0.795292 0.675224 -0.757352
H116  H     H_    0.713205 0.802789 0.683276 0.246065
H117  H     H_    0.656991 0.745216 0.675583 0.196672
H118  H     H_    0.667137 0.812019 0.656293 0.277702
O71   O     O_3   0.876565 0.615325 0.686217 -0.562041
C213  C     C_3   0.897423 0.676779 0.686685 0.129525
H119  H     H_    0.944340 0.680747 0.678820 0.145098
H120  H     H_    0.898206 0.694354 0.705335 0.115345
C214  C     C_3   0.853758 0.717203 0.671872 -0.756894
H121  H     H_    0.806615 0.714798 0.679426 0.245756
H122  H     H_    0.869574 0.765717 0.672129 0.195738
H123  H     H_    0.852596 0.701486 0.653016 0.278410
O72   O     O_3   0.364906 0.099841 0.686361 -0.558912
C215  C     C_3   0.307897 0.068915 0.687148 0.129352
H124  H     H_    0.290748 0.064806 0.705888 0.114094
H125  H     H_    0.311882 0.022115 0.679365 0.141898
C216  C     C_3   0.260724 0.105472 0.672464 -0.761462
H126  H     H_    0.276069 0.109767 0.653543 0.277975
H127  H     H_    0.215663 0.081588 0.672924 0.190429
H128  H     H_    0.255014 0.152189 0.679976 0.248107

loop_
_geom_bond_atom_site_label_1
_geom_bond_atom_site_label_2
_ccdc_geom_bond_type
C79   C139  A    
C8    O8    A    
C214  H121  S    
C34   C42   A    
C4    C177  S    
C188  O24   A    
C110  C118  A    
C55   N3    A    
O9    Zn3   S    
C40   C46   A    
O70   C211  S    
C27   C35   A    
C170  C178  D    
O42   Zn6   S    
C183  H55   S    
C155  H7    S    
C198  O42   A    
C95   C99   A    
C52   O52   S    
C173  H45   S    
C153  C173  S    
C30   C38   A    
C148  C160  A    
C202  H93   S    
C211  C212  S    
C113  H85   S    
C147  H31   S    
C80   N8    S    
C156  C176  S    
O12   Zn3   S    
C155  C167  D    
C127  C187  S    
C2    O10   A    
C92   C102  A    
C175  H47   S    
C128  C188  S    
C211  H115  S    
C165  H37   S    
C84   O68   S    
C142  C158  A    
O17   Zn5   S    
O33   Zn7   S    
C185  O19   A    
C115  C123  A    
C76   H80   S    
C186  O20   A    
C138  H22   S    
C168  H40   S    
C52   N2    A    
C112  C120  A    
C205  H100  S    
C73   H77   S    
C21   C29   A    
C10   C22   A    
C121  H13   S    
O48   Zn12  S    
C24   C32   A    
C109  H81   S    
C15   C27   A    
C178  H50   S    
C16   C20   A    
C216  H128  S    
O31   Zn11  S    
C14   C26   A    
C182  H54   S    
C90   C104  A    
C72   C84   A    
C59   C69   A    
C136  H20   S    
C141  C157  A    
C159  C200  S    
C79   C137  A    
O40   Zn10  S    
O67   C205  S    
C214  H123  S    
C209  H110  S    
C36   C44   A    
C193  O37   A    
C190  O26   A    
C37   C45   A    
C5    C182  S    
C162  C190  S    
C195  O39   A    
C174  H46   S    
C175  C183  D    
C139  H23   S    
C176  C184  D    
C167  C195  S    
C140  H24   S    
C143  H27   S    
C131  N3    S    
C166  H38   S    
C83   C91   A    
C206  H101  S    
C24   H60   S    
C69   H73   S    
C62   C68   A    
C196  O32   A    
C28   H64   S    
O69   C209  S    
C101  N5    A    
C9    C21   A    
C150  C170  S    
C10   C18   A    
C11   C23   A    
C120  C126  A    
C213  H120  S    
C156  H8    S    
O2    Zn1   S    
C215  H125  S    
C53   O53   S    
C161  H33   S    
O36   Zn6   S    
C189  O33   A    
C34   H70   S    
C4    O4    A    
C210  H111  S    
C5    O5    A    
C44   C48   A    
C204  H97   S    
C7    O7    A    
C8    C181  S    
C120  H12   S    
C39   C51   A    
O71   C213  S    
C189  O25   A    
C186  O18   A    
C187  O23   A    
C21   H57   S    
C174  C182  D    
C208  H106  S    
C176  H48   S    
O72   C215  S    
O30   Zn10  S    
C194  O30   A    
O1    Zn1   S    
C149  C169  S    
C64   C68   A    
C17   C45   A    
C51   N1    A    
C11   C63   A    
O34   Zn8   S    
C152  C172  S    
C19   C47   A    
C146  C160  A    
C156  C168  D    
C151  C171  S    
C57   C71   A    
C111  C119  A    
C157  C198  S    
O3    Zn1   S    
C56   O56   S    
C201  H89   S    
C53   N3    A    
C85   C93   A    
C190  O34   A    
C87   C95   A    
C35   C43   A    
O47   Zn11  S    
C39   C45   A    
C79   N7    S    
C167  H39   S    
C135  H19   S    
C89   C103  A    
C171  C179  D    
C91   C101  A    
C70   C82   A    
C192  O28   A    
C169  C177  D    
C212  H117  S    
C160  C199  S    
C71   C83   A    
C36   H72   S    
C206  H103  S    
C85   O69   S    
O35   Zn5   S    
C103  O59   S    
C154  C174  S    
C31   H67   S    
C115  H87   S    
C114  H86   S    
C1    O9    A    
C201  C202  S    
C3    C180  S    
C68   C100  A    
O20   Zn8   S    
C1    C178  S    
C61   C67   A    
C123  C127  A    
C116  C132  A    
C94   C100  A    
C73   C85   A    
C8    O16   A    
C41   C47   A    
C42   C48   A    
O26   Zn6   S    
C210  H113  S    
C41   C53   A    
C4    O12   A    
C153  H5    S    
C5    O13   A    
C109  C129  A    
C213  H119  S    
C207  H105  S    
C187  O21   A    
C208  H108  S    
O5    Zn2   S    
C43   C55   A    
C145  H29   S    
C74   H78   S    
C22   C30   A    
C171  H43   S    
C111  H83   S    
C50   O50   S    
C152  H4    S    
O29   Zn9   S    
C169  H41   S    
C105  O61   S    
C110  H82   S    
C107  O63   S    
C12   C24   A    
C119  H11   S    
O46   Zn10  S    
C66   C98   A    
C117  H9    S    
O68   C207  S    
C59   C65   A    
O21   Zn9   S    
C180  H52   S    
C43   C47   A    
C138  C146  A    
C80   C138  A    
C96   C100  A    
C51   O51   S    
C184  H56   S    
C202  H92   S    
C163  H35   S    
C77   N5    S    
C113  C121  A    
C172  H44   S    
C213  C214  S    
C55   O55   S    
C153  C165  D    
C163  C191  S    
C84   C92   A    
C112  C130  A    
C164  C192  S    
C117  C125  A    
C88   O72   S    
C25   C33   A    
C200  O46   A    
C88   C96   A    
C203  H94   S    
C70   H74   S    
C123  H15   S    
C164  H36   S    
C29   H65   S    
C188  O22   A    
C109  C117  A    
C102  N6    A    
C22   H58   S    
C15   C19   A    
O44   Zn8   S    
C137  C145  A    
C121  C127  A    
C146  H30   S    
C107  N7    A    
C197  O41   A    
C104  N6    A    
C137  H21   S    
O16   Zn4   S    
C96   C106  A    
C6    O6    A    
C54   N4    A    
C111  C129  A    
C49   O49   S    
C216  H127  S    
O19   Zn7   S    
C142  H26   S    
C148  H32   S    
C93   C99   A    
C67   C99   A    
C124  C128  A    
C81   C89   A    
C172  C180  D    
C60   C66   A    
C75   H79   S    
C214  H122  S    
C62   C76   A    
C10   C62   A    
C150  C162  D    
C18   C46   A    
C103  N5    A    
C14   C58   A    
O38   Zn12  S    
C83   O67   S    
C54   O54   S    
C13   C19   A    
C14   C20   A    
C126  C186  S    
C101  O57   S    
C35   H71   S    
C63   C73   A    
C203  C204  S    
C134  H18   S    
C122  H14   S    
C210  H112  S    
C9    C61   A    
C134  C142  A    
C37   C49   A    
C44   C56   A    
C7    O15   A    
C27   H63   S    
C91   C97   A    
C215  C216  S    
C20   C48   A    
C191  O35   A    
C26   H62   S    
C119  C125  A    
C200  O48   A    
O39   Zn9   S    
C211  H114  S    
C194  O38   A    
C191  O27   A    
C149  C161  D    
C150  H2    S    
C81   O65   S    
C204  H96   S    
C155  C175  S    
C11   C17   A    
C116  C124  A    
C72   H76   S    
C15   C59   A    
C105  N7    A    
C57   C65   A    
C106  N8    A    
O22   Zn10  S    
C205  H99   S    
C197  O43   A    
C133  C141  A    
C82   C90   A    
O14   Zn4   S    
O15   Zn4   S    
C33   C41   A    
O10   Zn3   S    
C136  C144  A    
C199  O45   A    
C42   C54   A    
O13   Zn4   S    
O18   Zn6   S    
C6    O14   A    
C12   C64   A    
O6    Zn2   S    
C110  C130  A    
C122  C128  A    
C201  H90   S    
C69   C81   A    
C65   C97   A    
C162  H34   S    
C102  O58   S    
C13   C57   A    
C28   C36   A    
O11   Zn3   S    
C29   C37   A    
C64   C74   A    
C209  H109  S    
C154  C166  D    
O37   Zn11  S    
C75   C87   A    
C23   C31   A    
C16   C28   A    
C82   O66   S    
O24   Zn12  S    
C49   N1    A    
C129  N1    S    
C147  C159  A    
C140  C148  A    
C205  C206  S    
C212  H116  S    
C108  N8    A    
C92   C98   A    
C115  C131  A    
O4    Zn1   S    
C61   C75   A    
C206  H102  S    
C94   C108  A    
C7    C184  S    
C193  O29   A    
C125  C185  S    
C195  O31   A    
C16   C60   A    
C199  O47   A    
C78   N6    S    
C158  C197  S    
C25   H61   S    
O28   Zn8   S    
C56   N4    A    
C215  H124  S    
C86   C94   A    
C58   C66   A    
O8    Zn2   S    
C209  C210  S    
C196  O40   A    
C132  N4    S    
C32   H68   S    
C30   H66   S    
C50   N2    A    
C95   C105  A    
C1    O1    A    
C204  H98   S    
C32   C40   A    
C177  H49   S    
C71   H75   S    
C145  C159  A    
C80   C140  A    
C207  C208  S    
C13   C25   A    
C87   O71   S    
C77   C133  A    
C2    O2    A    
C208  H107  S    
C26   C34   A    
C198  O44   A    
C143  C157  A    
C141  H25   S    
C86   O70   S    
C63   C67   A    
C38   C46   A    
C161  C189  S    
C108  O64   S    
C40   C52   A    
C133  H17   S    
C89   C97   A    
C78   C134  A    
C60   C70   A    
O7    Zn2   S    
C3    O3    A    
C130  N2    S    
C74   C86   A    
O25   Zn5   S    
C202  H91   S    
C154  H6    S    
C181  H53   S    
C139  C147  A    
C9    C17   A    
O41   Zn5   S    
C104  O60   S    
C6    C183  S    
C151  C163  D    
O43   Zn7   S    
C166  C194  S    
C2    C179  S    
C144  C158  A    
C149  H1    S    
C212  H118  S    
C124  H16   S    
O27   Zn7   S    
C76   C88   A    
C203  H95   S    
C113  C131  A    
C33   H69   S    
C114  C132  A    
C170  H42   S    
C112  H84   S    
C106  O62   S    
C151  H3    S    
C152  C164  D    
C165  C193  S    
C38   C50   A    
C118  C126  A    
O32   Zn12  S    
C185  O17   A    
C118  H10   S    
O45   Zn9   S    
C192  O36   A    
O23   Zn11  S    
O65   C201  S    
C93   C107  A    
C58   C72   A    
O66   C203  S    
C135  C143  A    
C31   C39   A    
C116  H88   S    
C173  C181  D    
C23   H59   S    
C114  C122  A    
C216  H126  S    
C168  C196  S    
C12   C18   A    
C3    O11   A    
C207  H104  S    
C144  H28   S    
C77   C135  A    
C179  H51   S    
C78   C136  A    
C90   C98   A    
