data_mof_unit_35987.cif
_audit_creation_date              2013-03-05T15:45:15-0500
_audit_creation_method            fapswitch 2.2
_symmetry_space_group_name_H-M    P1
_symmetry_Int_Tables_number       1
_space_group_crystal_system       triclinic
_cell_length_a                    16.976795
_cell_length_b                    7.098416
_cell_length_c                    17.012366
_cell_angle_alpha                 90.001398
_cell_angle_beta                  100.130848
_cell_angle_gamma                 89.995851
_cell_volume                      2018.16781584

loop_
_atom_site_label
_atom_site_type_symbol
_atom_site_description
_atom_site_fract_x
_atom_site_fract_y
_atom_site_fract_z
_atom_type_partial_charge
O1    O     O_R   0.579510 0.506290 0.439030 -0.571562
O2    O     O_R   0.420490 0.006290 0.560970 -0.571351
O3    O     O_R   0.412540 0.170090 0.405290 -0.527147
O4    O     O_R   0.587460 0.670090 0.594710 -0.527418
C1    C     C_R   0.385643 0.346050 0.381911 1.252606
C2    C     C_R   0.614384 0.846024 0.618065 1.252214
O5    O     O_R   0.578390 0.176230 0.429330 -0.589789
O6    O     O_R   0.421610 0.676230 0.570670 -0.589991
O7    O     O_R   0.587530 0.011250 0.585190 -0.517622
O8    O     O_R   0.412470 0.511250 0.414810 -0.517711
C3    C     C_R   0.605895 0.344338 0.414874 1.149037
C4    C     C_R   0.394099 0.844343 0.585132 1.148184
O9    O     O_3   0.502800 0.340940 0.551110 -0.255277
O10   O     O_3   0.497200 0.840940 0.448890 -0.255321
V1    V     V_3+5 0.499480 0.064020 0.490520 1.456332
V2    V     V_3+5 0.500520 0.564020 0.509480 1.456254
C5    C     C_R   0.167494 0.909876 0.862070 -0.612499
C6    C     C_R   0.832663 0.410137 0.138116 -0.613174
C7    C     C_R   0.327016 0.852341 0.632641 -0.503277
C8    C     C_R   0.672947 0.352330 0.367350 -0.503246
C9    C     C_R   0.188808 0.930330 0.645750 0.882109
C10   C     C_R   0.811440 0.428239 0.354500 0.882256
C11   C     C_R   0.247428 0.902061 0.596821 0.077709
C12   C     C_R   0.752665 0.400695 0.403317 0.076999
C13   C     C_R   0.341205 0.801768 0.714445 0.411051
C14   C     C_R   0.658587 0.303241 0.285365 0.410892
C15   C     C_R   0.284430 0.845637 0.763840 -0.374831
C16   C     C_R   0.715473 0.347298 0.236145 -0.375935
C17   C     C_R   0.206906 0.905795 0.729209 -0.408880
C18   C     C_R   0.793275 0.405102 0.270978 -0.409494
C19   C     C_R   0.148307 0.933377 0.778543 0.873944
C20   C     C_R   0.852005 0.431966 0.221719 0.874875
C21   C     C_R   0.248087 0.871940 0.896959 0.066845
C22   C     C_R   0.751906 0.375008 0.103204 0.066801
C23   C     C_R   0.304932 0.836308 0.847762 0.845196
C24   C     C_R   0.694863 0.340296 0.152206 0.846463
C25   C     C_3   0.785577 0.691059 0.798060 0.653781
C26   C     C_3   0.214439 0.191185 0.201959 0.653877
C27   C     C_3   0.706426 0.673051 0.733529 0.625903
C28   C     C_3   0.293590 0.173123 0.266474 0.625970
C29   C     C_3   0.837538 0.969604 0.726842 1.134618
C30   C     C_3   0.162529 0.469863 0.273118 1.134537
C31   C     C_3   0.742453 0.025185 0.823469 1.201906
C32   C     C_3   0.257604 0.525126 0.176435 1.201096
C33   C     C_3   0.815071 0.903783 0.807987 -1.111189
C34   C     C_3   0.184966 0.403879 0.191982 -1.110614
C35   C     C_3   0.686887 0.865199 0.687667 -1.066926
C36   C     C_3   0.313152 0.365298 0.312300 -1.067172
C37   C     C_3   0.765559 0.931831 0.654081 0.728706
C38   C     C_3   0.234500 0.432106 0.345882 0.728724
C39   C     C_3   0.671741 0.024539 0.749514 0.637700
C40   C     C_3   0.328299 0.524556 0.250414 0.637987
O11   O     O_R   0.087500 0.266000 0.085220 -0.582659
O12   O     O_R   0.912500 0.766000 0.914780 -0.582979
O13   O     O_R   0.921600 0.589950 0.070670 -0.583385
O14   O     O_R   0.078400 0.089950 0.929330 -0.582615
C41   C     C_R   0.896970 0.421445 0.088201 1.175144
C42   C     C_R   0.103028 0.921405 0.911795 1.176304
O15   O     O_R   0.087460 0.596020 0.094710 -0.517445
O16   O     O_R   0.912540 0.096020 0.905290 -0.517307
O17   O     O_R   0.079520 0.760970 0.939020 -0.595707
O18   O     O_R   0.920480 0.260970 0.060980 -0.594915
C43   C     C_R   0.114173 0.425037 0.119866 1.290006
C44   C     C_R   0.885843 0.925021 0.880120 1.290295
O19   O     O_3   0.997180 0.425140 0.948910 -0.269572
O20   O     O_3   0.002820 0.925140 0.051090 -0.269414
V3    V     V_3+5 0.000520 0.702080 0.009480 1.418910
V4    V     V_3+5 0.999480 0.202080 0.990520 1.419578
F1    F     F_    0.072010 0.980211 0.745827 -0.552215
F2    F     F_    0.928505 0.476611 0.254555 -0.551825
F3    F     F_    0.718403 0.538778 0.677904 -0.517872
F4    F     F_    0.281584 0.038934 0.322121 -0.517971
F5    F     F_    0.909152 0.887625 0.717683 -0.583474
F6    F     F_    0.090917 0.387986 0.282306 -0.582893
N1    N     N_R   0.785672 0.805100 0.591677 0.274454
O21   O     O_R   0.731290 0.780142 0.528431 -0.365151
O22   O     O_R   0.859541 0.786539 0.581777 -0.151289
N2    N     N_R   0.214368 0.305513 0.408312 0.274382
O23   O     O_R   0.268751 0.280621 0.471564 -0.365200
O24   O     O_R   0.140498 0.287162 0.418232 -0.150596
F7    F     F_    0.766513 0.209430 0.836035 -0.526844
F8    F     F_    0.233571 0.709343 0.163763 -0.526978
F9    F     F_    0.720223 0.962903 0.893566 -0.587418
F10   F     F_    0.279840 0.462691 0.106361 -0.588037
N3    N     N_R   0.590954 0.021913 0.771223 0.265117
O25   O     O_R   0.530560 0.074971 0.717741 -0.316320
O26   O     O_R   0.581052 0.030263 0.845282 -0.146842
N4    N     N_R   0.409103 0.521918 0.228755 0.265057
O27   O     O_R   0.469421 0.575648 0.282182 -0.315850
O28   O     O_R   0.419057 0.529513 0.154700 -0.146578
F11   F     F_    0.675342 0.195850 0.711884 -0.493042
F12   F     F_    0.324650 0.695928 0.287986 -0.493126
F13   F     F_    0.853457 0.160519 0.730590 -0.492516
F14   F     F_    0.146641 0.660788 0.269327 -0.492793
F15   F     F_    0.749425 0.101241 0.614640 -0.515706
F16   F     F_    0.250655 0.601558 0.385294 -0.515418
N5    N     N_R   0.273876 0.874268 0.982130 0.308969
O29   O     O_R   0.224261 0.834235 0.029349 -0.238437
O30   O     O_R   0.346713 0.921566 0.013449 -0.118946
N6    N     N_R   0.726239 0.378777 0.018124 0.308764
O31   O     O_R   0.774754 0.329488 0.971045 -0.238456
O32   O     O_R   0.654367 0.433409 0.986834 -0.119138
F17   F     F_    0.114019 0.986041 0.611619 -0.515978
F18   F     F_    0.886433 0.482114 0.388789 -0.515872
F19   F     F_    0.381633 0.799122 0.882784 -0.539438
F20   F     F_    0.617944 0.306207 0.116980 -0.539471
N7    N     N_R   0.223053 0.905857 0.511020 0.302635
O33   O     O_R   0.275539 0.907453 0.464042 -0.209349
O34   O     O_R   0.148055 0.887464 0.478713 -0.122906
N8    N     N_R   0.776926 0.404162 0.489136 0.302656
O35   O     O_R   0.724364 0.407176 0.536024 -0.209388
O36   O     O_R   0.851844 0.384735 0.521562 -0.122412
N9    N     N_R   0.408058 0.684112 0.744987 0.293352
O37   O     O_R   0.479195 0.729591 0.734491 -0.343208
O38   O     O_R   0.396637 0.521532 0.776530 -0.251746
N10   N     N_R   0.591577 0.186330 0.254414 0.293517
O39   O     O_R   0.520674 0.229982 0.266251 -0.345818
O40   O     O_R   0.602776 0.025360 0.221419 -0.250632
N11   N     N_R   0.849019 0.564920 0.778815 0.304274
O41   O     O_R   0.866585 0.552986 0.707644 -0.180147
O42   O     O_R   0.882470 0.445157 0.831784 -0.176713
N12   N     N_R   0.150991 0.065083 0.221194 0.304297
O43   O     O_R   0.133381 0.053276 0.292352 -0.180216
O44   O     O_R   0.117577 0.945247 0.168238 -0.176375
F21   F     F_    0.769833 0.632244 0.871601 -0.547406
F22   F     F_    0.230185 0.132448 0.128435 -0.546866
N13   N     N_R   0.638083 0.606673 0.769406 0.292229
O45   O     O_R   0.624534 0.669480 0.837579 -0.185682
O46   O     O_R   0.591683 0.474323 0.734604 -0.157081
N14   N     N_R   0.361927 0.106577 0.230604 0.292422
O47   O     O_R   0.375447 0.169053 0.162369 -0.185836
O48   O     O_R   0.408342 0.974328 0.265480 -0.157036

loop_
_geom_bond_atom_site_label_1
_geom_bond_atom_site_label_2
_geom_bond_distance
_ccdc_geom_bond_type
O20   V4    2.215639 S    
C15   C17   1.410226 A    
C31   F9    1.385046 S    
N14   O48   1.299859 A    
O1    C3    1.325057 A    
O2    C4    1.325171 A    
C39   N3    1.481878 S    
C2    O7    1.344044 A    
N5    O29   1.293689 A    
C41   O18   1.317682 A    
C35   C37   1.613239 S    
N3    O25   1.301048 A    
O5    C3    1.320227 A    
O12   C44   1.316346 A    
C32   F8    1.375454 S    
N2    O24   1.301017 A    
C14   N10   1.431612 S    
O5    V1    2.000876 S    
C10   F18   1.358756 S    
N10   O39   1.292555 A    
C30   C34   1.566720 S    
O11   V4    2.046337 S    
N8    O35   1.297459 A    
N5    O30   1.301501 A    
C29   F13   1.381177 S    
C8    C12   1.425683 A    
O14   C42   1.318704 A    
O19   V3    2.215602 S    
C22   N6    1.436560 S    
N7    O33   1.297445 A    
C37   N1    1.476611 S    
C18   C20   1.423627 A    
C10   C18   1.409569 A    
C22   C24   1.406261 A    
C5    C42   1.498582 S    
C39   F11   1.380624 S    
C32   C40   1.578928 S    
C42   O17   1.317516 A    
C36   C38   1.613220 S    
O20   V3    1.732029 S    
C31   C39   1.578844 S    
O6    V2    2.000779 S    
N7    O34   1.301579 A    
C5    C21   1.418119 A    
C38   N2    1.476527 S    
C29   C37   1.601639 S    
C26   F22   1.388307 S    
C32   C34   1.564055 S    
C25   F21   1.388775 S    
N11   O42   1.295065 A    
C1    C36   1.556566 S    
C3    C8    1.508785 S    
C30   F6    1.381027 S    
C27   N13   1.479836 S    
C2    C35   1.556587 S    
N3    O26   1.301397 A    
C24   F20   1.359270 S    
C40   N4    1.481803 S    
C12   N8    1.445779 S    
O4    C2    1.364766 A    
N2    O23   1.300775 A    
C20   F2    1.357939 S    
O12   V3    2.046305 S    
C15   C23   1.410337 A    
O14   V4    2.000682 S    
C9    C17   1.409679 A    
O4    V2    2.023610 S    
C7    C11   1.425421 A    
N1    O21   1.300774 A    
N13   O46   1.299873 A    
C23   F19   1.359139 S    
C13   N9    1.431095 S    
N1    O22   1.301024 A    
O17   V3    1.993994 S    
C6    C41   1.498523 S    
O13   V3    2.000778 S    
C25   N11   1.480812 S    
C19   F1    1.358065 S    
O6    C4    1.320245 A    
O19   V4    1.732055 S    
C11   N7    1.445727 S    
N6    O32   1.301532 A    
O1    V2    1.991975 S    
C37   F15   1.380829 S    
O2    V1    1.992025 S    
C31   C33   1.563934 S    
C16   C24   1.410079 A    
C26   N12   1.480788 S    
C30   C38   1.601545 S    
N4    O28   1.301385 A    
C9    C11   1.419472 A    
C31   F7    1.375630 S    
C10   C12   1.419563 A    
C40   F12   1.380607 S    
C6    C20   1.410827 A    
N12   O44   1.295089 A    
N13   O45   1.300216 A    
O3    C1    1.364860 A    
O3    V1    2.023557 S    
C27   C35   1.577355 S    
N9    O37   1.292466 A    
C28   C36   1.577304 S    
C28   N14   1.480005 S    
C29   C33   1.566777 S    
C28   F4    1.383126 S    
C30   F14   1.381125 S    
C14   C16   1.419914 A    
C32   F10   1.385040 S    
C35   C39   1.596100 S    
N11   O41   1.299662 A    
C13   C15   1.420216 A    
C33   C44   1.566362 S    
O15   C43   1.339248 A    
O18   V4    1.993938 S    
C34   C43   1.566341 S    
O16   C44   1.339373 A    
O13   C41   1.318503 A    
N14   O47   1.300269 A    
O7    V1    2.030193 S    
C1    O8    1.343942 A    
C17   C19   1.423416 A    
O8    V2    2.030218 S    
C26   C28   1.583610 S    
O11   C43   1.316451 A    
C38   F16   1.380916 S    
C8    C14   1.416524 A    
C6    C22   1.417086 A    
C5    C19   1.410793 A    
C4    C7    1.509064 S    
C16   C18   1.410259 A    
N6    O31   1.293927 A    
C21   C23   1.407098 A    
N10   O40   1.301659 A    
C21   N5    1.438148 S    
O15   V3    2.023530 S    
C7    C13   1.416249 A    
N8    O36   1.301592 A    
C26   C34   1.590174 S    
C29   F5    1.381137 S    
C9    F17   1.358748 S    
C36   C40   1.596220 S    
N4    O27   1.301079 A    
O16   V4    2.023585 S    
C25   C27   1.583745 S    
O9    V2    1.732341 S    
C27   F3    1.383085 S    
O10   V1    1.732314 S    
N12   O43   1.299680 A    
C25   C33   1.590505 S    
N9    O38   1.301569 A    
