data_mof_unit_45455.cif
_audit_creation_date              2012-12-10T18:09:35-0500
_audit_creation_method            fapswitch 2.2
_symmetry_space_group_name_H-M    P1
_symmetry_Int_Tables_number       1
_space_group_crystal_system       triclinic
_cell_length_a                    15.879998
_cell_length_b                    15.662345
_cell_length_c                    9.951099
_cell_angle_alpha                 90.256867
_cell_angle_beta                  89.821411
_cell_angle_gamma                 90.00073
_cell_volume                      2474.98061815

loop_
_atom_site_label
_atom_site_type_symbol
_atom_type_description
_atom_site_fract_x
_atom_site_fract_y
_atom_site_fract_z
_atom_type_partial_charge
C1    C     C_R   0.120306 0.383100 0.499829 0.793645
C2    C     C_R   0.120553 0.616726 0.500290 0.796497
C3    C     C_R   0.621225 0.884143 0.498709 0.794067
C4    C     C_R   0.622070 0.114849 0.500357 0.800390
C5    C     C_3   0.089961 0.493821 0.079001 0.719461
C6    C     C_3   0.089383 0.511159 0.919196 0.723062
C7    C     C_3   0.590151 0.005450 0.081362 0.727155
C8    C     C_3   0.589778 0.994083 0.920283 0.724429
C9    C     C_R   0.879124 0.379822 0.500726 0.801161
C10   C     C_R   0.879336 0.620326 0.499570 0.803064
C11   C     C_R   0.378980 0.880168 0.500136 0.799956
C12   C     C_R   0.378503 0.119424 0.500166 0.801081
C13   C     C_3   0.806677 0.254224 0.647408 0.283890
C14   C     C_3   0.824246 0.234376 0.384335 0.285979
C15   C     C_3   0.790622 0.733943 0.645885 0.282459
C16   C     C_3   0.836009 0.775192 0.398223 0.282263
C17   C     C_3   0.327787 0.730699 0.610232 0.284457
C18   C     C_3   0.298390 0.762194 0.353133 0.275180
C19   C     C_3   0.297631 0.237511 0.647791 0.273798
C20   C     C_3   0.326702 0.268243 0.389987 0.286918
C21   C     C_3   0.267051 0.653384 0.582739 -0.332782
C22   C     C_3   0.222328 0.699134 0.359134 -0.332027
C23   C     C_3   0.221449 0.300623 0.642422 -0.334239
C24   C     C_3   0.266295 0.345565 0.417892 -0.335912
C25   C     C_3   0.730918 0.189855 0.642390 -0.319013
C26   C     C_3   0.766066 0.155587 0.410607 -0.338301
C27   C     C_3   0.714051 0.794960 0.636886 -0.331108
C28   C     C_3   0.773379 0.851238 0.427303 -0.336602
C29   C     C_3   0.714984 0.342200 0.483827 0.659822
C30   C     C_3   0.720934 0.660965 0.437798 0.664262
C31   C     C_3   0.216489 0.843692 0.540166 0.661189
C32   C     C_3   0.215215 0.155656 0.462539 0.664904
C33   C     C_3   0.809388 0.305874 0.504108 -0.070155
C34   C     C_3   0.809829 0.694359 0.496015 -0.061839
C35   C     C_3   0.308498 0.807313 0.500731 -0.065027
C36   C     C_3   0.307555 0.192025 0.500290 -0.065568
C37   C     C_3   0.189716 0.683365 0.501610 -0.089290
C38   C     C_3   0.188898 0.316078 0.499722 -0.086344
C39   C     C_3   0.691682 0.180815 0.502249 -0.092536
C40   C     C_3   0.690842 0.818089 0.494194 -0.091031
C41   C     C_3   0.153626 0.767996 0.557821 -0.442507
C42   C     C_3   0.151965 0.231309 0.446051 -0.444310
C43   C     C_3   0.652192 0.267042 0.463368 -0.444137
C44   C     C_3   0.658258 0.736990 0.422389 -0.440447
C45   C     C_3   0.960191 0.577158 0.085480 -0.019082
C46   C     C_3   0.952128 0.572210 0.923283 -0.010120
C47   C     C_3   0.956203 0.424359 0.079118 0.000586
C48   C     C_3   0.964024 0.421182 0.916885 -0.027929
C49   C     C_3   0.456267 0.075817 0.080877 0.000723
C50   C     C_3   0.460638 0.077149 0.918195 -0.035163
C51   C     C_3   0.460352 0.922996 0.081993 -0.036079
C52   C     C_3   0.455825 0.924390 0.919339 0.008106
Cu1   Cu    Cu3+1 0.000100 0.500000 0.642410 0.975673
Cu2   Cu    Cu3+1 0.000100 0.500000 0.357590 1.001169
Cu3   Cu    Cu3+1 0.500100 1.000000 0.642410 0.986001
Cu4   Cu    Cu3+1 0.500100 1.000000 0.357590 0.988470
H1    H     H_    0.298680 0.600364 0.528082 0.145169
H2    H     H_    0.243619 0.636851 0.321923 0.246556
H3    H     H_    0.242507 0.362718 0.680182 0.247027
H4    H     H_    0.297987 0.398535 0.472266 0.146235
H5    H     H_    0.753678 0.125934 0.671209 0.236739
H6    H     H_    0.800274 0.101319 0.456777 0.144746
H7    H     H_    0.730246 0.856035 0.685358 0.259649
H8    H     H_    0.801444 0.902351 0.489968 0.144286
H9    H     H_    0.247148 0.621159 0.676338 0.262075
H10   H     H_    0.167942 0.718464 0.296269 0.209997
H11   H     H_    0.167110 0.281283 0.705844 0.204866
H12   H     H_    0.246770 0.377855 0.324545 0.260073
H13   H     H_    0.678935 0.207249 0.711989 0.224988
H14   H     H_    0.744984 0.125999 0.317049 0.265692
H15   H     H_    0.656280 0.770301 0.687127 0.212756
H16   H     H_    0.760046 0.887096 0.336053 0.252238
H17   H     H_    0.132387 0.759928 0.663156 0.213816
H18   H     H_    0.094468 0.781681 0.504584 0.182388
H19   H     H_    0.092558 0.218593 0.501986 0.179694
H20   H     H_    0.130412 0.238898 0.340936 0.208457
H21   H     H_    0.594665 0.276604 0.525847 0.183815
H22   H     H_    0.626875 0.263722 0.359756 0.201531
H23   H     H_    0.595150 0.720465 0.463380 0.179259
H24   H     H_    0.645204 0.751501 0.315530 0.211645
H25   H     H_    0.894479 0.577976 0.123639 0.197134
H26   H     H_    0.884409 0.559521 0.903544 0.140890
H27   H     H_    0.887993 0.432441 0.102313 0.163641
H28   H     H_    0.898854 0.418872 0.882862 0.160360
H29   H     H_    0.388434 0.069001 0.107200 0.164913
H30   H     H_    0.394624 0.076471 0.885269 0.164606
H31   H     H_    0.394362 0.923986 0.115534 0.165051
H32   H     H_    0.388008 0.931474 0.893617 0.164448
N1    N     N_3   0.001260 0.500000 0.143650 -0.226908
N2    N     N_3   0.001260 0.500000 0.856350 -0.226316
N3    N     N_3   0.501260 1.000000 0.143650 -0.228952
N4    N     N_3   0.501260 1.000000 0.856350 -0.224056
O1    O     O_R   0.091250 0.408820 0.620260 -0.561158
O2    O     O_R   0.091250 0.408820 0.379740 -0.537637
O3    O     O_R   0.091250 0.591180 0.620260 -0.535376
O4    O     O_R   0.091250 0.591180 0.379740 -0.557862
O5    O     O_R   0.591250 0.908820 0.620260 -0.546015
O6    O     O_R   0.591250 0.908820 0.379740 -0.549313
O7    O     O_R   0.591250 0.091180 0.620260 -0.560754
O8    O     O_R   0.591250 0.091180 0.379740 -0.535514
O9    O     O_R   0.908940 0.408800 0.620260 -0.599134
O10   O     O_R   0.908940 0.408800 0.379740 -0.565858
O11   O     O_R   0.908940 0.591200 0.620260 -0.597879
O12   O     O_R   0.908940 0.591200 0.379740 -0.565750
O13   O     O_R   0.408940 0.908800 0.620260 -0.571839
O14   O     O_R   0.408940 0.908800 0.379740 -0.593823
O15   O     O_R   0.408940 0.091200 0.620260 -0.593458
O16   O     O_R   0.408940 0.091200 0.379740 -0.572446
C53   C     C_3   0.792849 0.309814 0.778201 -0.678650
H33   H     H_    0.728478 0.307100 0.821261 0.240836
H34   H     H_    0.831261 0.289739 0.864824 0.203280
H35   H     H_    0.802056 0.378025 0.761239 0.261659
C54   C     C_3   0.797750 0.265217 0.241712 -0.730915
H36   H     H_    0.729341 0.266449 0.224733 0.261977
H37   H     H_    0.820743 0.329774 0.220716 0.267448
H38   H     H_    0.818236 0.219426 0.162519 0.235323
C55   C     C_3   0.766245 0.668549 0.759893 -0.668777
H39   H     H_    0.698258 0.653776 0.766212 0.249978
H40   H     H_    0.795643 0.605605 0.751439 0.262136
H41   H     H_    0.776863 0.695213 0.861744 0.214234
C56   C     C_3   0.826609 0.758463 0.244422 -0.750393
H42   H     H_    0.761265 0.761066 0.207451 0.266850
H43   H     H_    0.857969 0.808274 0.182757 0.234943
H44   H     H_    0.851948 0.696322 0.217967 0.261833
C57   C     C_3   0.307356 0.755039 0.758552 -0.743180
H45   H     H_    0.240043 0.754768 0.784636 0.272679
H46   H     H_    0.332294 0.706966 0.829960 0.237600
H47   H     H_    0.329621 0.819189 0.781843 0.267035
C58   C     C_3   0.280641 0.823730 0.231105 -0.650078
H48   H     H_    0.214045 0.825332 0.198257 0.240268
H49   H     H_    0.294015 0.891201 0.251971 0.274944
H50   H     H_    0.313915 0.804670 0.137785 0.201204
C59   C     C_3   0.280171 0.176068 0.770173 -0.654258
H51   H     H_    0.213624 0.174519 0.803940 0.240035
H52   H     H_    0.293736 0.108607 0.749203 0.275529
H53   H     H_    0.313702 0.195148 0.862947 0.200497
C60   C     C_3   0.306038 0.243623 0.241977 -0.743380
H54   H     H_    0.238539 0.243865 0.217231 0.268481
H55   H     H_    0.330698 0.291672 0.170039 0.237394
H56   H     H_    0.328743 0.179626 0.218123 0.266891
C61   C     C_3   0.888682 0.201267 0.671916 -0.772149
H57   H     H_    0.895987 0.182299 0.778436 0.240849
H58   H     H_    0.887972 0.138376 0.622093 0.222377
H59   H     H_    0.945569 0.235464 0.638652 0.212330
C62   C     C_3   0.917613 0.202571 0.372042 -0.792772
H60   H     H_    0.936122 0.186607 0.267536 0.244259
H61   H     H_    0.962640 0.250015 0.411050 0.191329
H62   H     H_    0.930727 0.141833 0.423595 0.240684
C63   C     C_3   0.864826 0.790674 0.698843 -0.786939
H63   H     H_    0.857356 0.806631 0.806905 0.246337
H64   H     H_    0.926857 0.763847 0.674923 0.224792
H65   H     H_    0.865983 0.855800 0.658701 0.220145
C64   C     C_3   0.929777 0.803781 0.415556 -0.791236
H66   H     H_    0.968020 0.750108 0.451930 0.183089
H67   H     H_    0.960639 0.824667 0.320971 0.250968
H68   H     H_    0.938672 0.859508 0.482242 0.246269
C65   C     C_3   0.421773 0.699484 0.609238 -0.789045
H69   H     H_    0.445679 0.683165 0.710535 0.242706
H70   H     H_    0.432314 0.639549 0.552826 0.242755
H71   H     H_    0.465004 0.748224 0.568553 0.189670
C66   C     C_3   0.377505 0.707903 0.314239 -0.781714
H72   H     H_    0.377721 0.690264 0.206240 0.242583
H73   H     H_    0.436622 0.739364 0.342668 0.216915
H74   H     H_    0.378325 0.644281 0.360607 0.223137
C67   C     C_3   0.376848 0.291763 0.685543 -0.777675
H75   H     H_    0.377561 0.309071 0.793656 0.241428
H76   H     H_    0.435892 0.260321 0.655996 0.218695
H77   H     H_    0.377427 0.355504 0.639517 0.223674
C68   C     C_3   0.420568 0.299613 0.389672 -0.791722
H78   H     H_    0.463750 0.250771 0.429407 0.189987
H79   H     H_    0.444165 0.316375 0.288154 0.244648
H80   H     H_    0.431312 0.359282 0.446552 0.242373
Cl1   Cl    Cl    0.672241 0.402969 0.620332 -0.565957
Cl2   Cl    Cl    0.703836 0.414239 0.347412 -0.500348
Cl3   Cl    Cl    0.669453 0.585933 0.540761 -0.518689
Cl4   Cl    Cl    0.725962 0.603718 0.281480 -0.552875
Cl5   Cl    Cl    0.213748 0.910149 0.687382 -0.562901
Cl6   Cl    Cl    0.168857 0.911594 0.419471 -0.519440
Cl7   Cl    Cl    0.167923 0.087715 0.583939 -0.514366
Cl8   Cl    Cl    0.212226 0.089288 0.315306 -0.565685
C69   C     C_3   0.000134 0.661836 0.140070 -0.724199
H81   H     H_    0.964821 0.718307 0.105904 0.189457
H82   H     H_    0.999816 0.667246 0.249178 0.275404
H83   H     H_    0.064845 0.673488 0.105917 0.279698
C70   C     C_3   0.967085 0.660785 0.862260 -0.676160
H84   H     H_    0.989689 0.658852 0.759511 0.292848
H85   H     H_    0.910381 0.696622 0.883577 0.203253
H86   H     H_    0.014699 0.703159 0.906203 0.243454
C71   C     C_3   0.977345 0.335094 0.138430 -0.682045
H87   H     H_    0.927878 0.290720 0.108929 0.179133
H88   H     H_    0.030603 0.299244 0.096471 0.250427
H89   H     H_    0.991199 0.335366 0.244637 0.289741
C72   C     C_3   0.004363 0.338378 0.859840 -0.709933
H90   H     H_    0.969525 0.281257 0.892387 0.190613
H91   H     H_    0.002415 0.335933 0.751479 0.276860
H92   H     H_    0.070086 0.328617 0.890748 0.273200
C73   C     C_3   0.480049 0.165615 0.139850 -0.674434
H93   H     H_    0.433877 0.212347 0.106494 0.176579
H94   H     H_    0.490072 0.167704 0.247481 0.285810
H95   H     H_    0.535231 0.198874 0.100176 0.250190
C74   C     C_3   0.497462 0.161158 0.861295 -0.706601
H96   H     H_    0.500740 0.161286 0.753259 0.281261
H97   H     H_    0.457854 0.215671 0.890561 0.194639
H98   H     H_    0.561465 0.176200 0.895813 0.266056
C75   C     C_3   0.496828 0.838805 0.138343 -0.703963
H99   H     H_    0.456622 0.784673 0.110334 0.193720
H100  H     H_    0.560299 0.822767 0.102025 0.271335
H101  H     H_    0.501162 0.839052 0.246249 0.280848
C76   C     C_3   0.479211 0.834370 0.860139 -0.679049
H102  H     H_    0.433236 0.787893 0.895395 0.176886
H103  H     H_    0.488688 0.831873 0.752317 0.284209
H104  H     H_    0.534315 0.800559 0.898256 0.246849
Cl9   Cl    Cl    0.168688 0.556522 0.152670 -0.578257
Cl10  Cl    Cl    0.139860 0.611758 0.880803 -0.636466
Cl11  Cl    Cl    0.146793 0.397363 0.117564 -0.627974
Cl12  Cl    Cl    0.170396 0.452253 0.842698 -0.577771
Cl13  Cl    Cl    0.648428 0.099388 0.125902 -0.626924
Cl14  Cl    Cl    0.666903 0.059612 0.847854 -0.584706
Cl15  Cl    Cl    0.666445 0.936949 0.154330 -0.581099
Cl16  Cl    Cl    0.647017 0.900623 0.877907 -0.627762

loop_
_geom_bond_atom_site_label_1
_geom_bond_atom_site_label_2
_ccdc_geom_bond_type
C16   C28   S    
C73   H95   S    
Cu3   Cu4   S    
C49   C50   S    
C65   H69   S    
C48   C72   S    
Cu1   O3    S    
C68   H79   S    
C74   H96   S    
C25   H13   S    
C3    O6    A    
Cu4   O6    S    
C29   Cl2   S    
C30   C44   S    
C66   H74   S    
C14   C33   S    
C66   H72   S    
C45   C69   S    
C7    C8    S    
C49   C73   S    
C45   C46   S    
C43   H22   S    
C23   H3    S    
C60   H55   S    
C14   C62   S    
C42   H19   S    
C67   H75   S    
Cu3   O13   S    
C43   H21   S    
C32   C36   S    
Cu2   O12   S    
C10   O11   A    
C38   C42   S    
C19   C36   S    
C63   H64   S    
C5    C6    S    
C18   C66   S    
C26   C39   S    
C70   H85   S    
C63   H63   S    
C28   C40   S    
C5    Cl11  S    
C29   C33   S    
C76   H104  S    
C71   H88   S    
C68   H78   S    
C23   H11   S    
C73   H94   S    
Cu4   O16   S    
C56   H44   S    
C13   C53   S    
C53   H34   S    
C51   N3    S    
C41   H18   S    
C46   H26   S    
C61   H57   S    
C11   C35   S    
Cu4   N3    S    
C22   H10   S    
C20   C24   S    
Cu1   O9    S    
C1    O2    A    
C72   H91   S    
C11   O13   A    
C59   H53   S    
C24   C38   S    
C32   Cl7   S    
C8    N4    S    
C13   C61   S    
C12   C36   S    
C24   H12   S    
C45   N1    S    
C18   C35   S    
C15   C34   S    
Cu2   O4    S    
C54   H38   S    
C7    Cl15  S    
C69   H82   S    
C20   C68   S    
C7    N3    S    
C65   H70   S    
C9    O9    A    
C48   N2    S    
C29   C43   S    
C9    C33   S    
C74   H97   S    
C13   C25   S    
C28   H16   S    
C49   N3    S    
C30   Cl4   S    
C66   H73   S    
C62   H60   S    
C75   H100  S    
C60   H56   S    
Cu2   O2    S    
C62   H61   S    
C31   Cl6   S    
Cu1   O1    S    
C51   C52   S    
C68   H80   S    
C49   H29   S    
C44   H24   S    
Cu2   N1    S    
C53   H35   S    
C51   H31   S    
C12   O16   A    
C30   C34   S    
C58   H48   S    
C9    O10   A    
C70   H86   S    
C39   C43   S    
C69   H81   S    
C22   C37   S    
C2    O4    A    
C17   C21   S    
C48   H28   S    
C27   H15   S    
Cu3   O15   S    
C61   H58   S    
C20   C36   S    
C20   C60   S    
C47   C71   S    
C71   H89   S    
C19   C23   S    
C16   C56   S    
C13   C33   S    
Cu3   N4    S    
C8    Cl16  S    
C57   H47   S    
C3    O5    A    
C15   C27   S    
C47   C48   S    
C6    Cl10  S    
C4    C39   S    
C52   H32   S    
C27   C40   S    
C24   H4    S    
C72   H92   S    
C5    Cl9   S    
Cu3   O5    S    
C11   O14   A    
C76   H102  S    
C69   H83   S    
C21   C37   S    
C10   C34   S    
C25   H5    S    
C14   C26   S    
C64   H68   S    
Cu4   O14   S    
C56   H42   S    
C27   H7    S    
C1    C38   S    
C28   H8    S    
C1    O1    A    
C31   Cl5   S    
C3    C40   S    
C47   N1    S    
C67   H77   S    
C47   H27   S    
C4    O8    A    
C57   H45   S    
C26   H14   S    
C74   H98   S    
C31   C35   S    
C61   H59   S    
C64   H67   S    
Cu4   O8    S    
C23   C38   S    
C30   Cl3   S    
C15   C63   S    
C62   H62   S    
C17   C65   S    
C59   H52   S    
C54   H36   S    
C60   H54   S    
C50   C74   S    
C50   N4    S    
C75   H99   S    
C2    O3    A    
C31   C41   S    
C21   H9    S    
C18   C22   S    
C42   H20   S    
Cu2   O10   S    
C44   H23   S    
C45   H25   S    
C29   Cl1   S    
C16   C64   S    
C22   H2    S    
C12   O15   A    
C51   C75   S    
Cu1   Cu2   S    
C46   N2    S    
C65   H71   S    
C19   C59   S    
C14   C54   S    
C17   C35   S    
C21   H1    S    
C63   H65   S    
C16   C34   S    
C58   H50   S    
C55   H40   S    
C52   C76   S    
C26   H6    S    
C6    N2    S    
C55   H39   S    
C25   C39   S    
C2    C37   S    
C17   C57   S    
C70   H84   S    
C59   H51   S    
Cu1   O11   S    
C10   O12   A    
C76   H103  S    
C55   H41   S    
C73   H93   S    
C46   C70   S    
C37   C41   S    
C71   H87   S    
C56   H43   S    
C8    Cl14  S    
C50   H30   S    
C41   H17   S    
C7    Cl13  S    
C15   C55   S    
C40   C44   S    
C6    Cl12  S    
C67   H76   S    
C72   H90   S    
C4    O7    A    
Cu3   O7    S    
Cu1   N2    S    
C57   H46   S    
C32   C42   S    
C32   Cl8   S    
C18   C58   S    
C75   H101  S    
C19   C67   S    
C58   H49   S    
C64   H66   S    
C53   H33   S    
C52   N4    S    
C5    N1    S    
C54   H37   S    
