data_mof_unit_15469.cif
_audit_creation_date              2012-12-10T19:01:21-0500
_audit_creation_method            fapswitch 2.2
_symmetry_space_group_name_H-M    P1
_symmetry_Int_Tables_number       1
_space_group_crystal_system       triclinic
_cell_length_a                    9.596428
_cell_length_b                    10.821997
_cell_length_c                    15.47476
_cell_angle_alpha                 88.621787
_cell_angle_beta                  74.020926
_cell_angle_gamma                 89.981119
_cell_volume                      1544.51832917

loop_
_atom_site_label
_atom_site_type_symbol
_atom_type_description
_atom_site_fract_x
_atom_site_fract_y
_atom_site_fract_z
_atom_type_partial_charge
C1    C     C_R   0.998515 0.262540 0.503152 0.795218
C2    C     C_R   0.666150 0.465675 0.905164 0.105592
C3    C     C_R   0.759951 0.411924 0.951893 0.165687
C4    C     C_R   0.515670 0.479230 0.949769 0.068264
C5    C     C_R   0.463545 0.447689 0.042797 0.073817
C6    C     C_R   0.560837 0.392281 0.086300 -0.223306
C7    C     C_R   0.705863 0.375294 0.041625 -0.234903
C8    C     C_R   0.416053 0.522236 0.903787 -0.308348
C9    C     C_R   0.271704 0.546049 0.947856 -0.029011
C10   C     C_R   0.219484 0.519525 0.040995 0.129594
C11   C     C_R   0.316144 0.472410 0.089143 0.072807
C12   C     C_R   0.917953 0.496959 0.672057 0.793167
C13   C     C_R   0.072512 0.537091 0.087556 -0.157139
C14   C     C_R   0.026057 0.526020 0.180655 -0.211397
C15   C     C_R   0.263522 0.457495 0.183343 -0.257308
C16   C     C_R   0.120331 0.064459 0.510770 0.133703
C17   C     C_R   0.993601 0.129479 0.515122 -0.101170
C18   C     C_R   0.861623 0.063843 0.535792 -0.205922
C19   C     C_R   0.862195 0.934616 0.537030 -0.224696
C20   C     C_R   0.994588 0.870640 0.515451 -0.103139
C21   C     C_R   0.121141 0.937439 0.511109 0.147252
C22   C     C_3   0.268178 0.935280 0.445744 -0.501350
C23   C     C_R   0.998778 0.737648 0.503217 0.798492
C24   C     C_3   0.266143 0.075395 0.444935 -0.457049
C25   C     C_R   0.606359 0.534801 0.424609 0.195400
C26   C     C_R   0.542142 0.455491 0.571893 -0.086154
C27   C     C_R   0.393665 0.456607 0.572243 -0.089027
C28   C     C_R   0.460234 0.529738 0.422954 0.217333
C29   C     C_3   0.475796 0.648108 0.368615 -0.096019
C30   C     C_3   0.632956 0.654852 0.371333 -0.092301
C31   C     C_R   0.081450 0.496653 0.327952 0.791845
C32   C     C_R   0.871034 0.479344 0.770094 -0.042334
C33   C     C_R   0.123600 0.492735 0.229256 -0.054351
C34   C     C_R   0.906956 0.393304 0.907824 -0.181214
C35   C     C_R   0.961595 0.424751 0.816901 -0.183097
C36   C     C_R   0.726937 0.504225 0.815160 -0.238242
Cu1   Cu    Cu3+1 0.140670 0.499980 0.500000 0.940759
Cu2   Cu    Cu3+1 0.859330 0.500020 0.500000 0.940005
H1    H     H_    0.776236 0.332671 0.077727 0.146787
H2    H     H_    0.991758 0.560986 0.053454 0.192392
H3    H     H_    0.759196 0.111587 0.546977 0.164955
H4    H     H_    0.759978 0.885903 0.551084 0.166873
H5    H     H_    0.350196 0.897646 0.477646 0.196508
H6    H     H_    0.267568 0.895695 0.380167 0.201322
H7    H     H_    0.347705 0.116573 0.474915 0.201701
H8    H     H_    0.262231 0.117363 0.379306 0.197562
H9    H     H_    0.570504 0.420386 0.630756 0.141753
H10   H     H_    0.312454 0.423195 0.631453 0.134095
H11   H     H_    0.330434 0.423802 0.223980 0.149541
H12   H     H_    0.403994 0.719791 0.406148 0.194982
H13   H     H_    0.713339 0.644667 0.304846 0.169931
H14   H     H_    0.914410 0.546401 0.214533 0.145446
H15   H     H_    0.978754 0.351309 0.943136 0.131661
H16   H     H_    0.073190 0.403484 0.782813 0.130015
H17   H     H_    0.664964 0.553417 0.777362 0.145722
H18   H     H_    0.528338 0.357732 0.154714 0.137499
H19   H     H_    0.447474 0.539609 0.832261 0.127839
N1    N     N_R   0.648210 0.500930 0.499430 -0.177503
N2    N     N_R   0.352300 0.500890 0.499430 -0.192620
O1    O     O_R   0.118810 0.319640 0.500000 -0.577442
O2    O     O_R   0.881230 0.319680 0.499990 -0.581434
O3    O     O_R   0.055580 0.499970 0.629840 -0.587632
O4    O     O_R   0.818000 0.500010 0.629830 -0.591346
O5    O     O_R   0.118770 0.680320 0.500010 -0.576055
O6    O     O_R   0.881190 0.680360 0.500000 -0.577286
O7    O     O_R   0.182000 0.499990 0.370170 -0.578662
O8    O     O_R   0.944420 0.500030 0.370160 -0.580041
C37   C     C_3   0.465493 0.638200 0.272289 -0.855549
H20   H     H_    0.351412 0.646031 0.270758 0.259559
H21   H     H_    0.524808 0.716829 0.230763 0.242311
H22   H     H_    0.514434 0.550976 0.242147 0.230115
C38   C     C_3   0.659933 0.770264 0.419425 -0.808620
H23   H     H_    0.614588 0.759031 0.493373 0.239158
H24   H     H_    0.777413 0.791112 0.400261 0.253966
H25   H     H_    0.608891 0.851888 0.396014 0.217999
C39   C     C_2   0.184477 0.606083 0.892794 0.345697
H26   H     H_    0.209083 0.587346 0.821583 0.067608
O9    O     O_2   0.092606 0.683177 0.923783 -0.540266

loop_
_geom_bond_atom_site_label_1
_geom_bond_atom_site_label_2
_ccdc_geom_bond_type
C27   H10   S    
C8    C9    A    
C31   O7    A    
C30   H13   S    
C16   C21   A    
C19   C20   A    
C4    C8    A    
C14   C33   A    
Cu1   O3    S    
C25   C28   A    
C31   O8    A    
C26   C27   A    
Cu1   Cu2   S    
C24   H7    S    
C32   C36   A    
C28   C29   S    
C39   O9    D    
C5    C11   A    
C3    C7    A    
C5    C6    A    
C18   C19   A    
C34   C35   A    
C13   H2    S    
Cu2   N1    S    
C11   C15   A    
C22   H6    S    
C16   C17   A    
C31   C33   S    
C9    C39   S    
C9    C10   A    
C19   H4    S    
Cu2   O2    S    
C16   C24   S    
C13   C14   A    
C12   C32   S    
C35   H16   S    
C38   H25   S    
C29   H12   S    
C14   H14   S    
C32   C35   A    
C39   H26   S    
C38   H24   S    
C18   H3    S    
C12   O4    A    
C38   H23   S    
C3    C34   A    
C2    C4    A    
C29   C30   S    
C8    H19   S    
C29   C37   S    
C12   O3    A    
C22   H5    S    
C20   C23   S    
Cu1   O7    S    
C17   C18   A    
C20   C21   A    
C26   N1    A    
Cu1   N2    S    
C26   H9    S    
C23   O5    A    
C22   C24   S    
C1    O1    A    
C25   N1    A    
Cu1   O5    S    
Cu2   O4    S    
C28   N2    A    
C2    C36   A    
C25   C30   S    
C37   H20   S    
C6    H18   S    
C4    C5    A    
C10   C13   A    
C1    O2    A    
C30   C38   S    
C6    C7    A    
C1    C17   S    
C24   H8    S    
C23   O6    A    
C2    C3    A    
C36   H17   S    
C27   N2    A    
C37   H22   S    
C15   H11   S    
Cu1   O1    S    
C10   C11   A    
Cu2   O8    S    
C34   H15   S    
C37   H21   S    
C7    H1    S    
C21   C22   S    
Cu2   O6    S    
C15   C33   A    
