data_mof_unit_21069.cif
_audit_creation_date              2012-12-10T17:50:32-0500
_audit_creation_method            fapswitch 2.2
_symmetry_space_group_name_H-M    P1
_symmetry_Int_Tables_number       1
_space_group_crystal_system       triclinic
_cell_length_a                    15.71099
_cell_length_b                    10.631608
_cell_length_c                    9.933316
_cell_angle_alpha                 89.904778
_cell_angle_beta                  89.831494
_cell_angle_gamma                 91.644239
_cell_volume                      1658.49957311

loop_
_atom_site_label
_atom_site_type_symbol
_atom_type_description
_atom_site_fract_x
_atom_site_fract_y
_atom_site_fract_z
_atom_type_partial_charge
C1    C     C_R   0.502146 0.260761 0.500114 0.847906
C2    C     C_3   0.082688 0.496904 0.500523 0.135827
C3    C     C_3   0.972927 0.579458 0.591819 -0.145964
C4    C     C_3   0.917190 0.496596 0.499456 0.148239
C5    C     C_3   0.030337 0.612783 0.469233 -0.202627
C6    C     C_3   0.972756 0.530038 0.376724 -0.183447
C7    C     C_1   0.173659 0.497694 0.500821 -0.012420
C8    C     C_1   0.826278 0.497563 0.499371 -0.047712
C9    C     C_R   0.644866 0.137026 0.623556 -0.171739
C10   C     C_R   0.711702 0.074101 0.683267 -0.128008
C11   C     C_R   0.711789 0.943226 0.683048 -0.135414
C12   C     C_R   0.338047 0.499612 0.500170 0.887206
C13   C     C_R   0.645077 0.874813 0.623018 -0.189322
C14   C     C_R   0.576270 0.937179 0.563289 0.095604
C15   C     C_R   0.576137 0.069065 0.563595 0.097889
C16   C     C_R   0.507947 0.128673 0.499930 -0.086012
C17   C     C_R   0.443631 0.061952 0.432793 -0.212526
C18   C     C_R   0.443782 0.933427 0.432486 -0.195629
C19   C     C_R   0.508234 0.871985 0.499325 -0.098019
C20   C     C_R   0.388651 0.334708 0.140548 -0.141227
C21   C     C_R   0.333849 0.253234 0.070832 -0.163767
C22   C     C_R   0.333856 0.253249 0.931483 -0.182081
C23   C     C_R   0.502439 0.739402 0.499851 0.865481
C24   C     C_R   0.388667 0.334734 0.860967 -0.146154
C25   C     C_R   0.445205 0.418517 0.928138 0.165838
C26   C     C_R   0.445211 0.418541 0.072608 0.165441
C27   C     C_R   0.552416 0.577980 0.071028 -0.103766
C28   C     C_R   0.552397 0.577952 0.928053 -0.104610
C29   C     C_R   0.661962 0.500191 0.499844 0.875948
C30   C     C_3   0.969272 0.380431 0.530768 -0.191434
C31   C     C_3   0.026494 0.414853 0.409077 0.320267
C32   C     C_1   0.249036 0.498586 0.500628 -0.161606
C33   C     C_1   0.750937 0.498826 0.499496 -0.185996
C34   C     C_3   0.026912 0.463460 0.623026 -0.200928
H1    H     H_    0.764139 0.894545 0.728273 0.136963
H2    H     H_    0.648811 0.773436 0.622118 0.141483
H3    H     H_    0.392536 0.881467 0.382590 0.156795
H4    H     H_    0.595272 0.641799 0.124241 0.149324
H5    H     H_    0.384676 0.329231 0.247310 0.199656
H6    H     H_    0.291038 0.189781 0.125471 0.170107
H7    H     H_    0.291044 0.189802 0.877482 0.158243
H8    H     H_    0.384747 0.329399 0.754206 0.203565
H9    H     H_    0.595224 0.641780 0.874129 0.145689
H10   H     H_    0.942310 0.285414 0.555176 0.156561
H11   H     H_    0.948682 0.556525 0.275914 0.158876
H12   H     H_    0.057318 0.707678 0.444376 0.157952
H13   H     H_    0.948685 0.647082 0.666810 0.143561
H14   H     H_    0.051118 0.436547 0.723622 0.163041
H15   H     H_    0.392302 0.109651 0.383028 0.144202
H16   H     H_    0.648442 0.238664 0.623162 0.153236
H17   H     H_    0.763998 0.127095 0.728626 0.141417
N1    N     N_R   0.499210 0.498800 0.142780 -0.121537
N2    N     N_R   0.499180 0.498720 0.857170 -0.120814
O1    O     O_R   0.500000 0.316780 0.614690 -0.641346
O2    O     O_R   0.499990 0.316750 0.385360 -0.630203
O3    O     O_R   0.376780 0.500000 0.614650 -0.628624
O4    O     O_R   0.376770 0.499980 0.385310 -0.625668
O5    O     O_R   0.500010 0.683250 0.614640 -0.614421
O6    O     O_R   0.500000 0.683220 0.385310 -0.612000
O7    O     O_R   0.623230 0.500020 0.614690 -0.626816
O8    O     O_R   0.623220 0.500000 0.385350 -0.603386
Zn1   Zn    Zn3+2 0.500010 0.500020 0.653130 0.936594
Zn2   Zn    Zn3+2 0.499990 0.499980 0.346870 0.948574
Br1   Br    Br    0.067443 0.296559 0.277470 -0.556264

loop_
_geom_bond_atom_site_label_1
_geom_bond_atom_site_label_2
_ccdc_geom_bond_type
O5    Zn1   S    
C23   O5    A    
C19   C23   S    
C28   N2    A    
C24   C25   A    
C6    H11   S    
C26   N1    A    
C24   H8    S    
N2    Zn1   S    
C28   H9    S    
O6    Zn2   S    
C2    C7    S    
C29   O7    A    
C30   C31   S    
C4    C8    S    
O3    Zn1   S    
C2    C34   S    
C11   H1    S    
C17   C18   A    
C1    O2    A    
C1    C16   S    
C21   C22   A    
C12   C32   S    
C23   O6    A    
C11   C13   A    
C30   H10   S    
C12   O3    A    
C21   H6    S    
C20   C26   A    
C1    O1    A    
C12   O4    A    
C14   C19   A    
C9    C10   A    
C3    H13   S    
C18   H3    S    
C25   N2    A    
O4    Zn2   S    
C29   O8    A    
C8    C33   T    
C9    C15   A    
C5    C6    S    
C22   C24   A    
C22   H7    S    
C34   H14   S    
C10   C11   A    
C10   H17   S    
C27   H4    S    
C3    C4    S    
C2    C5    S    
C29   C33   S    
C20   C21   A    
C27   N1    A    
C13   H2    S    
O7    Zn1   S    
C4    C6    S    
C5    H12   S    
C17   H15   S    
C27   C28   A    
O8    Zn2   S    
C20   H5    S    
C30   C34   S    
C14   C15   A    
C18   C19   A    
C6    C31   S    
C7    C32   T    
O1    Zn1   S    
C3    C34   S    
C25   C26   A    
C13   C14   A    
C31   Br1   S    
C4    C30   S    
C9    H16   S    
C15   C16   A    
C16   C17   A    
C2    C31   S    
C3    C5    S    
N1    Zn2   S    
O2    Zn2   S    
