data_mof_unit_65801.cif
_audit_creation_date              2012-12-11T14:03:56-0500
_audit_creation_method            fapswitch 2.2
_symmetry_space_group_name_H-M    P1
_symmetry_Int_Tables_number       1
_space_group_crystal_system       triclinic
_cell_length_a                    20.192903
_cell_length_b                    22.027954
_cell_length_c                    8.379188
_cell_angle_alpha                 89.890072
_cell_angle_beta                  103.334419
_cell_angle_gamma                 89.961423
_cell_volume                      3626.64200057

loop_
_atom_site_label
_atom_site_type_symbol
_atom_type_description
_atom_site_fract_x
_atom_site_fract_y
_atom_site_fract_z
_atom_type_partial_charge
Ba1   Ba    Ba6+2 0.999900 0.456810 0.844860 1.713942
Ba2   Ba    Ba6+2 0.999900 0.543190 0.344860 1.703606
Ba3   Ba    Ba6+2 0.499900 0.956810 0.844860 1.713943
Ba4   Ba    Ba6+2 0.499900 0.043190 0.344860 1.703607
C1    C     C_3   0.055313 0.175319 0.629882 -0.303598
C2    C     C_R   0.180925 0.265199 0.396588 -0.134622
C3    C     C_R   0.679863 0.235394 0.896342 -0.132412
C4    C     C_R   0.680926 0.765199 0.396587 -0.134624
C5    C     C_R   0.219405 0.729065 0.059602 0.003948
C6    C     C_R   0.221406 0.272239 0.558400 0.002154
C7    C     C_R   0.719404 0.229065 0.059602 0.003953
C8    C     C_R   0.721406 0.772240 0.558399 0.002157
C9    C     C_R   0.204621 0.678182 0.150737 -0.118316
C10   C     C_R   0.206510 0.323008 0.649318 -0.115474
C11   C     C_R   0.704621 0.178182 0.150737 -0.118313
C12   C     C_3   0.043547 0.827601 0.081159 -0.349786
C13   C     C_R   0.706510 0.823008 0.649318 -0.115471
C14   C     C_R   0.151806 0.637517 0.084846 0.059338
C15   C     C_R   0.152554 0.362870 0.584705 0.056628
C16   C     C_R   0.651806 0.137517 0.084846 0.059336
C17   C     C_R   0.652554 0.862870 0.584705 0.056627
C18   C     C_R   0.813727 0.268843 0.297458 -0.089476
C19   C     C_R   0.813872 0.730951 0.797556 -0.058917
C20   C     C_R   0.313729 0.768842 0.297456 -0.089492
C21   C     C_R   0.313872 0.230951 0.797557 -0.058919
C22   C     C_R   0.865800 0.309908 0.363818 0.063770
C23   C     C_3   0.555311 0.675317 0.629873 -0.303593
C24   C     C_R   0.864667 0.688810 0.864890 0.062680
C25   C     C_R   0.365802 0.809906 0.363817 0.063766
C26   C     C_R   0.364667 0.188810 0.864890 0.062680
C27   C     C_R   0.844998 0.364245 0.105613 -0.019978
C28   C     C_R   0.845101 0.635544 0.606491 -0.011631
C29   C     C_R   0.344999 0.864245 0.105613 -0.019976
C30   C     C_R   0.345101 0.135544 0.606492 -0.011631
C31   C     C_R   0.793738 0.322487 0.037445 -0.143704
C32   C     C_R   0.797599 0.680215 0.535128 -0.153839
C33   C     C_R   0.293738 0.822486 0.037445 -0.143708
C34   C     C_3   0.543551 0.327600 0.081166 -0.349753
C35   C     C_R   0.297598 0.180215 0.535128 -0.153837
C36   C     C_R   0.776370 0.273567 0.131629 0.011160
C37   C     C_R   0.778553 0.727849 0.630308 0.023597
C38   C     C_R   0.276371 0.773567 0.131628 0.011154
C39   C     C_R   0.278553 0.227849 0.630309 0.023596
C40   C     C_3   0.976584 0.236407 0.079853 0.354231
C41   C     C_3   0.975727 0.763474 0.572938 0.354859
C42   C     C_3   0.476580 0.736409 0.079818 0.354247
C43   C     C_3   0.475728 0.263475 0.572940 0.354848
C44   C     C_R   0.881310 0.356953 0.267398 -0.232032
C45   C     C_R   0.128405 0.693816 0.829716 0.004359
C46   C     C_R   0.879607 0.641259 0.769871 -0.206955
C47   C     C_R   0.381312 0.856952 0.267397 -0.232018
C48   C     C_R   0.379607 0.141259 0.769871 -0.206956
C49   C     C_3   0.943474 0.174167 0.052523 -0.335964
C50   C     C_3   0.942242 0.825570 0.542402 -0.348638
C51   C     C_3   0.443471 0.674169 0.052494 -0.335971
C52   C     C_3   0.442244 0.325571 0.542405 -0.348666
C53   C     C_3   0.195232 0.462330 0.283423 0.310138
C54   C     C_3   0.194672 0.537642 0.784322 0.310273
C55   C     C_3   0.695232 0.962330 0.283423 0.310137
C56   C     C_R   0.128978 0.306504 0.330247 0.002154
C57   C     C_3   0.694672 0.037642 0.784322 0.310272
C58   C     C_3   0.259601 0.423835 0.322606 -0.387329
C59   C     C_3   0.258940 0.576119 0.824837 -0.387140
C60   C     C_3   0.759601 0.923835 0.322606 -0.387328
C61   C     C_3   0.758940 0.076119 0.824838 -0.387138
C62   C     C_3   0.761925 0.502011 0.056724 0.641694
C63   C     C_3   0.748619 0.511182 0.539816 0.695087
C64   C     C_3   0.261924 0.002011 0.056724 0.641708
C65   C     C_3   0.248619 0.011181 0.539817 0.695081
C66   C     C_3   0.714086 0.452857 0.095435 -0.368498
C67   C     C_R   0.628405 0.193816 0.829716 0.004360
C68   C     C_3   0.687962 0.553371 0.476086 -0.273786
C69   C     C_3   0.214086 0.952857 0.095434 -0.368534
C70   C     C_3   0.187961 0.053370 0.476088 -0.273778
C71   C     C_3   0.022320 0.237799 0.610198 0.301156
C72   C     C_3   0.017526 0.763532 0.094895 0.318523
C73   C     C_3   0.522317 0.737796 0.610168 0.301148
C74   C     C_3   0.517527 0.263531 0.094898 0.318515
C75   C     C_R   0.112955 0.646650 0.926152 -0.285527
C76   C     C_R   0.113286 0.353484 0.426617 -0.288914
C77   C     C_R   0.612955 0.146650 0.926152 -0.285527
C78   C     C_R   0.628978 0.806503 0.330247 0.002153
C79   C     C_R   0.613286 0.853483 0.426617 -0.288922
C80   C     C_R   0.179863 0.735393 0.896342 -0.132409
H1    H     H_    0.051706 0.267545 0.708375 0.096885
H2    H     H_    0.247125 0.622614 0.859578 0.064117
H3    H     H_    0.657165 0.060148 0.683668 0.060208
H4    H     H_    0.634385 0.526250 0.820712 0.338607
H5    H     H_    0.634597 0.381537 0.402679 0.364890
H6    H     H_    0.134385 0.026249 0.820713 0.338607
H7    H     H_    0.134642 0.881518 0.402569 0.364871
H8    H     H_    0.747882 0.877076 0.355697 0.064890
H9    H     H_    0.747125 0.122614 0.859579 0.064117
H10   H     H_    0.282283 0.421646 0.213924 0.130915
H11   H     H_    0.281625 0.579101 0.716259 0.130904
H12   H     H_    0.782283 0.921646 0.213924 0.130916
H13   H     H_    0.781625 0.079101 0.716260 0.130905
H14   H     H_    0.801836 0.511554 0.165531 0.045832
H15   H     H_    0.774057 0.524685 0.665505 0.021729
H16   H     H_    0.301836 0.011553 0.165531 0.045834
H17   H     H_    0.051614 0.740476 0.200871 0.089950
H18   H     H_    0.274058 0.024685 0.665505 0.021727
H19   H     H_    0.688391 0.427695 0.984497 0.142596
H20   H     H_    0.663643 0.543472 0.346318 0.167269
H21   H     H_    0.188390 0.927695 0.984495 0.142601
H22   H     H_    0.163643 0.043471 0.346320 0.167266
H23   H     H_    0.674010 0.473336 0.148431 0.183589
H24   H     H_    0.649351 0.547574 0.550023 0.112002
H25   H     H_    0.174010 0.973336 0.148430 0.183582
H26   H     H_    0.149350 0.047572 0.550026 0.112008
H27   H     H_    0.742426 0.420462 0.187270 0.102406
H28   H     H_    0.551711 0.767550 0.708316 0.096854
H29   H     H_    0.703393 0.601311 0.485612 0.051281
H30   H     H_    0.242425 0.920462 0.187268 0.102387
H31   H     H_    0.203392 0.101310 0.485615 0.051279
H32   H     H_    0.024965 0.256005 0.488129 -0.052194
H33   H     H_    0.019397 0.739168 0.979997 -0.054103
H34   H     H_    0.524950 0.755992 0.488079 -0.052203
H35   H     H_    0.519399 0.239168 0.980000 -0.054107
H36   H     H_    0.109239 0.178946 0.621188 0.103406
H37   H     H_    0.097907 0.826198 0.075094 0.088767
H38   H     H_    0.609231 0.678940 0.621119 0.103377
H39   H     H_    0.551615 0.240474 0.200874 0.089956
H40   H     H_    0.597911 0.326195 0.075105 0.088794
H41   H     H_    0.053748 0.155946 0.751420 0.191489
H42   H     H_    0.038491 0.854682 0.189236 0.149270
H43   H     H_    0.553770 0.655959 0.751444 0.191501
H44   H     H_    0.538495 0.354680 0.189244 0.149254
H45   H     H_    0.890498 0.176778 0.068931 0.059222
H46   H     H_    0.888915 0.822852 0.556241 0.061645
H47   H     H_    0.390490 0.676783 0.068872 0.059226
H48   H     H_    0.388917 0.322853 0.556247 0.061656
H49   H     H_    0.803297 0.234292 0.379196 0.068646
H50   H     H_    0.297175 0.443878 0.427182 0.127260
H51   H     H_    0.802806 0.765057 0.879491 0.066250
H52   H     H_    0.303300 0.734290 0.379194 0.068644
H53   H     H_    0.302806 0.265057 0.879491 0.066249
H54   H     H_    0.188415 0.771294 0.816253 0.106307
H55   H     H_    0.188939 0.228726 0.317847 0.114838
H56   H     H_    0.688414 0.271294 0.816254 0.106302
H57   H     H_    0.688940 0.728727 0.317846 0.114839
H58   H     H_    0.767395 0.330553 0.912326 0.134488
H59   H     H_    0.774875 0.675356 0.406616 0.132068
H60   H     H_    0.267395 0.830553 0.912327 0.134489
H61   H     H_    0.296559 0.555522 0.928728 0.128014
H62   H     H_    0.274874 0.175355 0.406617 0.132067
H63   H     H_    0.234328 0.667748 0.271629 0.077615
H64   H     H_    0.237010 0.333923 0.768951 0.074729
H65   H     H_    0.734328 0.167749 0.271629 0.077615
H66   H     H_    0.737010 0.833924 0.768950 0.074728
H67   H     H_    0.920521 0.389259 0.320517 0.066435
H68   H     H_    0.917203 0.607710 0.824798 0.059963
H69   H     H_    0.420522 0.889258 0.320516 0.066433
H70   H     H_    0.417203 0.107711 0.824797 0.059963
H71   H     H_    0.073340 0.614619 0.873650 0.062482
H72   H     H_    0.797175 0.943877 0.427182 0.127261
H73   H     H_    0.073083 0.385155 0.374507 0.062881
H74   H     H_    0.573340 0.114618 0.873650 0.062482
H75   H     H_    0.573083 0.885155 0.374507 0.062883
H76   H     H_    0.027947 0.144555 0.531766 0.105086
H77   H     H_    0.013486 0.849741 0.968307 0.117094
H78   H     H_    0.527931 0.644542 0.531802 0.105104
H79   H     H_    0.513491 0.349741 0.968315 0.117083
H80   H     H_    0.945706 0.268334 0.989624 0.074636
H81   H     H_    0.945805 0.731340 0.482245 0.080315
H82   H     H_    0.445709 0.768333 0.989568 0.074665
H83   H     H_    0.796559 0.055521 0.928728 0.128014
H84   H     H_    0.445805 0.231341 0.482249 0.080319
H85   H     H_    0.976201 0.251286 0.206329 -0.079906
H86   H     H_    0.974224 0.748746 0.698981 -0.079015
H87   H     H_    0.476186 0.751295 0.206283 -0.079912
H88   H     H_    0.474226 0.248747 0.698985 -0.079004
H89   H     H_    0.942247 0.158258 0.926153 0.146090
H90   H     H_    0.941953 0.841231 0.416150 0.146698
H91   H     H_    0.442255 0.658254 0.926134 0.146098
H92   H     H_    0.441953 0.341231 0.416152 0.146693
H93   H     H_    0.972621 0.141153 0.142245 0.128967
H94   H     H_    0.247883 0.377076 0.355698 0.064891
H95   H     H_    0.970524 0.858852 0.632121 0.125696
H96   H     H_    0.472611 0.641159 0.142238 0.128958
H97   H     H_    0.470526 0.358853 0.632121 0.125691
H98   H     H_    0.174465 0.465601 0.394238 0.009510
H99   H     H_    0.173758 0.533801 0.894829 0.009845
H100  H     H_    0.674464 0.965600 0.394237 0.009510
H101  H     H_    0.673758 0.033801 0.894829 0.009845
H102  H     H_    0.157695 0.440178 0.182523 0.059494
H103  H     H_    0.157165 0.560148 0.683668 0.060209
H104  H     H_    0.657695 0.940178 0.182522 0.059494
O1    O     O_2   0.866180 0.413660 0.823810 -0.382909
O2    O     O_3   0.043035 0.767207 0.554009 -0.586935
O3    O     O_3   0.543351 0.732866 0.057072 -0.573329
O4    O     O_3   0.543035 0.267207 0.554008 -0.586954
O5    O     O_3   0.077880 0.530130 0.092320 -0.500101
O6    O     O_3   0.077880 0.469870 0.592320 -0.498695
O7    O     O_3   0.577880 0.030130 0.092320 -0.500101
O8    O     O_3   0.577880 0.969870 0.592320 -0.498695
O9    O     O_3   0.922050 0.469730 0.097400 -0.497838
O10   O     O_3   0.922050 0.530270 0.597400 -0.472944
O11   O     O_3   0.422050 0.969730 0.097400 -0.497838
O12   O     O_2   0.866180 0.586340 0.323810 -0.433168
O13   O     O_3   0.422050 0.030270 0.597400 -0.472944
O14   O     O_3   0.976760 0.360270 0.628090 -0.495628
O15   O     O_3   0.976760 0.639730 0.128090 -0.496409
O16   O     O_3   0.476760 0.860270 0.628090 -0.495622
O17   O     O_3   0.476760 0.139730 0.128090 -0.496409
O18   O     O_2   0.867925 0.308759 0.700546 -0.440213
O19   O     O_2   0.866141 0.689747 0.200042 -0.450502
O20   O     O_2   0.367924 0.808760 0.700542 -0.440214
O21   O     O_2   0.366142 0.189747 0.200043 -0.450502
O22   O     O_3   0.792287 0.485127 0.929293 -0.612610
O23   O     O_2   0.366180 0.913660 0.823810 -0.382906
O24   O     O_3   0.794462 0.511789 0.436188 -0.650665
O25   O     O_3   0.292286 0.985127 0.929293 -0.612614
O26   O     O_3   0.294462 0.011789 0.436187 -0.650664
O27   O     O_3   0.954464 0.232945 0.624260 -0.615796
O28   O     O_3   0.951091 0.766390 0.119990 -0.614218
O29   O     O_3   0.454466 0.732946 0.624271 -0.615792
O30   O     O_3   0.451093 0.266390 0.119989 -0.614219
O31   O     O_2   0.133470 0.412980 0.865660 -0.465384
O32   O     O_2   0.133470 0.587020 0.365660 -0.463194
O33   O     O_2   0.633470 0.912980 0.865660 -0.465383
O34   O     O_2   0.366180 0.086340 0.323810 -0.433168
O35   O     O_2   0.633470 0.087020 0.365660 -0.463193
O36   O     O_3   0.022720 0.360150 0.061220 -0.507087
O37   O     O_3   0.022720 0.639850 0.561220 -0.504165
O38   O     O_3   0.522720 0.860150 0.061220 -0.507091
O39   O     O_3   0.522720 0.139850 0.561220 -0.504164
O40   O     O_2   0.133680 0.309350 0.999325 -0.470912
O41   O     O_2   0.133697 0.690468 0.499122 -0.476705
O42   O     O_2   0.633680 0.809351 0.999325 -0.470905
O43   O     O_2   0.633697 0.190467 0.499122 -0.476701
O44   O     O_2   0.717671 0.609776 0.144748 -0.308309
O45   O     O_3   0.211959 0.480129 0.736448 -0.634203
O46   O     O_2   0.744854 0.605417 0.876083 -0.342524
O47   O     O_3   0.632855 0.555241 0.909896 -0.517737
O48   O     O_2   0.770313 0.390943 0.517687 -0.301550
O49   O     O_2   0.699486 0.422073 0.703656 -0.341077
O50   O     O_3   0.646331 0.424863 0.393839 -0.567768
O51   O     O_2   0.217670 0.109775 0.144749 -0.308309
O52   O     O_2   0.244854 0.105417 0.876085 -0.342525
O53   O     O_3   0.132855 0.055241 0.909895 -0.517734
O54   O     O_2   0.270317 0.890944 0.517689 -0.301589
O55   O     O_2   0.199487 0.922070 0.703655 -0.341030
O56   O     O_3   0.212285 0.520130 0.236710 -0.634691
O57   O     O_3   0.146334 0.924860 0.393838 -0.567746
O58   O     O_3   0.711959 0.980129 0.736448 -0.634203
O59   O     O_3   0.712286 0.020130 0.236710 -0.634690
O60   O     O_3   0.043349 0.232867 0.057072 -0.573327
P1    P     P_3+3 0.859590 0.433890 0.993820 1.032304
P2    P     P_3+3 0.083300 0.697492 0.611810 0.955392
P3    P     P_3+3 0.583535 0.802611 0.112785 0.968008
P4    P     P_3+3 0.583300 0.197492 0.611810 0.955387
P5    P     P_3+3 0.913050 0.695013 0.078597 0.993608
P6    P     P_3+3 0.914702 0.303664 0.578634 1.002857
P7    P     P_3+3 0.413051 0.195013 0.078597 0.993609
P8    P     P_3+3 0.414703 0.803663 0.578634 1.002852
P9    P     P_3+3 0.859590 0.566110 0.493820 1.013217
P10   P     P_3+3 0.359590 0.933890 0.993820 1.032302
P11   P     P_3+3 0.359590 0.066110 0.493820 1.013220
P12   P     P_3+3 0.140130 0.433190 0.695710 0.979028
P13   P     P_3+3 0.140130 0.566810 0.195710 0.979284
P14   P     P_3+3 0.640130 0.933190 0.695710 0.979030
P15   P     P_3+3 0.640130 0.066810 0.195710 0.979285
P16   P     P_3+3 0.083535 0.302611 0.112786 0.968002
S1    S     S_3+6 0.714793 0.570784 0.996626 -0.069886
S2    S     S_3+6 0.716957 0.435003 0.542752 -0.085346
S3    S     S_3+6 0.214793 0.070784 0.996626 -0.069885
S4    S     S_3+6 0.216959 0.935002 0.542752 -0.085336

loop_
_geom_bond_atom_site_label_1
_geom_bond_atom_site_label_2
_ccdc_geom_bond_type
O47   S1    S    
Ba4   O7    S    
O48   S2    D    
H7    O57   S    
C1    C71   S    
O37   P2    S    
C33   H60   S    
C59   H11   S    
O25   P10   S    
Ba2   O9    S    
C20   C38   A    
C51   H96   S    
C56   P16   S    
C21   H53   S    
O32   P13   D    
C42   O3    S    
C54   O45   S    
O40   P16   D    
C41   H86   S    
C21   C39   A    
C65   S4    S    
O35   P15   D    
C43   H88   S    
C49   H89   S    
O12   P9    D    
O36   P16   S    
C62   C66   S    
C65   H18   S    
C50   H95   S    
C3    C7    A    
C55   C60   S    
O28   P5    S    
O15   P5    S    
C70   H31   S    
C9    C14   A    
C52   H92   S    
Ba1   O36   S    
C4    C78   A    
O59   P15   S    
C28   C32   A    
C45   C80   A    
C17   C79   A    
C28   P9    S    
C32   H59   S    
Ba3   O7    S    
Ba1   Ba2   S    
C53   O56   S    
C66   H23   S    
C16   P15   S    
C3    C67   A    
C3    H56   S    
O16   P8    S    
Ba1   P1    S    
Ba4   O39   S    
Ba2   P13   S    
C52   H97   S    
O43   P4    D    
C48   H70   S    
C2    H55   S    
C10   H64   S    
O24   P9    S    
O2    P2    S    
C42   H87   S    
C27   P1    S    
O1    P1    D    
C63   C68   S    
C25   P8    S    
C43   O4    S    
C5    C9    A    
C20   C25   A    
C64   S3    S    
C18   C22   A    
C57   H3    S    
O44   S1    D    
C40   H85   S    
C23   H43   S    
C40   C49   S    
C71   H1    S    
Ba4   O11   S    
C47   H69   S    
Ba1   O10   S    
C14   C75   A    
C42   C51   S    
O3    P3    S    
O30   P7    S    
O53   S3    S    
C4    H57   S    
O54   S4    D    
C51   H91   S    
C62   O22   S    
O22   P1    S    
O6    P12   S    
O41   P2    D    
O58   P14   S    
C22   C44   A    
Ba1   P12   S    
C20   H52   S    
C61   H9    S    
C6    C39   S    
C80   H54   S    
Ba3   O33   S    
C16   C77   A    
Ba2   O32   S    
Ba3   O16   S    
O52   S3    D    
C32   C37   A    
O38   P3    S    
O34   P11   D    
C7    C11   A    
Ba1   O14   S    
H5    O50   S    
C53   H98   S    
C23   H38   S    
C55   H100  S    
C33   C38   A    
O45   P12   S    
Ba4   O35   S    
Ba3   O23   S    
C11   C16   A    
C50   H46   S    
Ba2   O15   S    
C18   H49   S    
C31   C36   A    
C7    C36   S    
C60   H72   S    
C68   H24   S    
C78   P3    S    
Ba4   O17   S    
C24   P5    S    
C60   H12   S    
C14   P13   S    
O33   P14   D    
C6    C10   A    
C15   P12   S    
C63   S2    S    
C24   C46   A    
C66   H19   S    
C21   C26   A    
O46   S1    D    
C35   C39   A    
C68   H20   S    
C53   C58   S    
C64   C69   S    
O4    P4    S    
C68   H29   S    
O27   P6    S    
O5    P13   S    
C69   H30   S    
C45   C75   A    
C49   H93   S    
C54   H99   S    
Ba2   O6    S    
O29   P8    S    
C8    C13   A    
C73   H28   S    
Ba1   O5    S    
C12   H37   S    
C64   H16   S    
C2    C6    A    
C8    C37   S    
C64   O25   S    
C2    C56   A    
C70   H22   S    
C72   O28   S    
C69   H21   S    
O9    P1    S    
C4    C8    A    
Ba3   P14   S    
C18   C36   A    
C57   H101  S    
C5    C38   S    
O51   S3    D    
C65   C70   S    
Ba1   O31   S    
C63   O24   S    
C19   C24   A    
O55   S4    D    
C74   H39   S    
C43   C52   S    
Ba3   O38   S    
C28   C46   A    
C53   H102  S    
C52   H48   S    
C62   S1    S    
C45   P2    S    
O7    P15   S    
C34   H79   S    
C41   C50   S    
C73   H34   S    
Ba4   P11   S    
C51   H47   S    
C27   C44   A    
C58   H10   S    
C59   H2    S    
C22   P6    S    
Ba3   O13   S    
Ba2   O12   S    
O26   P11   S    
C44   H67   S    
O57   S4    S    
C49   H45   S    
C60   H8    S    
O42   P3    D    
O18   P6    D    
C67   P4    S    
C11   H65   S    
O20   P8    D    
C29   C33   A    
C25   C47   A    
C72   H17   S    
Ba4   O8    S    
H4    O47   S    
C26   C48   A    
C58   H50   S    
C56   C76   A    
C77   H74   S    
C42   H82   S    
C54   H103  S    
C12   C72   S    
C10   C15   A    
C55   H104  S    
C65   O26   S    
C54   C59   S    
C29   P10   S    
C23   C73   S    
O17   P7    S    
C5    C80   A    
C58   H94   S    
C34   H44   S    
C30   C35   A    
C69   H25   S    
C1    H36   S    
C71   H32   S    
C63   H15   S    
C12   H77   S    
C29   C47   A    
Ba3   P10   S    
C34   C74   S    
C61   H83   S    
C30   C48   A    
Ba3   O8    S    
C19   C37   A    
C19   H51   S    
Ba2   O5    S    
C62   H14   S    
O8    P14   S    
C74   H35   S    
C57   O58   S    
C61   H13   S    
C23   H78   S    
O50   S2    S    
C74   O30   S    
O11   P10   S    
O56   P13   S    
C43   H84   S    
C73   O29   S    
C76   H73   S    
O14   P6    S    
C12   H42   S    
C41   O2    S    
Ba4   P15   S    
Ba4   O34   S    
C50   H90   S    
C35   H62   S    
C71   O27   S    
C30   P11   S    
Ba1   O6    S    
C27   C31   A    
C57   C61   S    
O19   P5    D    
C15   C76   A    
C1    H76   S    
C72   H33   S    
C13   C17   A    
C66   H27   S    
C40   O60   S    
C31   H58   S    
C75   H71   S    
C46   H68   S    
C17   P14   S    
Ba2   P9    S    
C79   H75   S    
O23   P10   D    
C78   C79   A    
O21   P7    D    
H6    O53   S    
C1    H41   S    
O13   P11   S    
C9    H63   S    
C26   P7    S    
O49   S2    D    
C55   O59   S    
O31   P12   D    
C40   H80   S    
C67   C77   A    
C70   H26   S    
C41   H81   S    
C59   H61   S    
O10   P9    S    
C34   H40   S    
Ba3   Ba4   S    
Ba2   O37   S    
O39   P4    S    
O60   P16   S    
C13   H66   S    
Ba1   O1    S    
