data_mof_unit_20175.cif
_audit_creation_date              2012-12-11T14:52:26-0500
_audit_creation_method            fapswitch 2.2
_symmetry_space_group_name_H-M    P1
_symmetry_Int_Tables_number       1
_space_group_crystal_system       triclinic
_cell_length_a                    8.317119
_cell_length_b                    15.211475
_cell_length_c                    26.837453
_cell_angle_alpha                 97.586136
_cell_angle_beta                  93.250028
_cell_angle_gamma                 80.178737
_cell_volume                      3314.28474939

loop_
_atom_site_label
_atom_site_type_symbol
_atom_type_description
_atom_site_fract_x
_atom_site_fract_y
_atom_site_fract_z
_atom_type_partial_charge
Ba1   Ba    Ba6+2 0.860900 0.457020 0.523210 1.693282
Ba2   Ba    Ba6+2 0.328940 0.542910 0.476780 1.661995
C1    C     C_3   0.765670 0.142569 0.662013 -0.346930
C2    C     C_3   0.723363 0.229970 0.638854 0.364022
C3    C     C_3   0.484219 0.689134 0.630218 0.293764
C4    C     C_3   0.479055 0.722180 0.686264 -0.379493
C5    C     C_3   0.920169 0.750885 0.347018 0.280399
C6    C     C_3   0.850753 0.797993 0.302013 -0.304668
C7    C     C_3   0.403438 0.765019 0.340306 0.300390
C8    C     C_3   0.305284 0.788186 0.292435 -0.265992
C9    C     C_R   0.996165 0.417437 0.175014 0.580011
C10   C     C_R   0.888711 0.574563 0.179680 0.584242
C11   C     C_2   0.729612 0.514081 0.269934 -0.052561
C12   C     C_3   0.269541 0.217740 0.652894 0.302572
C13   C     C_3   0.691532 0.509350 0.324447 -0.037630
C14   C     C_1   0.983910 0.481080 0.342174 0.056406
C15   C     C_2   0.020628 0.479658 0.294405 -0.082827
C16   C     C_2   0.886653 0.497496 0.255105 0.236444
C17   C     C_R   0.004984 0.495155 0.101086 -0.075455
C18   C     C_R   0.040209 0.416120 0.124555 -0.041992
C19   C     C_R   0.117615 0.337110 0.096976 -0.065928
C20   C     C_R   0.927360 0.574690 0.128869 -0.031154
C21   C     C_2   0.839740 0.520445 0.358344 -0.294361
C22   C     C_2   0.369051 0.500575 0.642521 -0.281144
C23   C     C_3   0.248208 0.203963 0.707011 -0.323822
C24   C     C_R   0.175714 0.414720 0.972089 0.019435
C25   C     C_R   0.041490 0.572715 0.974398 0.019846
C26   C     C_R   0.129371 0.493488 0.947902 0.050773
C27   C     C_R   0.268534 0.338906 0.944567 -0.098609
C28   C     C_R   0.311073 0.339800 0.895112 -0.061234
C29   C     C_R   0.263136 0.416142 0.870395 -0.032871
C30   C     C_R   0.171612 0.493089 0.896666 -0.077656
C31   C     C_R   0.122881 0.569767 0.871746 -0.033564
C32   C     C_R   0.165957 0.568611 0.821206 0.586755
C33   C     C_R   0.305787 0.417066 0.820009 0.588398
C34   C     C_3   0.220652 0.267277 0.417426 0.203965
C35   C     C_2   0.462366 0.479552 0.731756 -0.067470
C36   C     C_3   0.512101 0.492627 0.679800 -0.055633
C37   C     C_1   0.217093 0.523738 0.657481 0.037605
C38   C     C_2   0.174843 0.515590 0.703492 -0.089920
C39   C     C_2   0.302754 0.493548 0.743863 0.211180
C40   C     C_R   0.129145 0.414361 0.022711 0.019463
C41   C     C_R   0.046529 0.494556 0.049777 0.050527
C42   C     C_R   0.004836 0.574149 0.026103 0.018872
C43   C     C_R   0.161417 0.336137 0.047455 -0.096896
C44   C     C_R   0.890982 0.653061 0.105432 -0.061162
C45   C     C_3   0.249267 0.165164 0.403342 -0.259960
C46   C     C_R   0.992566 0.647966 0.947846 -0.099819
C47   C     C_R   0.032277 0.646355 0.897900 -0.061579
C48   C     C_R   0.928375 0.652945 0.055414 -0.099185
C49   C     C_R   0.753900 0.767305 0.481575 -0.293212
C50   C     C_R   0.844917 0.826997 0.466522 0.018581
C51   C     C_R   0.784977 0.919826 0.472397 -0.076779
C52   C     C_R   0.633975 0.954557 0.495790 0.014760
C53   C     C_R   0.550925 0.891351 0.513869 -0.122353
C54   C     C_R   0.610882 0.799172 0.506761 0.042963
C55   C     C_R   0.416953 0.087308 0.527552 -0.132463
C56   C     C_3   0.964444 0.732768 0.584075 0.237620
C57   C     C_R   0.358275 0.179071 0.537027 -0.066026
C58   C     C_R   0.589126 0.212766 0.496068 0.056521
C59   C     C_R   0.648159 0.119749 0.486271 -0.079540
C60   C     C_R   0.567506 0.054783 0.503804 0.017881
C61   C     C_R   0.450652 0.240989 0.524613 -0.299020
C62   C     C_3   0.935740 0.834716 0.599036 -0.270558
C63   C     C_3   0.636545 0.309605 0.362443 0.217175
C64   C     C_3   0.533359 0.274856 0.316882 -0.012818
H1    H     H_    0.830885 0.238597 0.618540 0.116712
H2    H     H_    0.339148 0.145941 0.373097 0.146692
H3    H     H_    0.301304 0.131873 0.436131 0.014860
H4    H     H_    0.845940 0.710446 0.574631 0.020852
H5    H     H_    0.042766 0.715228 0.550833 0.052734
H6    H     H_    0.876569 0.851301 0.635959 0.090011
H7    H     H_    0.851758 0.868120 0.571283 0.064747
H8    H     H_    0.577448 0.377532 0.378652 0.019179
H9    H     H_    0.872600 0.145396 0.688564 0.136169
H10   H     H_    0.600353 0.211500 0.296933 0.134221
H11   H     H_    0.421209 0.258187 0.330827 0.127019
H12   H     H_    0.619144 0.224523 0.611830 -0.062013
H13   H     H_    0.796205 0.085453 0.631917 0.094875
H14   H     H_    0.360024 0.677560 0.616730 0.023859
H15   H     H_    0.573207 0.625672 0.624335 0.032338
H16   H     H_    0.401024 0.789262 0.692751 0.128746
H17   H     H_    0.427296 0.675034 0.706496 0.080251
H18   H     H_    0.604302 0.727413 0.701697 0.125306
H19   H     H_    0.660318 0.131321 0.682593 0.107329
H20   H     H_    0.361433 0.213171 0.729557 0.139833
H21   H     H_    0.985704 0.682730 0.333458 0.052539
H22   H     H_    0.814908 0.743981 0.369192 -0.013869
H23   H     H_    0.754474 0.763146 0.282148 0.163748
H24   H     H_    0.795911 0.868638 0.314787 0.145631
H25   H     H_    0.947912 0.797418 0.275294 0.119275
H26   H     H_    0.321008 0.744866 0.366173 0.080373
H27   H     H_    0.385666 0.806477 0.265110 0.135212
H28   H     H_    0.205107 0.845549 0.301397 0.139044
H29   H     H_    0.284445 0.288962 0.652185 0.008952
H30   H     H_    0.251431 0.729180 0.274692 0.102084
H31   H     H_    0.146857 0.468298 0.283830 0.103147
H32   H     H_    0.145576 0.275029 0.113759 0.122396
H33   H     H_    0.557240 0.466653 0.760603 0.098288
H34   H     H_    0.382546 0.279683 0.876167 0.119343
H35   H     H_    0.313271 0.277547 0.960390 0.069250
H36   H     H_    0.218488 0.271926 0.029345 0.070303
H37   H     H_    0.629935 0.525001 0.242342 0.080788
H38   H     H_    0.832741 0.715577 0.125835 0.122554
H39   H     H_    0.920765 0.709499 0.964318 0.069793
H40   H     H_    0.381063 0.171695 0.639235 -0.008874
H41   H     H_    0.991383 0.706188 0.879744 0.121465
H42   H     H_    0.047514 0.530627 0.713237 0.120765
H43   H     H_    0.897620 0.716804 0.041141 0.070999
H44   H     H_    0.828385 0.560367 0.395046 0.065762
H45   H     H_    0.397680 0.506073 0.604237 0.087124
H46   H     H_    0.339290 0.043728 0.538154 0.114736
H47   H     H_    0.859478 0.962839 0.459259 0.081096
H48   H     H_    0.753953 0.099923 0.463519 0.082099
H49   H     H_    0.443129 0.911077 0.535567 0.107775
H50   H     H_    0.144288 0.253334 0.723177 0.137349
H51   H     H_    0.800421 0.695888 0.476852 0.056724
H52   H     H_    0.224319 0.134770 0.708657 0.109578
H53   H     H_    0.337646 0.288336 0.430835 0.044436
H54   H     H_    0.131580 0.285722 0.447832 0.075692
N1    N     N_R   0.924539 0.496584 0.202458 -0.428291
N2    N     N_R   0.256686 0.492707 0.795704 -0.424583
O1    O     O_2   0.905540 0.548000 0.618290 -0.472326
O2    O     O_3   0.652715 0.247258 0.396904 -0.676645
O3    O     O_3   0.132249 0.197208 0.623712 -0.592252
O4    O     O_2   0.284150 0.451970 0.381680 -0.460013
O5    O     O_3   0.052160 0.451990 0.441880 -0.470954
O6    O     O_3   0.501140 0.616030 0.412450 -0.473822
O7    O     O_3   0.164764 0.307954 0.374509 -0.622344
O8    O     O_3   0.615020 0.608480 0.525380 -0.476184
O9    O     O_3   0.085020 0.662210 0.437090 -0.486276
O10   O     O_2   0.185463 0.821454 0.462093 -0.463112
O11   O     O_3   0.030160 0.801155 0.374674 -0.613939
O12   O     O_3   0.137550 0.547930 0.558110 -0.449508
O13   O     O_3   0.574690 0.391440 0.474610 -0.458537
O14   O     O_2   0.341330 0.720570 0.525000 -0.458389
O15   O     O_3   0.533535 0.754738 0.605445 -0.643688
O16   O     O_2   0.347949 0.574633 0.324431 -0.504158
O17   O     O_3   0.536858 0.697317 0.326694 -0.651818
O18   O     O_2   0.019467 0.347702 0.194240 -0.578193
O19   O     O_2   0.386156 0.350194 0.797740 -0.605931
O20   O     O_2   0.823673 0.644119 0.203673 -0.613652
O21   O     O_2   0.124634 0.635904 0.800208 -0.600310
O22   O     O_3   0.688580 0.383890 0.587540 -0.504887
O23   O     O_2   0.851524 0.426306 0.672550 -0.482520
O24   O     O_3   0.037060 0.691963 0.625191 -0.647540
O25   O     O_3   0.679749 0.301592 0.676882 -0.599306
O26   O     O_2   0.848360 0.279400 0.474970 -0.491030
O27   O     O_3   0.104690 0.337720 0.562900 -0.448873
O28   O     O_2   0.019939 0.177315 0.530667 -0.484802
P1    P     P_3+3 0.070480 0.574800 0.610950 1.014691
P2    P     P_3+3 0.668430 0.292880 0.460530 0.970639
P3    P     P_3+3 0.153234 0.220680 0.562641 0.967538
P4    P     P_3+3 0.119230 0.425130 0.389040 1.034781
P5    P     P_3+3 0.039520 0.779052 0.437135 0.970597
P6    P     P_3+3 0.682208 0.403857 0.653573 0.970926
P7    P     P_3+3 0.525882 0.721693 0.540513 0.962377
P8    P     P_3+3 0.515305 0.595111 0.347033 0.949001
C65   C     C_2   0.092918 0.131638 0.386806 0.612911
H55   H     H_    0.995314 0.139461 0.412959 -0.011532
O29   O     O_2   0.074981 0.094725 0.344114 -0.522554
C66   C     C_2   0.093314 0.870994 0.602644 0.515580
H56   H     H_    0.188618 0.848588 0.629584 0.014712
O30   O     O_2   0.115035 0.926083 0.575567 -0.582933
C67   C     C_2   0.805218 0.312498 0.348680 0.481195
H57   H     H_    0.884446 0.329322 0.379723 -0.033994
O31   O     O_2   0.854907 0.292263 0.306016 -0.564149
N3    N     N_2   0.489001 0.341196 0.282218 -0.451145
H58   H     H_    0.587465 0.361780 0.268429 0.222510
C68   C     C_3   0.374796 0.316989 0.242297 -0.188003
H59   H     H_    0.340720 0.373426 0.219364 0.111788
H60   H     H_    0.262624 0.303239 0.258284 0.182501
H61   H     H_    0.431056 0.256440 0.217550 0.120584
C69   C     C_2   0.468232 0.845024 0.368169 0.506771
H62   H     H_    0.536982 0.837347 0.403179 -0.037817
O32   O     O_2   0.445310 0.918127 0.352461 -0.581579
C70   C     C_2   0.403283 0.334691 0.544297 0.628274
H63   H     H_    0.414533 0.352653 0.584285 -0.127380
O33   O     O_2   0.324178 0.387263 0.518296 -0.535272

loop_
_geom_bond_atom_site_label_1
_geom_bond_atom_site_label_2
_ccdc_geom_bond_type
C25   C46   A    
C53   C54   A    
C67   H57   S    
C4    H16   S    
C10   C20   A    
C1    H19   S    
C12   H29   S    
C17   C18   A    
C36   P6    S    
C9    O18   D    
C1    H13   S    
C23   H52   S    
O10   P5    D    
C57   P3    S    
O6    P8    S    
C55   C60   A    
C47   H41   S    
C45   C65   S    
C51   C52   A    
C50   P5    S    
C26   C30   A    
Ba2   O12   S    
C12   O3    S    
C68   H60   S    
C11   C16   D    
C34   C45   S    
O8    P7    S    
C35   C36   S    
C5    O11   S    
C3    C4    S    
C56   H5    S    
C55   C57   A    
C55   H46   S    
C68   H59   S    
C8    H28   S    
C31   C47   A    
O13   P2    S    
C28   H34   S    
C22   C37   D    
O5    P4    S    
Ba1   P2    S    
C49   C54   A    
C58   P2    S    
C63   O2    S    
C21   H44   S    
C34   H53   S    
O27   P3    S    
C69   H62   S    
C45   H3    S    
Ba2   O8    S    
O23   P6    D    
C25   C42   A    
C5    H21   S    
C10   N1    Am   
C65   H55   S    
O17   P8    S    
C51   H47   S    
C14   C15   D    
C70   O33   D    
O28   P3    D    
C22   C36   S    
C62   H7    S    
C65   O29   D    
Ba1   O27   S    
C11   H37   S    
C1    H9    S    
C7    C8    S    
C19   C43   A    
C38   H42   S    
Ba2   O5    S    
N3    C68   S    
O2    P2    S    
C67   O31   D    
C9    N1    Am   
C22   H45   S    
C7    H26   S    
C17   C41   A    
Ba2   O9    S    
C66   O30   D    
C33   N2    Am   
C56   C62   S    
C32   O21   D    
O1    P1    D    
C9    C18   A    
C59   H48   S    
C4    H18   S    
C49   C50   A    
O26   P2    D    
C5    C6    S    
C17   C20   A    
C13   P8    S    
C62   C66   S    
Ba1   O8    S    
C23   H50   S    
C37   C38   D    
C56   H4    S    
C52   C60   S    
C8    H27   S    
C2    O25   S    
C44   H38   S    
C48   H43   S    
Ba2   O14   S    
C63   H8    S    
C58   C59   A    
C40   C43   A    
C39   N2    S    
O22   P6    S    
C41   C42   A    
Ba1   O1    S    
C2    H12   S    
C27   C28   A    
C54   P7    S    
C3    H15   S    
O16   P8    D    
C46   H39   S    
C10   O20   D    
C8    H30   S    
C28   C29   A    
C64   H10   S    
C15   C16   S    
C27   H35   S    
C7    C69   S    
C6    H25   S    
C3    H14   S    
O25   P6    S    
C33   O19   D    
O14   P7    D    
Ba2   O4    S    
C38   C39   S    
C20   C44   A    
C63   C64   S    
C14   C21   D    
C11   C13   S    
C14   P4    S    
C58   C61   A    
C6    H24   S    
C40   C41   A    
Ba1   O12   S    
O4    P4    D    
C45   H2    S    
C35   H33   S    
C50   C51   A    
C24   C40   A    
C66   H56   S    
C42   C48   A    
C64   H11   S    
C52   C53   A    
N3    H58   S    
C4    H17   S    
O11   P5    S    
C57   C61   A    
C29   C30   A    
Ba1   O5    S    
C5    H22   S    
C2    H1    S    
C56   O24   S    
C3    O15   S    
O15   P7    S    
C44   C48   A    
C24   C26   A    
Ba2   O13   S    
C61   C70   S    
C64   N3    S    
C30   C31   A    
O3    P3    S    
O9    P5    S    
Ba1   O22   S    
C34   O7    S    
C19   H32   S    
C7    O17   S    
O7    P4    S    
C53   H49   S    
C46   C47   A    
O12   P1    S    
Ba1   Ba2   S    
C13   C21   S    
C23   H20   S    
C49   H51   S    
C31   C32   A    
Ba1   P1    S    
C29   C33   A    
C62   H6    S    
C12   C23   S    
C35   C39   D    
C59   C60   A    
C34   H54   S    
C37   P1    S    
C69   O32   D    
C43   H36   S    
C16   N1    S    
O24   P1    S    
C12   H40   S    
C63   C67   S    
C18   C19   A    
C24   C27   A    
C32   N2    Am   
C70   H63   S    
Ba2   P4    S    
C25   C26   A    
Ba1   O26   S    
C6    H23   S    
Ba1   O13   S    
C15   H31   S    
C1    C2    S    
C68   H61   S    
Ba2   O6    S    
