data_mof_unit_39193.cif
_audit_creation_date              2012-12-11T15:59:47-0500
_audit_creation_method            fapswitch 2.2
_symmetry_space_group_name_H-M    P1
_symmetry_Int_Tables_number       1
_space_group_crystal_system       triclinic
_cell_length_a                    10.766059
_cell_length_b                    10.67192
_cell_length_c                    17.031117
_cell_angle_alpha                 99.426706
_cell_angle_beta                  99.762382
_cell_angle_gamma                 60.707508
_cell_volume                      1674.41012105

loop_
_atom_site_label
_atom_site_type_symbol
_atom_type_description
_atom_site_fract_x
_atom_site_fract_y
_atom_site_fract_z
_atom_type_partial_charge
C1    C     C_R   0.356102 0.769837 0.398039 0.619126
C2    C     C_R   0.878351 0.320632 0.342808 0.026280
C3    C     C_R   0.357383 0.812221 0.156672 0.001984
C4    C     C_R   0.369147 0.346052 0.357594 0.553869
C5    C     C_R   0.450136 0.845772 0.215213 0.001044
C6    C     C_R   0.431569 0.859522 0.297034 0.052542
C7    C     C_R   0.284870 0.738282 0.257358 -0.156150
C8    C     C_R   0.286303 0.746136 0.177953 -0.151201
C9    C     C_R   0.559033 0.867311 0.194449 -0.089076
C10   C     C_R   0.636305 0.916896 0.252101 -0.149600
C11   C     C_R   0.607007 0.947027 0.331234 -0.093176
C12   C     C_R   0.932972 0.168941 0.217428 -0.005487
C13   C     C_R   0.501002 0.924704 0.354143 0.109253
C14   C     C_R   0.347200 0.803765 0.317587 0.034601
C15   C     C_R   0.299891 0.277491 0.799370 0.000011
C16   C     C_R   0.784560 0.373156 0.407274 0.594558
C17   C     C_R   0.427157 0.177370 0.763499 0.015480
C18   C     C_R   0.479522 0.227685 0.713727 0.000412
C19   C     C_R   0.249867 0.448421 0.706681 -0.134674
C20   C     C_R   0.211184 0.411793 0.769498 -0.141071
C21   C     C_R   0.507637 0.030736 0.779074 -0.100101
C22   C     C_R   0.647409 0.944162 0.758240 0.117058
C23   C     C_R   0.920331 0.183800 0.300790 0.032253
C24   C     C_R   0.709650 0.004709 0.721240 0.159064
C25   C     C_R   0.625300 0.145389 0.699516 -0.075250
C26   C     C_R   0.382638 0.355847 0.677230 0.000745
C27   C     C_1   0.847441 0.327917 0.705309 -0.039080
C28   C     C_R   0.358122 0.769266 0.627381 0.566928
C29   C     C_1   0.894408 0.293255 0.772078 -0.035522
C30   C     C_1   0.339197 0.809252 0.709510 -0.056204
C31   C     C_1   0.312959 0.836834 0.777571 -0.055370
C32   C     C_R   0.959759 0.280568 0.100347 0.568196
C33   C     C_R   0.319178 0.300254 0.120022 0.560702
C34   C     C_R   0.899455 0.422486 0.312559 -0.149980
C35   C     C_R   0.298788 0.885850 0.083601 0.546028
C36   C     C_R   0.944038 0.273175 0.854563 0.547506
C37   C     C_R   0.279225 0.252998 0.877030 0.528374
C38   C     C_R   0.278967 0.884356 0.857384 0.538510
C39   C     C_R   0.408449 0.376292 0.600054 0.540249
C40   C     C_R   0.778421 0.377799 0.628902 0.560748
C41   C     C_1   0.342468 0.336299 0.274209 -0.039444
C42   C     C_1   0.331366 0.326611 0.203349 -0.046500
C43   C     C_R   0.936464 0.283450 0.184089 -0.000897
C44   C     C_R   0.931387 0.402291 0.235185 -0.161575
C45   C     C_R   0.939762 0.041256 0.172891 -0.096384
C46   C     C_R   0.951227 0.929102 0.210435 -0.193835
C47   C     C_R   0.960691 0.937453 0.293111 -0.098077
C48   C     C_R   0.947947 0.062571 0.338925 0.246046
Cl1   Cl    Cl    0.991232 0.052900 0.443369 -0.594864
Cr1   Cr    Cr6+3 0.608100 0.610860 0.522250 1.029457
Cr2   Cr    Cr6+3 0.288890 0.599990 0.488420 1.043154
Cr3   Cr    Cr6+3 0.603040 0.289190 0.489390 1.029833
Cr4   Cr    Cr6+3 0.053960 0.052250 0.967380 1.024622
Cr5   Cr    Cr6+3 0.059890 0.373160 0.992710 1.007375
Cr6   Cr    Cr6+3 0.373370 0.061690 0.991710 0.996862
H1    H     H_    0.880056 0.524508 0.346413 0.148279
H2    H     H_    0.957814 0.832316 0.175101 0.107612
H3    H     H_    0.979194 0.845385 0.321620 0.142240
H4    H     H_    0.231404 0.682316 0.271328 0.139051
H5    H     H_    0.589415 0.841126 0.134201 0.145931
H6    H     H_    0.223276 0.709586 0.133431 0.138414
H7    H     H_    0.549091 0.937884 0.474497 0.234417
H8    H     H_    0.412350 0.090105 0.438845 0.267160
H9    H     H_    0.668460 0.743722 0.748222 0.250603
H10   H     H_    0.731165 0.795643 0.838307 0.233027
H11   H     H_    0.855510 0.904960 0.641313 0.229494
H12   H     H_    0.716052 0.936078 0.234431 0.130365
H13   H     H_    0.910231 0.826762 0.727413 0.266692
H14   H     H_    0.666223 0.989126 0.374926 0.153305
H15   H     H_    0.175809 0.548864 0.681075 0.147277
H16   H     H_    0.463763 0.982603 0.808432 0.150625
H17   H     H_    0.112573 0.488618 0.794866 0.149775
H18   H     H_    0.674871 0.189367 0.671163 0.162661
H19   H     H_    0.933857 0.022047 0.109158 0.183376
H20   H     H_    0.943371 0.485861 0.214057 0.139231
N1    N     N_3   0.457838 0.977790 0.433256 -0.584833
N2    N     N_3   0.726048 0.796937 0.776564 -0.637502
N3    N     N_3   0.856147 0.926350 0.703483 -0.596631
O1    O     O_R   0.749810 0.499790 0.438040 -0.528469
O2    O     O_R   0.411730 0.181020 0.091530 -0.496846
O3    O     O_R   0.365010 0.944360 0.063320 -0.509075
O4    O     O_R   0.477660 0.726260 0.439290 -0.479964
O5    O     O_R   0.159380 0.906670 0.876210 -0.493116
O6    O     O_R   0.930820 0.177420 0.886730 -0.461810
O7    O     O_R   0.910360 0.395420 0.895720 -0.506757
O8    O     O_R   0.186010 0.361730 0.919870 -0.504285
O9    O     O_R   0.400000 0.173010 0.914630 -0.503307
O10   O     O_R   0.354140 0.936940 0.899340 -0.539630
O11   O     O_3   0.162410 0.162370 0.983930 -0.303539
O12   O     O_R   0.298970 0.468800 0.557390 -0.494119
O13   O     O_R   0.260150 0.743000 0.412270 -0.492326
O14   O     O_R   0.297740 0.466550 0.394720 -0.504996
O15   O     O_R   0.488080 0.253500 0.386430 -0.526384
O16   O     O_R   0.722670 0.303800 0.421940 -0.455962
O17   O     O_R   0.751130 0.502220 0.613520 -0.504937
O18   O     O_R   0.478890 0.728510 0.601960 -0.501873
O19   O     O_R   0.261470 0.745430 0.587750 -0.488035
O20   O     O_R   0.489400 0.255930 0.561910 -0.532243
O21   O     O_R   0.723890 0.306050 0.584610 -0.506991
O22   O     O_3   0.500010 0.500010 0.500020 -0.287253
O23   O     O_R   0.171100 0.914680 0.053100 -0.535507
O24   O     O_R   0.941680 0.184840 0.050710 -0.506326
O25   O     O_R   0.922080 0.403420 0.072610 -0.509277
O26   O     O_R   0.196880 0.369150 0.083850 -0.516897

loop_
_geom_bond_atom_site_label_1
_geom_bond_atom_site_label_2
_ccdc_geom_bond_type
C28   O19   A    
Cr2   O19   S    
C34   H1    S    
C38   O5    A    
C27   C29   T    
C33   O26   A    
H9    N2    S    
C19   C20   A    
C18   C26   A    
Cr1   O1    S    
C40   O21   A    
C35   O3    A    
C7    C8    A    
C10   H12   S    
C29   C36   S    
C21   H16   S    
Cr4   O6    S    
C33   C42   S    
Cr5   O26   S    
C12   C43   A    
Cr2   O12   S    
C30   C31   T    
Cr1   O17   S    
H8    N1    S    
C41   C42   T    
Cr6   O10   S    
C19   C26   A    
C15   C37   S    
Cr2   O13   S    
C7    C14   A    
Cr4   O23   S    
Cr3   O16   S    
Cr6   O3    S    
C2    C16   S    
C9    C10   A    
Cr4   O24   S    
C39   O12   A    
C25   H18   S    
C8    H6    S    
C2    C34   A    
C1    O13   A    
C21   C22   A    
H7    N1    S    
C18   C25   A    
C7    H4    S    
H13   N3    S    
C15   C20   A    
H11   N3    S    
H10   N2    S    
Cr5   O25   S    
C34   C44   A    
C24   C25   A    
Cr5   O11   S    
C3    C8    A    
Cr5   O8    S    
C39   O20   A    
C3    C5    A    
C1    O4    A    
C45   C46   A    
Cr3   O22   S    
C17   C21   A    
C38   O10   A    
C45   H19   S    
C44   H20   S    
C43   C44   A    
C5    C9    A    
Cr2   O14   S    
C6    C14   A    
C37   O8    A    
C47   C48   A    
C12   C23   A    
C13   N1    S    
C3    C35   S    
C27   C40   S    
C17   C18   A    
C32   O25   A    
Cr3   O15   S    
C24   N3    S    
C48   Cl1   S    
C46   H2    S    
Cr4   O11   S    
C32   O24   A    
C40   O17   A    
Cr1   O4    S    
Cr2   O22   S    
C15   C17   A    
C46   C47   A    
C23   C48   A    
C16   O16   A    
C37   O9    A    
C22   N2    S    
C12   C45   A    
C35   O23   A    
Cr5   O7    S    
C11   H14   S    
C33   O2    A    
C36   O7    A    
Cr3   O21   S    
Cr1   O22   S    
C31   C38   S    
C28   O18   A    
Cr4   O5    S    
C9    H5    S    
C16   O1    A    
C28   C30   S    
Cr6   O11   S    
C6    C13   A    
Cr6   O2    S    
C11   C13   A    
Cr1   O18   S    
C5    C6    A    
C36   O6    A    
Cr3   O20   S    
C32   C43   S    
C22   C24   A    
Cr6   O9    S    
C26   C39   S    
C10   C11   A    
C4    O15   A    
C4    C41   S    
C2    C23   A    
C20   H17   S    
C19   H15   S    
C1    C14   S    
C4    O14   A    
C47   H3    S    
