data_mof_unit_35679.cif
_audit_creation_date              2012-12-11T14:50:42-0500
_audit_creation_method            fapswitch 2.2
_symmetry_space_group_name_H-M    P1
_symmetry_Int_Tables_number       1
_space_group_crystal_system       triclinic
_cell_length_a                    20.624187
_cell_length_b                    7.086869
_cell_length_c                    20.441889
_cell_angle_alpha                 90.001203
_cell_angle_beta                  101.725276
_cell_angle_gamma                 90.001702
_cell_volume                      2925.4593614

loop_
_atom_site_label
_atom_site_type_symbol
_atom_type_description
_atom_site_fract_x
_atom_site_fract_y
_atom_site_fract_z
_atom_type_partial_charge
O1    O     O_R   0.423690 0.494470 0.435930 -0.519762
O2    O     O_R   0.576310 0.994470 0.564070 -0.519790
O3    O     O_R   0.556070 0.822310 0.435760 -0.533910
O4    O     O_R   0.443930 0.322310 0.564240 -0.533913
C1    C     C_R   0.575650 0.655390 0.420552 0.721636
C2    C     C_R   0.424350 0.155386 0.579448 0.721707
O5    O     O_R   0.422940 0.824080 0.428040 -0.553227
O6    O     O_R   0.577060 0.324080 0.571960 -0.553237
O7    O     O_R   0.442240 0.995960 0.556300 -0.536857
O8    O     O_R   0.557760 0.495960 0.443700 -0.536863
C3    C     C_R   0.398751 0.654712 0.410239 0.753594
C4    C     C_R   0.601249 0.154719 0.589762 0.753589
O9    O     O_3   0.506490 0.661310 0.542090 -0.371199
O10   O     O_3   0.493510 0.161310 0.457910 -0.371186
V1    V     V_3+5 0.498800 0.935560 0.492190 1.465506
V2    V     V_3+5 0.501200 0.435560 0.507810 1.465491
C5    C     C_R   0.836587 0.092259 0.859478 -0.071061
C6    C     C_R   0.163406 0.592318 0.140529 -0.071178
C7    C     C_R   0.663388 0.138962 0.641619 -0.157276
C8    C     C_R   0.336612 0.638931 0.358385 -0.157311
C9    C     C_R   0.777589 0.023418 0.674309 -0.106525
C10   C     C_R   0.222456 0.523025 0.325670 -0.106525
C11   C     C_R   0.721169 0.067174 0.624186 0.340810
C12   C     C_R   0.278861 0.566863 0.375802 0.340836
C13   C     C_R   0.663980 0.183619 0.708511 -0.271868
C14   C     C_R   0.335988 0.683873 0.291511 -0.271947
C15   C     C_R   0.720478 0.148453 0.759614 0.115837
C16   C     C_R   0.279493 0.648690 0.240406 0.115753
C17   C     C_R   0.778061 0.067365 0.742396 0.046696
C18   C     C_R   0.221956 0.567224 0.257597 0.046720
C19   C     C_R   0.834381 0.032232 0.793854 -0.158586
C20   C     C_R   0.165651 0.532001 0.206128 -0.158606
C21   C     C_R   0.780391 0.174388 0.875653 -0.261546
C22   C     C_R   0.219549 0.674872 0.124388 -0.261460
C23   C     C_R   0.721499 0.193344 0.827771 0.046079
C24   C     C_R   0.278433 0.693939 0.172272 0.046149
H1    H     H_    0.878100 0.964092 0.783829 0.170412
H2    H     H_    0.121971 0.463577 0.216130 0.170443
H3    H     H_    0.781668 0.216126 0.926973 0.098113
H4    H     H_    0.218243 0.716873 0.073089 0.098205
H5    H     H_    0.619743 0.246376 0.719710 0.172974
H6    H     H_    0.380197 0.746851 0.280327 0.172972
C25   C     C_3   0.276453 0.201739 0.829672 0.296601
C26   C     C_3   0.723553 0.701617 0.170325 0.296471
C27   C     C_3   0.225481 0.905241 0.772781 -0.379896
C28   C     C_3   0.774579 0.405281 0.227282 -0.379832
C29   C     C_3   0.278517 0.907600 0.726542 0.022583
C30   C     C_3   0.721533 0.407647 0.273510 0.022526
H7    H     H_    0.178368 0.836804 0.748558 0.191339
H8    H     H_    0.821703 0.336961 0.251530 0.191383
H9    H     H_    0.242298 0.818023 0.818311 0.144361
H10   H     H_    0.757786 0.317954 0.181773 0.144335
C31   C     C_1   0.379348 0.146326 0.625695 -0.160096
C32   C     C_1   0.620657 0.646351 0.374308 -0.159998
C33   C     C_3   0.209683 0.107777 0.794220 0.042588
C34   C     C_3   0.790340 0.607803 0.205798 0.042564
C35   C     C_3   0.323011 0.228136 0.778124 0.327222
C36   C     C_3   0.677001 0.728072 0.221873 0.327338
C37   C     C_3   0.294605 0.120676 0.711344 0.080731
C38   C     C_3   0.705415 0.620724 0.288672 0.080707
C39   C     C_3   0.228365 0.220885 0.680126 -0.513018
C40   C     C_3   0.771643 0.721042 0.319872 -0.513002
C41   C     C_3   0.180754 0.226708 0.730388 -0.207969
C42   C     C_3   0.819248 0.726877 0.269604 -0.207955
C43   C     C_1   0.341407 0.136548 0.664091 0.033858
C44   C     C_1   0.658606 0.636595 0.335918 0.033955
C45   C     C_1   0.161565 0.098724 0.839812 -0.030642
C46   C     C_1   0.838455 0.598736 0.160205 -0.030700
C47   C     C_1   0.122281 0.089817 0.876677 -0.168870
C48   C     C_1   0.877732 0.589819 0.123334 -0.168882
H11   H     H_    0.177372 0.376211 0.746420 0.160640
H12   H     H_    0.822594 0.876363 0.253540 0.160568
H13   H     H_    0.238385 0.367727 0.665642 0.195066
H14   H     H_    0.761604 0.867885 0.334341 0.195014
H15   H     H_    0.265927 0.346631 0.846521 -0.015380
H16   H     H_    0.734041 0.846490 0.153433 -0.015366
H17   H     H_    0.322572 0.381217 0.764564 -0.015223
H18   H     H_    0.677435 0.881172 0.235410 -0.015268
H19   H     H_    0.204766 0.149293 0.633050 0.189406
H20   H     H_    0.795258 0.649517 0.366953 0.189417
O11   O     O_R   0.942280 0.741210 0.056360 -0.533543
O12   O     O_R   0.057720 0.241210 0.943640 -0.533545
O13   O     O_R   0.077070 0.409690 0.071960 -0.541160
O14   O     O_R   0.922930 0.909690 0.928040 -0.541142
C49   C     C_R   0.101627 0.578877 0.088934 0.704781
C50   C     C_R   0.898368 0.078867 0.911071 0.704759
O15   O     O_R   0.943940 0.411580 0.064250 -0.537584
O16   O     O_R   0.056060 0.911580 0.935750 -0.537584
O17   O     O_R   0.923670 0.239840 0.935920 -0.532260
O18   O     O_R   0.076330 0.739840 0.064080 -0.532269
C51   C     C_R   0.923953 0.580185 0.078638 0.722934
C52   C     C_R   0.076051 0.080185 0.921365 0.722910
O19   O     O_3   0.993540 0.572620 0.957940 -0.369000
O20   O     O_3   0.006460 0.072620 0.042060 -0.369003
V3    V     V_3+5 0.001200 0.298330 0.007800 1.447970
V4    V     V_3+5 0.998800 0.798330 0.992200 1.447981
C53   C     C_2   0.340889 0.805578 0.761529 0.397367
H21   H     H_    0.344360 0.741996 0.810402 0.055425
O21   O     O_2   0.388714 0.793498 0.735016 -0.542326
C54   C     C_2   0.659177 0.305529 0.238529 0.397344
H22   H     H_    0.655729 0.241826 0.189677 0.055414
O22   O     O_2   0.611339 0.293491 0.265026 -0.542314
C55   C     C_2   0.254062 0.800017 0.661468 0.264812
H23   H     H_    0.287947 0.775463 0.628125 0.095196
O23   O     O_2   0.197613 0.739627 0.645202 -0.546013
C56   C     C_2   0.745990 0.300167 0.338603 0.264860
H24   H     H_    0.712098 0.275602 0.371938 0.095148
O24   O     O_2   0.802449 0.239877 0.354893 -0.545931
C57   C     C_2   0.111895 0.165025 0.696502 0.497644
H25   H     H_    0.103774 0.026325 0.673875 0.096987
O25   O     O_2   0.064840 0.271280 0.693835 -0.497935
C58   C     C_2   0.888122 0.665365 0.303496 0.497651
H26   H     H_    0.896277 0.526710 0.326149 0.096977
O26   O     O_2   0.935152 0.771709 0.306139 -0.497998
C59   C     C_2   0.834264 0.929465 0.652926 0.372949
H27   H     H_    0.824723 0.819346 0.615483 0.081620
O27   O     O_2   0.891090 0.983523 0.672521 -0.512935
C60   C     C_2   0.165829 0.428742 0.347031 0.372928
H28   H     H_    0.175427 0.318552 0.384443 0.081622
O28   O     O_2   0.108976 0.482583 0.327451 -0.512991
C61   C     C_2   0.662304 0.253041 0.852782 0.303662
H29   H     H_    0.667380 0.352594 0.893842 0.037688
O29   O     O_2   0.608537 0.180157 0.831825 -0.548312
C62   C     C_2   0.337582 0.754173 0.147290 0.303689
H30   H     H_    0.332455 0.854152 0.106355 0.037637
O30   O     O_2   0.391371 0.681296 0.168129 -0.548407
O31   O     O_3   0.721558 0.039467 0.557016 -0.587478
C63   C     C_3   0.760534 0.180834 0.534310 0.046983
H31   H     H_    0.772710 0.130348 0.486799 0.173724
H32   H     H_    0.808837 0.204404 0.569048 0.158920
C64   C     C_3   0.723287 0.368904 0.520756 -0.339534
H33   H     H_    0.680016 0.350266 0.479072 0.199700
H34   H     H_    0.705333 0.416113 0.565671 0.198983
C65   C     C_3   0.768490 0.522857 0.503220 -0.799562
H35   H     H_    0.809292 0.550879 0.546591 0.239919
H36   H     H_    0.739912 0.654933 0.489823 0.240654
H37   H     H_    0.790560 0.477958 0.460749 0.247808
O32   O     O_3   0.278481 0.539006 0.442966 -0.587457
C66   C     C_3   0.239467 0.680216 0.465703 0.047045
H38   H     H_    0.227329 0.629630 0.513219 0.173630
H39   H     H_    0.191146 0.703652 0.430982 0.158924
C67   C     C_3   0.276647 0.868406 0.479266 -0.339507
H40   H     H_    0.319931 0.849881 0.520944 0.199649
H41   H     H_    0.294579 0.915725 0.434353 0.198944
C68   C     C_3   0.231392 0.022197 0.496814 -0.799587
H42   H     H_    0.190587 0.050167 0.453443 0.239970
H43   H     H_    0.259928 0.154337 0.510234 0.240569
H44   H     H_    0.209325 0.977180 0.539275 0.247920
O33   O     O_3   0.388408 0.164906 0.805366 -0.534788
C69   C     C_3   0.430085 0.314318 0.834264 0.135350
H45   H     H_    0.467017 0.255099 0.876488 0.154975
H46   H     H_    0.403099 0.427241 0.855673 0.068815
C70   C     C_3   0.466881 0.397241 0.783016 -0.296021
H47   H     H_    0.495525 0.284183 0.764158 0.231865
H48   H     H_    0.430827 0.453095 0.739569 0.208362
C71   C     C_3   0.513646 0.555412 0.813699 -0.712040
H49   H     H_    0.485438 0.673082 0.830449 0.253551
H50   H     H_    0.540915 0.609889 0.776070 0.238063
H51   H     H_    0.549912 0.502601 0.857531 0.222463
O34   O     O_3   0.611603 0.664814 0.194646 -0.534783
C72   C     C_3   0.569958 0.814169 0.165651 0.135241
H52   H     H_    0.533034 0.754833 0.123442 0.154965
H53   H     H_    0.596976 0.926946 0.144204 0.068849
C73   C     C_3   0.533148 0.897399 0.216835 -0.296045
H54   H     H_    0.504437 0.784514 0.235697 0.231926
H55   H     H_    0.569194 0.953232 0.260293 0.208402
C74   C     C_3   0.486475 0.055671 0.186073 -0.711808
H56   H     H_    0.514762 0.173206 0.169349 0.253410
H57   H     H_    0.459171 0.110323 0.223647 0.238101
H58   H     H_    0.450236 0.002897 0.142210 0.222453
O35   O     O_3   0.308778 0.086803 0.883749 -0.552577
C75   C     C_3   0.298724 0.151323 0.946563 0.104276
H59   H     H_    0.296256 0.025028 0.978173 0.128565
H60   H     H_    0.251295 0.228791 0.943914 0.097614
C76   C     C_3   0.356879 0.274386 0.980344 -0.346274
H61   H     H_    0.404099 0.197363 0.981747 0.206656
H62   H     H_    0.357552 0.406442 0.951305 0.178466
C77   C     C_3   0.351427 0.326143 0.051452 -0.785329
H63   H     H_    0.305863 0.410156 0.050968 0.229585
H64   H     H_    0.395158 0.411387 0.074839 0.267132
H65   H     H_    0.350081 0.197100 0.081912 0.220214
O36   O     O_3   0.691240 0.586534 0.116282 -0.552593
C78   C     C_3   0.701360 0.650746 0.053455 0.104196
H66   H     H_    0.704084 0.524278 0.022000 0.128462
H67   H     H_    0.748687 0.728754 0.056116 0.097633
C79   C     C_3   0.643077 0.772956 0.019429 -0.345977
H68   H     H_    0.595960 0.695325 0.017934 0.206632
H69   H     H_    0.642098 0.905079 0.048357 0.178590
C80   C     C_3   0.648670 0.824578 0.948350 -0.785735
H70   H     H_    0.694087 0.909336 0.948928 0.229668
H71   H     H_    0.604815 0.909022 0.924754 0.267234
H72   H     H_    0.650395 0.695480 0.918020 0.220076

loop_
_geom_bond_atom_site_label_1
_geom_bond_atom_site_label_2
_ccdc_geom_bond_type
O35   C75   S    
O16   V4    S    
O4    V2    S    
O15   C51   A    
C15   C17   A    
C48   C51   S    
O1    C3    A    
C9    C59   S    
C64   C65   S    
O2    C4    A    
C63   H31   S    
C72   C73   S    
C65   H37   S    
C58   O26   D    
C72   H52   S    
C73   H55   S    
C76   H62   S    
O5    C3    A    
C21   H3    S    
C56   O24   D    
C22   H4    S    
C11   O31   S    
C73   H54   S    
C24   C62   S    
O14   C50   A    
C57   O25   D    
C68   H42   S    
C66   C67   S    
C42   C58   S    
C56   H24   S    
C27   H9    S    
C36   C38   S    
C59   H27   S    
C28   H10   S    
C26   H16   S    
O12   C52   A    
C38   C40   S    
O14   V4    S    
C39   C41   S    
C8    C12   A    
C60   H28   S    
C40   C42   S    
C72   H53   S    
O36   C78   S    
C30   C56   S    
O16   C52   A    
C26   C36   S    
C59   O27   D    
C69   C70   S    
C33   C41   S    
C34   C42   S    
C20   H2    S    
C70   H48   S    
C47   C52   S    
C31   C43   T    
C22   C24   A    
C75   C76   S    
C53   H21   S    
O3    C1    A    
O5    V1    S    
C38   C44   S    
O6    V2    S    
C67   C68   S    
O20   V3    S    
C36   H18   S    
C5    C21   A    
C2    O7    A    
C58   H26   S    
C68   H43   S    
C75   H60   S    
C30   C38   S    
C76   C77   S    
C27   C29   S    
C25   H15   S    
C30   C54   S    
C49   O18   A    
C28   C30   S    
C3    C8    S    
C37   C39   S    
C6    C49   S    
C29   C55   S    
C5    C50   S    
C77   H63   S    
C1    C32   S    
C23   C61   S    
C74   H57   S    
C53   O21   D    
C78   C79   S    
C13   H5    S    
C74   H56   S    
O11   V4    S    
C25   O35   S    
C65   H36   S    
C12   O32   S    
C34   C46   S    
C9    C17   A    
C19   H1    S    
C35   O33   S    
C45   C47   T    
O17   V3    S    
C80   H72   S    
C7    C11   A    
C78   H66   S    
C35   H17   S    
C78   H67   S    
C26   C34   S    
C77   H64   S    
C76   H61   S    
O10   V1    S    
C27   H7    S    
O6    C4    A    
O13   V3    S    
C54   O22   D    
C55   O23   D    
O1    V2    S    
C70   C71   S    
O20   V4    S    
O2    V1    S    
C6    C22   A    
C16   C24   A    
C61   H29   S    
C74   H58   S    
O4    C2    A    
O13   C49   A    
C41   H11   S    
C40   H20   S    
O19   V4    S    
C9    C11   A    
C5    C19   A    
C10   C12   A    
C6    C20   A    
C2    C31   S    
C79   H69   S    
C64   H33   S    
C63   C64   S    
C26   O36   S    
C68   H44   S    
O3    V1    S    
C75   H59   S    
C14   H6    S    
C62   O30   D    
C25   C33   S    
C10   C60   S    
O15   V3    S    
C71   H49   S    
O12   V3    S    
C10   C18   A    
C39   H13   S    
C67   H40   S    
C71   H51   S    
C64   H34   S    
C50   O17   A    
C63   H32   S    
C33   C45   S    
C66   H38   S    
O18   V4    S    
C65   H35   S    
C32   C44   T    
C13   C15   A    
C28   H8    S    
C14   C16   A    
C29   C53   S    
C15   C23   A    
O34   C72   S    
C79   C80   S    
C71   H50   S    
O7    V1    S    
C1    O8    A    
C17   C19   A    
O8    V2    S    
C57   H25   S    
C37   C43   S    
C18   C20   A    
C66   H39   S    
C8    C14   A    
C39   H19   S    
C4    C7    S    
C16   C18   A    
C54   H22   S    
C21   C23   A    
C69   H46   S    
C73   C74   S    
C80   H70   S    
C7    C13   A    
C60   O28   D    
C61   O29   D    
C77   H65   S    
C35   C37   S    
O32   C66   S    
C25   C35   S    
C29   C37   S    
O11   C51   A    
C62   H30   S    
C27   C33   S    
O19   V3    S    
O9    V2    S    
C28   C34   S    
C55   H23   S    
C46   C48   T    
C69   H45   S    
C40   H14   S    
C36   O34   S    
C80   H71   S    
C79   H68   S    
O33   C69   S    
C67   H41   S    
O31   C63   S    
C42   H12   S    
C41   C57   S    
C70   H47   S    
