data_mof_unit_61804.cif
_audit_creation_date              2012-12-10T19:18:42-0500
_audit_creation_method            fapswitch 2.2
_symmetry_space_group_name_H-M    P1
_symmetry_Int_Tables_number       1
_space_group_crystal_system       triclinic
_cell_length_a                    24.443469
_cell_length_b                    24.452674
_cell_length_c                    36.296256
_cell_angle_alpha                 89.970139
_cell_angle_beta                  90.098689
_cell_angle_gamma                 90.014755
_cell_volume                      21694.5332314

loop_
_atom_site_label
_atom_site_type_symbol
_atom_type_description
_atom_site_fract_x
_atom_site_fract_y
_atom_site_fract_z
_atom_type_partial_charge
C1    C     C_R   0.728629 0.228275 0.248312 0.064263
C2    C     C_R   0.272745 0.230790 0.250075 0.078590
C3    C     C_R   0.676223 0.759013 0.238576 -0.169753
C4    C     C_R   0.822234 0.260565 0.736255 -0.168410
C5    C     C_R   0.206431 0.710878 0.216692 -0.182882
C6    C     C_R   0.675381 0.758135 0.760292 -0.170444
C7    C     C_R   0.292247 0.209683 0.216796 -0.169320
C8    C     C_R   0.230265 0.315158 0.223870 -0.167465
C9    C     C_R   0.781953 0.698726 0.782081 -0.164993
C10   C     C_R   0.312252 0.771400 0.223658 -0.165631
C11   C     C_R   0.701153 0.215594 0.783453 -0.166011
C12   C     C_R   0.782186 0.699778 0.218272 -0.166720
C13   C     C_R   0.770870 0.271889 0.751169 0.067516
C14   C     C_R   0.227475 0.311025 0.777432 -0.166352
C15   C     C_R   0.689518 0.225933 0.220257 -0.169383
C16   C     C_R   0.273555 0.810856 0.720862 -0.168717
C17   C     C_R   0.686508 0.150183 0.278662 -0.050730
C18   C     C_R   0.350814 0.812808 0.778476 -0.055133
C19   C     C_R   0.842303 0.677726 0.282743 -0.062136
C20   C     C_R   0.145611 0.310907 0.722998 -0.047440
C21   C     C_R   0.310872 0.854902 0.276965 -0.065472
C22   C     C_R   0.674519 0.162320 0.717050 -0.059711
C23   C     C_R   0.147255 0.311582 0.277439 -0.058988
C24   C     C_R   0.227696 0.730413 0.250049 0.080317
C25   C     C_R   0.841459 0.677738 0.717239 -0.062276
C26   C     C_R   0.702125 0.865823 0.739797 -0.060846
C27   C     C_R   0.331344 0.167701 0.284006 -0.041118
C28   C     C_R   0.800061 0.364536 0.765921 -0.068423
C29   C     C_R   0.169428 0.667349 0.283612 -0.027284
C30   C     C_R   0.331894 0.169229 0.716892 -0.033990
C31   C     C_R   0.701208 0.865291 0.263006 -0.059768
C32   C     C_R   0.203638 0.632969 0.753077 -0.059771
C33   C     C_R   0.866768 0.296623 0.253818 -0.060037
C34   C     C_R   0.133072 0.703717 0.745298 -0.055037
C35   C     C_R   0.268409 0.226364 0.751015 0.082760
C36   C     C_R   0.796384 0.367041 0.244129 -0.056354
C37   C     C_R   0.331900 0.167735 0.784495 -0.043693
C38   C     C_R   0.635212 0.798977 0.237953 -0.064225
C39   C     C_R   0.863226 0.300516 0.735431 -0.063522
C40   C     C_R   0.168177 0.668383 0.216015 -0.044161
C41   C     C_R   0.634329 0.798111 0.760550 -0.062685
C42   C     C_R   0.331526 0.168349 0.216397 -0.031132
C43   C     C_R   0.189559 0.355440 0.223375 -0.063698
C44   C     C_R   0.821993 0.657824 0.782497 -0.064435
C45   C     C_R   0.352389 0.812037 0.222368 -0.046803
C46   C     C_R   0.728991 0.771467 0.250732 0.070446
C47   C     C_R   0.660356 0.175419 0.783646 -0.060059
C48   C     C_R   0.822242 0.658889 0.217404 -0.061305
C49   C     C_R   0.187814 0.352303 0.777978 -0.053945
C50   C     C_R   0.648328 0.186042 0.220554 -0.060785
C51   C     C_R   0.313341 0.852136 0.721200 -0.065912
C52   C     C_R   0.646791 0.147844 0.250043 -0.155664
C53   C     C_R   0.352341 0.853072 0.750258 -0.150735
C54   C     C_R   0.852688 0.647681 0.249992 -0.162195
C55   C     C_R   0.146910 0.352575 0.750154 -0.150269
C56   C     C_R   0.352191 0.853602 0.249578 -0.149484
C57   C     C_R   0.229344 0.728747 0.748190 0.071301
C58   C     C_R   0.647220 0.147967 0.750232 -0.164145
C59   C     C_R   0.147782 0.353585 0.250452 -0.153565
C60   C     C_R   0.852383 0.647393 0.749866 -0.168612
C61   C     C_R   0.647671 0.852493 0.750092 -0.159554
C62   C     C_R   0.351503 0.146861 0.250135 -0.156854
C63   C     C_R   0.852158 0.352968 0.750385 -0.157004
C64   C     C_R   0.148607 0.646803 0.249847 -0.157599
C65   C     C_R   0.353206 0.148560 0.750478 -0.156374
C66   C     C_R   0.647690 0.852635 0.250305 -0.156392
C67   C     C_R   0.147655 0.647808 0.749602 -0.161302
C68   C     C_R   0.771051 0.270936 0.247971 0.071260
C69   C     C_R   0.852125 0.352476 0.249455 -0.161339
C70   C     C_2   0.550084 0.089879 0.040379 0.986800
C71   C     C_2   0.449451 0.910349 0.959885 0.975547
C72   C     C_2   0.918874 0.562705 0.040455 0.978421
C73   C     C_2   0.082296 0.438350 0.959791 0.967121
C74   C     C_2   0.449967 0.910482 0.040532 0.975588
C75   C     C_2   0.550125 0.089865 0.959721 0.971646
C76   C     C_2   0.082305 0.438279 0.040431 0.984606
C77   C     C_2   0.918245 0.562593 0.959803 0.970548
C78   C     C_2   0.059586 0.416475 0.540485 0.972503
C79   C     C_1   0.499643 0.000419 0.111748 -0.049170
C80   C     C_2   0.940407 0.583821 0.459508 0.970291
C81   C     C_2   0.446155 0.088058 0.539987 0.973198
C82   C     C_2   0.558366 0.915354 0.460076 0.973429
C83   C     C_2   0.939736 0.583527 0.540145 0.990514
C84   C     C_2   0.060114 0.416435 0.460095 0.983813
C85   C     C_2   0.553572 0.912583 0.540466 0.986500
C86   C     C_2   0.441945 0.084983 0.459524 0.979117
C87   C     C_2   0.687832 0.111395 0.310429 0.892380
C88   C     C_2   0.390269 0.811475 0.809933 0.887102
C89   C     C_2   0.874155 0.669459 0.317387 0.946792
C90   C     C_1   0.500323 0.999714 0.888262 -0.042567
C91   C     C_2   0.104818 0.309825 0.692439 0.892168
C92   C     C_2   0.308038 0.898152 0.305985 0.926715
C93   C     C_2   0.663449 0.134912 0.681076 0.938806
C94   C     C_2   0.105441 0.308220 0.307339 0.885766
C95   C     C_2   0.872017 0.669334 0.682088 0.923546
C96   C     C_2   0.718649 0.921616 0.727597 0.929527
C97   C     C_2   0.346811 0.144668 0.320538 0.950916
C98   C     C_2   0.785871 0.418275 0.782915 0.931165
C99   C     C_2   0.149935 0.648213 0.319936 0.912685
C100  C     C_2   0.350678 0.150130 0.680383 0.919258
C101  C     C_1   0.000538 0.500312 0.111745 -0.043167
C102  C     C_2   0.716458 0.920219 0.277553 0.925006
C103  C     C_2   0.221885 0.575696 0.759379 0.947763
C104  C     C_2   0.923856 0.278525 0.261105 0.946652
C105  C     C_2   0.075623 0.722185 0.739771 0.937073
C106  C     C_2   0.778289 0.424364 0.237548 0.937063
C107  C     C_2   0.354818 0.151622 0.820924 0.948966
C108  C     C_2   0.580489 0.783528 0.223170 0.934882
C109  C     C_2   0.916412 0.286362 0.717857 0.931302
C110  C     C_2   0.151890 0.646294 0.179413 0.954281
C111  C     C_2   0.578591 0.781815 0.772953 0.937789
C112  C     C_R   0.272058 0.771096 0.748477 0.068303
C113  C     C_1   0.999644 0.499784 0.888258 -0.044573
C114  C     C_2   0.351852 0.150149 0.180064 0.912794
C115  C     C_2   0.192555 0.398932 0.194477 0.920292
C116  C     C_2   0.829449 0.626115 0.817250 0.933139
C117  C     C_2   0.393315 0.809776 0.191990 0.883825
C118  C     C_2   0.631389 0.164963 0.819057 0.941985
C119  C     C_2   0.829751 0.628391 0.182145 0.924675
C120  C     C_2   0.191096 0.394325 0.807812 0.893318
C121  C     C_2   0.607485 0.186002 0.189884 0.928080
C122  C     C_2   0.312371 0.893763 0.691067 0.931217
C123  C     C_1   0.000066 0.500451 0.611745 -0.049411
C124  C     C_1   0.999919 0.499685 0.388256 -0.049494
C125  C     C_1   0.499900 0.000098 0.611769 -0.048042
C126  C     C_1   0.499935 0.000008 0.388241 -0.032845
C127  C     C_R   0.028322 0.458488 0.480668 -0.087839
C128  C     C_R   0.971463 0.541644 0.519362 -0.092180
C129  C     C_R   0.472348 0.042184 0.480433 -0.084134
C130  C     C_R   0.527004 0.957885 0.519583 -0.088141
C131  C     C_R   0.969771 0.540249 0.480388 -0.094174
C132  C     C_R   0.771623 0.729041 0.250514 0.068271
C133  C     C_R   0.030132 0.459988 0.519613 -0.088326
C134  C     C_R   0.527414 0.958075 0.480598 -0.093367
C135  C     C_R   0.472630 0.042447 0.519429 -0.088999
C136  C     C_R   0.525564 0.043368 0.980504 -0.089689
C137  C     C_R   0.474425 0.956843 0.019547 -0.089762
C138  C     C_R   0.959422 0.529731 0.980540 -0.089419
C139  C     C_R   0.041104 0.470834 0.019497 -0.093007
C140  C     C_R   0.476418 0.955608 0.980580 -0.092147
C141  C     C_R   0.523479 0.044617 0.019470 -0.095189
C142  C     C_R   0.039557 0.468958 0.980531 -0.092463
C143  C     C_R   0.225759 0.269109 0.751221 0.071562
C144  C     C_R   0.961061 0.531659 0.019505 -0.090177
C145  C     C_R   0.998136 0.498615 0.461272 -0.028080
C146  C     C_R   0.001762 0.501615 0.538732 -0.025797
C147  C     C_R   0.499899 0.000124 0.461252 -0.030082
C148  C     C_R   0.499826 0.000174 0.538767 -0.029275
C149  C     C_R   0.502068 0.998834 0.961289 -0.026947
C150  C     C_R   0.497810 0.001418 0.038735 -0.022507
C151  C     C_R   0.998627 0.498300 0.961282 -0.026746
C152  C     C_R   0.001897 0.502225 0.038732 -0.023418
C153  C     C_R   0.499976 0.999995 0.348864 0.859256
C154  C     C_R   0.270770 0.772723 0.250137 0.074587
C155  C     C_R   0.499984 0.000023 0.651139 0.836575
C156  C     C_R   0.000026 0.500022 0.348872 0.834219
C157  C     C_R   0.999974 0.500010 0.651127 0.842944
C158  C     C_R   0.000001 0.499971 0.848870 0.859984
C159  C     C_R   0.000032 0.500041 0.151130 0.861907
C160  C     C_R   0.500058 0.000004 0.848874 0.868897
C161  C     C_R   0.499935 0.000021 0.151129 0.833040
C162  C     C_R   0.605186 0.894912 0.250076 0.952169
C163  C     C_R   0.394891 0.105288 0.749971 0.854216
C164  C     C_R   0.105298 0.605131 0.250074 0.854091
C165  C     C_R   0.728136 0.229559 0.750909 0.069322
C166  C     C_R   0.894795 0.394984 0.750077 0.942455
C167  C     C_R   0.394743 0.105151 0.249896 0.857153
C168  C     C_R   0.605222 0.894888 0.749991 0.949099
C169  C     C_R   0.894732 0.394879 0.249886 0.935289
C170  C     C_R   0.105146 0.605267 0.749914 0.928291
C171  C     C_R   0.605159 0.105181 0.749998 0.933661
C172  C     C_R   0.395220 0.894773 0.249637 0.935153
C173  C     C_R   0.104957 0.394921 0.749990 0.921378
C174  C     C_R   0.894829 0.605082 0.249917 0.934721
C175  C     C_R   0.395290 0.894596 0.750406 0.936788
C176  C     C_R   0.229645 0.273114 0.250040 0.073957
C177  C     C_R   0.605267 0.104858 0.250265 0.932743
C178  C     C_R   0.894885 0.605158 0.749919 0.948631
C179  C     C_R   0.104818 0.394812 0.250326 0.946410
C180  C     C_1   0.999276 0.499239 0.421404 0.051432
C181  C     C_1   0.000665 0.500977 0.578597 0.060134
C182  C     C_1   0.499910 0.000074 0.421390 0.065452
C183  C     C_1   0.499848 0.000161 0.578623 0.065388
C184  C     C_1   0.500991 0.999342 0.921414 0.054894
C185  C     C_1   0.498931 0.000874 0.078599 0.065678
C186  C     C_1   0.999203 0.499223 0.921408 0.054090
C187  C     C_R   0.771328 0.728711 0.750131 0.066132
C188  C     C_1   0.001139 0.501067 0.078597 0.065890
C189  C     C_R   0.727167 0.190363 0.277077 -0.159912
C190  C     C_R   0.310699 0.772007 0.776840 -0.164224
C191  C     C_R   0.801486 0.717931 0.282476 -0.170283
C192  C     C_R   0.184359 0.268926 0.724582 -0.162811
C193  C     C_R   0.270370 0.814391 0.276562 -0.169395
C194  C     C_R   0.714570 0.203261 0.717998 -0.171844
C195  C     C_R   0.187742 0.271239 0.276208 -0.163702
C196  C     C_R   0.800815 0.718142 0.718014 -0.168367
C197  C     C_R   0.742053 0.824725 0.740141 -0.169161
C198  C     C_R   0.728884 0.771238 0.750218 0.068431
C199  C     C_R   0.293283 0.210367 0.283412 -0.182402
C200  C     C_R   0.760013 0.323529 0.765888 -0.164179
C201  C     C_R   0.208842 0.708552 0.283282 -0.171369
C202  C     C_R   0.290132 0.208026 0.717598 -0.170974
C203  C     C_R   0.741270 0.824289 0.262810 -0.170960
C204  C     C_R   0.243709 0.673791 0.751937 -0.172408
C205  C     C_R   0.825896 0.256610 0.252629 -0.171689
C206  C     C_R   0.174340 0.743470 0.745019 -0.176118
C207  C     C_R   0.756530 0.325846 0.243840 -0.173824
C208  C     C_R   0.288829 0.205345 0.784188 -0.179830
H1    H     H_    0.757380 0.193203 0.298891 0.190448
H2    H     H_    0.278626 0.227042 0.309219 0.183037
H3    H     H_    0.719956 0.331578 0.777439 0.189757
H4    H     H_    0.225556 0.722912 0.309217 0.160808
H5    H     H_    0.275272 0.224721 0.691783 0.157008
H6    H     H_    0.782363 0.833313 0.272319 0.181099
H7    H     H_    0.286532 0.662887 0.754612 0.183609
H8    H     H_    0.836656 0.213875 0.255993 0.184161
H9    H     H_    0.163696 0.786291 0.742037 0.179022
H10   H     H_    0.713810 0.336459 0.240119 0.179166
H11   H     H_    0.271844 0.219287 0.810085 0.182714
H12   H     H_    0.308484 0.741332 0.798368 0.182075
H13   H     H_    0.667307 0.717886 0.229157 0.181773
H14   H     H_    0.830024 0.220342 0.724852 0.182168
H15   H     H_    0.220650 0.728119 0.190925 0.181810
H16   H     H_    0.665884 0.716459 0.768257 0.181252
H17   H     H_    0.276123 0.224705 0.190856 0.161491
H18   H     H_    0.263435 0.317209 0.204159 0.183251
H19   H     H_    0.758344 0.707162 0.806690 0.188641
H20   H     H_    0.313037 0.738669 0.203556 0.178398
H21   H     H_    0.711769 0.236714 0.808729 0.186452
H22   H     H_    0.758532 0.708882 0.193736 0.190367
H23   H     H_    0.793020 0.741168 0.307252 0.180383
H24   H     H_    0.260106 0.311539 0.797658 0.180985
H25   H     H_    0.691262 0.255596 0.198083 0.183430
H26   H     H_    0.243272 0.809581 0.699022 0.183567
H27   H     H_    0.544515 0.145347 0.081354 0.369093
H28   H     H_    0.382432 0.863212 0.953117 0.368481
H29   H     H_    0.902421 0.616222 0.081253 0.357628
H30   H     H_    0.162563 0.422165 0.952924 0.369511
H31   H     H_    0.400084 0.886154 0.081648 0.363368
H32   H     H_    0.555338 0.171555 0.952739 0.364977
H33   H     H_    0.138135 0.436214 0.081434 0.369436
H34   H     H_    0.182756 0.236218 0.704479 0.182289
H35   H     H_    0.880886 0.635445 0.952873 0.364733
H36   H     H_    0.073792 0.335851 0.547432 0.367633
H37   H     H_    0.926323 0.664469 0.452581 0.373588
H38   H     H_    0.436242 0.169506 0.545759 0.366440
H39   H     H_    0.628793 0.873195 0.454435 0.368168
H40   H     H_    0.938680 0.639295 0.581092 0.364053
H41   H     H_    0.131843 0.376806 0.453643 0.368281
H42   H     H_    0.604102 0.890249 0.581833 0.363080
H43   H     H_    0.442451 0.140327 0.418272 0.357415
H44   H     H_    0.732822 0.076010 0.350615 0.365546
H45   H     H_    0.237487 0.816006 0.296509 0.183068
H46   H     H_    0.440648 0.852627 0.844313 0.364289
H47   H     H_    0.945522 0.648210 0.341591 0.355255
H48   H     H_    0.059528 0.352112 0.655537 0.348682
H49   H     H_    0.327772 0.974513 0.322578 0.369858
H50   H     H_    0.639606 0.067079 0.653679 0.357742
H51   H     H_    0.051440 0.347003 0.340322 0.369621
H52   H     H_    0.941164 0.644811 0.656565 0.356393
H53   H     H_    0.698001 0.992534 0.702959 0.374223
H54   H     H_    0.357918 0.158231 0.374881 0.360067
H55   H     H_    0.726297 0.470353 0.798777 0.369134
H56   H     H_    0.735853 0.214620 0.692948 0.180987
H57   H     H_    0.147595 0.587532 0.357540 0.353286
H58   H     H_    0.411174 0.147684 0.642711 0.365801
H59   H     H_    0.693328 0.989381 0.303395 0.362076
H60   H     H_    0.207386 0.502377 0.782581 0.359541
H61   H     H_    0.996646 0.293808 0.284894 0.360795
H62   H     H_    0.000946 0.707285 0.718399 0.369867
H63   H     H_    0.794495 0.498510 0.215800 0.369149
H64   H     H_    0.340788 0.138235 0.874961 0.363380
H65   H     H_    0.512132 0.806055 0.196157 0.362654
H66   H     H_    0.982473 0.311271 0.689334 0.360658
H67   H     H_    0.186783 0.238101 0.296015 0.180825
H68   H     H_    0.138707 0.661448 0.125461 0.368865
H69   H     H_    0.508077 0.802830 0.797871 0.361509
H70   H     H_    0.355897 0.090130 0.142088 0.362151
H71   H     H_    0.172598 0.475267 0.177912 0.371092
H72   H     H_    0.822531 0.624648 0.872670 0.372032
H73   H     H_    0.441329 0.850665 0.156041 0.347563
H74   H     H_    0.634671 0.165976 0.874637 0.376277
H75   H     H_    0.819592 0.627557 0.126919 0.361255
H76   H     H_    0.152755 0.450369 0.839466 0.356736
H77   H     H_    0.531856 0.166076 0.171784 0.356170
H78   H     H_    0.792000 0.741886 0.693476 0.183643
H79   H     H_    0.331440 0.969946 0.673742 0.360114
H80   H     H_    0.783758 0.834167 0.732228 0.182437
O1    O     O_3   0.500000 1.000000 0.250000 -0.527356
O2    O     O_R   0.500000 0.045450 0.668550 -0.620049
O3    O     O_R   0.925212 0.648305 0.682223 -0.818238
O4    O     O_2   0.765826 0.936989 0.732114 -0.583135
O5    O     O_R   0.681202 0.956139 0.710043 -0.804811
O6    O     O_2   0.356841 0.095921 0.323927 -0.627470
O7    O     O_R   0.347727 0.178626 0.351532 -0.776719
O8    O     O_2   0.821572 0.449019 0.794269 -0.604330
O9    O     O_R   0.730929 0.433263 0.786696 -0.776294
O10   O     O_2   0.124235 0.679368 0.339748 -0.596774
O11   O     O_R   0.162975 0.595607 0.332189 -0.740460
O12   O     O_2   0.319074 0.125271 0.660325 -0.581688
O13   O     O_R   0.045450 0.500000 0.331450 -0.620893
O14   O     O_R   0.403432 0.162668 0.668219 -0.742232
O15   O     O_2   0.763964 0.935761 0.275765 -0.583274
O16   O     O_R   0.677305 0.953657 0.294252 -0.810864
O17   O     O_2   0.265780 0.560235 0.747033 -0.578038
O18   O     O_R   0.190102 0.539868 0.780377 -0.809759
O19   O     O_2   0.939505 0.234109 0.249747 -0.579626
O20   O     O_R   0.959279 0.311104 0.281908 -0.805736
O21   O     O_2   0.061149 0.766779 0.751508 -0.588259
O22   O     O_R   0.038460 0.689819 0.720191 -0.791320
O23   O     O_2   0.733105 0.439170 0.248009 -0.585699
O24   O     O_R   0.954550 0.500000 0.668550 -0.628858
O25   O     O_R   0.811760 0.461020 0.218428 -0.792127
O26   O     O_2   0.403744 0.142487 0.824456 -0.608475
O27   O     O_R   0.320502 0.148996 0.851671 -0.775636
O28   O     O_2   0.564645 0.736194 0.225597 -0.572156
O29   O     O_R   0.547643 0.822286 0.205482 -0.821651
O30   O     O_2   0.931936 0.238799 0.717382 -0.569564
O31   O     O_R   0.948106 0.326695 0.700874 -0.824033
O32   O     O_2   0.142329 0.597535 0.175522 -0.618916
O33   O     O_R   0.149622 0.681195 0.148907 -0.774018
O34   O     O_2   0.562947 0.734729 0.768557 -0.578400
O35   O     O_R   0.000000 0.545450 0.831450 -0.630485
O36   O     O_R   0.544466 0.819415 0.790601 -0.813939
O37   O     O_2   0.377143 0.182135 0.160583 -0.590165
O38   O     O_R   0.340027 0.097489 0.167395 -0.736578
O39   O     O_2   0.218148 0.390525 0.166095 -0.585970
O40   O     O_R   0.167311 0.449686 0.199612 -0.805955
O41   O     O_2   0.845782 0.578860 0.816527 -0.596918
O42   O     O_R   0.816118 0.650130 0.851038 -0.777336
O43   O     O_2   0.406421 0.765594 0.178891 -0.583792
O44   O     O_R   0.415407 0.857794 0.177281 -0.799637
O45   O     O_2   0.583608 0.150118 0.819269 -0.616366
O46   O     O_R   0.000000 0.454550 0.168550 -0.635036
O47   O     O_R   0.658563 0.173957 0.852461 -0.766795
O48   O     O_2   0.849090 0.582291 0.181922 -0.638266
O49   O     O_R   0.813150 0.652259 0.148915 -0.775294
O50   O     O_2   0.234693 0.402681 0.823451 -0.588051
O51   O     O_R   0.144790 0.423585 0.818823 -0.796612
O52   O     O_2   0.619167 0.206914 0.160290 -0.586419
O53   O     O_R   0.555429 0.163352 0.194727 -0.821443
O54   O     O_2   0.290617 0.882808 0.661594 -0.577268
O55   O     O_R   0.334987 0.945744 0.696312 -0.820561
O56   O     O_R   0.454550 1.000000 0.831450 -0.611799
O57   O     O_R   0.545450 1.000000 0.168550 -0.631127
O58   O     O_R   0.000000 0.454550 0.831450 -0.601467
O59   O     O_R   0.000000 0.545450 0.168550 -0.598855
O60   O     O_R   0.545450 1.000000 0.831450 -0.613075
O61   O     O_3   0.500000 1.000000 0.750000 -0.524845
O62   O     O_R   0.454550 1.000000 0.168550 -0.604602
O63   O     O_R   0.564020 0.890520 0.271340 -0.616111
O64   O     O_R   0.435980 0.109480 0.728660 -0.600718
O65   O     O_R   0.109480 0.564020 0.271340 -0.595836
O66   O     O_R   0.890520 0.435980 0.728660 -0.614523
O67   O     O_R   0.435980 0.109480 0.271340 -0.619932
O68   O     O_R   0.564020 0.890520 0.728660 -0.619557
O69   O     O_R   0.890520 0.435980 0.271340 -0.615731
O70   O     O_R   0.109480 0.564020 0.728660 -0.619136
O71   O     O_R   0.564020 0.109480 0.728660 -0.608127
O72   O     O_3   0.000000 0.500000 0.250000 -0.524714
O73   O     O_R   0.435980 0.890520 0.271340 -0.636591
O74   O     O_R   0.109480 0.435980 0.728660 -0.592278
O75   O     O_R   0.890520 0.564020 0.271340 -0.616586
O76   O     O_R   0.435980 0.890520 0.728660 -0.635480
O77   O     O_R   0.564020 0.109480 0.271340 -0.584782
O78   O     O_R   0.890520 0.564020 0.728660 -0.609793
O79   O     O_R   0.109480 0.435980 0.271340 -0.567338
O80   O     O_R   0.064020 0.390520 0.771340 -0.602221
O81   O     O_R   0.935980 0.609480 0.228660 -0.614249
O82   O     O_R   0.609480 0.064020 0.771340 -0.614789
O83   O     O_3   0.000000 0.500000 0.750000 -0.525007
O84   O     O_R   0.390520 0.935980 0.228660 -0.565077
O85   O     O_R   0.935980 0.609480 0.771340 -0.615885
O86   O     O_R   0.064020 0.390520 0.228660 -0.635567
O87   O     O_R   0.390520 0.935980 0.771340 -0.577149
O88   O     O_R   0.609480 0.064020 0.228660 -0.633450
O89   O     O_R   0.064020 0.609480 0.228660 -0.622583
O90   O     O_R   0.935980 0.390520 0.771340 -0.622236
O91   O     O_R   0.609480 0.935980 0.228660 -0.618519
O92   O     O_R   0.390520 0.064020 0.771340 -0.618308
O93   O     O_R   0.935980 0.390520 0.228660 -0.622019
O94   O     O_R   0.500000 0.045450 0.331450 -0.599235
O95   O     O_R   0.064020 0.609480 0.771340 -0.621869
O96   O     O_R   0.390520 0.064020 0.228660 -0.594282
O97   O     O_R   0.609480 0.935980 0.771340 -0.616517
O98   O     O_2   0.596588 0.104284 0.032633 -0.570675
O99   O     O_R   0.522021 0.115630 0.069084 -0.773652
O100  O     O_2   0.473643 0.887323 0.934834 -0.596039
O101  O     O_R   0.396287 0.894290 0.969089 -0.758623
O102  O     O_2   0.870398 0.557408 0.032840 -0.579870
O103  O     O_R   0.934716 0.597664 0.069027 -0.766350
O104  O     O_2   0.069224 0.407506 0.934760 -0.580541
O105  O     O_R   0.500000 0.954550 0.668550 -0.623537
O106  O     O_R   0.137493 0.445055 0.968926 -0.759174
O107  O     O_2   0.462070 0.863349 0.032770 -0.574881
O108  O     O_R   0.413479 0.920874 0.069325 -0.767565
O109  O     O_2   0.582470 0.081111 0.934736 -0.592222
O110  O     O_R   0.536022 0.143623 0.968761 -0.757579
O111  O     O_2   0.090170 0.390259 0.032657 -0.571982
O112  O     O_R   0.111728 0.462544 0.069178 -0.771453
O113  O     O_2   0.891938 0.541685 0.934811 -0.589860
O114  O     O_R   0.909806 0.617515 0.968881 -0.760176
O115  O     O_2   0.090641 0.428720 0.565621 -0.578954
O116  O     O_R   0.954550 0.500000 0.331450 -0.613830
O117  O     O_R   0.051572 0.361500 0.531347 -0.762938
O118  O     O_2   0.909416 0.571644 0.434322 -0.575494
O119  O     O_R   0.948450 0.638775 0.468693 -0.757192
O120  O     O_2   0.415379 0.078255 0.565693 -0.595932
O121  O     O_R   0.456564 0.142232 0.529817 -0.757285
O122  O     O_2   0.536910 0.891160 0.434347 -0.584762
O123  O     O_R   0.612107 0.902887 0.470333 -0.759464
O124  O     O_2   0.891952 0.592537 0.532144 -0.565723
O125  O     O_R   0.964481 0.612288 0.569000 -0.779887
O126  O     O_2   0.038654 0.390912 0.434955 -0.590392
O127  O     O_R   0.045450 0.500000 0.668550 -0.601191
O128  O     O_R   0.114661 0.406235 0.469524 -0.761453
O129  O     O_2   0.544415 0.865019 0.532056 -0.572531
O130  O     O_R   0.588866 0.924413 0.569760 -0.777909
O131  O     O_2   0.394773 0.096122 0.467826 -0.576640
O132  O     O_R   0.467287 0.112331 0.430324 -0.767501
O133  O     O_2   0.646494 0.087580 0.320473 -0.625495
O134  O     O_R   0.736870 0.102943 0.329544 -0.773568
O135  O     O_2   0.399922 0.768140 0.825514 -0.581928
O136  O     O_R   0.415426 0.859290 0.822560 -0.799586
O137  O     O_2   0.852934 0.679166 0.347180 -0.575620
O138  O     O_R   0.500000 0.954550 0.331450 -0.619888
O139  O     O_R   0.928671 0.652160 0.316182 -0.817594
O140  O     O_2   0.089626 0.265993 0.679796 -0.583080
O141  O     O_R   0.085326 0.358483 0.677012 -0.789235
O142  O     O_2   0.282824 0.889422 0.334484 -0.579898
O143  O     O_R   0.332960 0.949077 0.300811 -0.806329
O144  O     O_2   0.671378 0.159668 0.652271 -0.582144
O145  O     O_R   0.645427 0.080677 0.679779 -0.821381
O146  O     O_2   0.095532 0.264143 0.321852 -0.580582
O147  O     O_R   0.078298 0.355029 0.319756 -0.797649
O148  O     O_2   0.850783 0.681976 0.652744 -0.585922
Zn1   Zn    Zn3+2 0.564990 1.000000 0.219470 1.062743
Zn2   Zn    Zn3+2 0.935010 0.500000 0.280530 1.079809
Zn3   Zn    Zn3+2 0.500000 0.064990 0.719470 1.085253
Zn4   Zn    Zn3+2 0.500000 0.935010 0.280530 1.081306
Zn5   Zn    Zn3+2 0.935010 0.500000 0.719470 1.086302
Zn6   Zn    Zn3+2 0.064990 0.500000 0.280530 1.097245
Zn7   Zn    Zn3+2 0.500000 0.935010 0.719470 1.066300
Zn8   Zn    Zn3+2 0.500000 0.064990 0.280530 1.098900
Zn9   Zn    Zn3+2 0.435010 1.000000 0.780530 1.093317
Zn10  Zn    Zn3+2 0.000000 0.564990 0.219470 1.088977
Zn11  Zn    Zn3+2 0.000000 0.435010 0.780530 1.096674
Zn12  Zn    Zn3+2 0.435010 1.000000 0.219470 1.103752
Zn13  Zn    Zn3+2 0.564990 1.000000 0.780530 1.096027
Zn14  Zn    Zn3+2 0.000000 0.435010 0.219470 1.071504
Zn15  Zn    Zn3+2 0.000000 0.564990 0.780530 1.083036
Zn16  Zn    Zn3+2 0.064990 0.500000 0.719470 1.092950

loop_
_geom_bond_atom_site_label_1
_geom_bond_atom_site_label_2
_ccdc_geom_bond_type
C13   C200  A    
O76   Zn7   S    
C41   C61   A    
C83   C128  S    
C64   C164  S    
C10   C154  A    
C150  C185  S    
C118  O47   S    
C204  H7    S    
C91   O141  S    
C78   O115  D    
C194  H56   S    
C82   O123  S    
H36   O117  S    
O82   Zn13  S    
H31   O108  S    
C139  C142  A    
C196  H78   S    
C106  O23   D    
C156  O116  A    
C49   C120  S    
C86   O132  S    
C139  C152  A    
C1    C68   S    
C172  O84   A    
O46   Zn14  S    
C7    C42   A    
C26   C197  A    
C55   C173  S    
C63   C166  S    
C18   C190  A    
C45   C56   A    
C103  O17   D    
C50   C52   A    
C1    C15   A    
C25   C60   A    
C101  C188  T    
C201  H4    S    
C14   H24   S    
C33   C69   A    
C166  O66   A    
C29   C64   A    
C206  H9    S    
C163  O64   A    
H63   O25   S    
C130  C134  A    
C50   C121  S    
C79   C161  S    
C17   C52   A    
C24   C154  S    
C6    H16   S    
C73   C142  S    
H40   O125  S    
C30   C202  A    
C137  C140  A    
C177  O88   A    
C29   C99   S    
C36   C106  S    
C97   O6    D    
C104  O19   D    
C76   O111  D    
C178  O78   A    
O68   Zn7   S    
C77   C138  S    
O60   Zn13  S    
O89   Zn10  S    
C8    H18   S    
C75   C136  S    
C40   C110  S    
C193  H45   S    
C142  C151  A    
C82   C134  S    
C80   O119  S    
C136  C141  A    
O81   Zn10  S    
C117  O44   S    
H68   O33   S    
O97   Zn13  S    
C158  O35   A    
O72   Zn10  S    
C68   C207  A    
C127  C145  A    
C46   C203  A    
H62   O22   S    
C25   C95   S    
O1    Zn1   S    
C37   C208  A    
C169  O93   A    
C118  O45   D    
C72   C144  S    
C27   C97   S    
C12   C132  A    
C146  C181  S    
C17   C87   S    
O61   Zn13  S    
C96   O4    D    
C22   C58   A    
O74   Zn16  S    
C153  O94   A    
C138  C151  A    
C123  C157  S    
C3    C46   A    
H74   O47   S    
C61   C168  S    
C54   C174  S    
C58   C171  S    
C123  C181  T    
O93   Zn14  S    
C57   C204  A    
O86   Zn14  S    
C129  C147  A    
C99   O11   S    
C28   C63   A    
C107  O27   S    
C35   C208  A    
C39   C109  S    
C44   C116  S    
O116  Zn2   S    
C11   C165  A    
C174  O81   A    
C36   C207  A    
C19   C191  A    
C21   C92   S    
C168  O68   A    
C151  C186  S    
C75   O110  S    
H53   O5    S    
C33   C104  S    
C72   O102  D    
C2    C7    A    
C73   O104  D    
C111  O36   S    
C88   O135  D    
C164  O89   A    
O90   Zn11  S    
C23   C59   A    
C33   C205  A    
C160  O60   A    
O1    Zn12  S    
O85   Zn15  S    
C120  O50   D    
O13   Zn6   S    
C77   O113  D    
C114  O38   S    
H28   O101  S    
H51   O147  S    
C52   C177  S    
C105  O21   D    
C129  C135  A    
C42   C114  S    
C205  H8    S    
C37   C65   A    
H58   O14   S    
C149  C184  S    
C163  O92   A    
C95   O3    S    
O88   Zn1   S    
C42   C62   A    
C93   O144  D    
C43   C59   A    
C158  O58   A    
O83   Zn11  S    
C161  O62   A    
C208  H11   S    
O84   Zn12  S    
C11   H21   S    
C90   C160  S    
O35   Zn15  S    
C70   O99   S    
C141  C150  A    
O77   Zn8   S    
C26   C96   S    
O56   Zn9   S    
C24   C201  A    
C200  H3    S    
H79   O55   S    
C187  C198  S    
C2    C199  A    
C160  O56   A    
H75   O49   S    
C27   C199  A    
C121  O52   D    
H39   O123  S    
C7    H17   S    
C49   C55   A    
C57   C206  A    
C18   C88   S    
C51   C53   A    
H64   O27   S    
O57   Zn1   S    
C116  O42   S    
C27   C62   A    
C115  O40   S    
H33   O112  S    
C65   C163  S    
C10   C45   A    
C69   C169  S    
C80   O118  D    
H43   O132  S    
C25   C196  A    
C91   O140  D    
C32   C67   A    
O61   Zn7   S    
C19   C54   A    
C191  H23   S    
C195  H67   S    
C137  C150  A    
C87   O134  S    
C73   O106  S    
C111  O34   D    
C178  O85   A    
C128  C131  A    
C53   C175  S    
C94   O146  D    
C76   C139  S    
C45   C117  S    
C70   C141  S    
C93   O145  S    
O138  Zn4   S    
H71   O40   S    
O87   Zn9   S    
H73   O44   S    
O70   Zn16  S    
C8    C176  A    
C71   C140  S    
C161  O57   A    
O72   Zn6   S    
C167  O67   A    
C144  C152  A    
C138  C144  A    
O80   Zn11  S    
C85   O130  S    
C128  C146  A    
H48   O141  S    
C166  O90   A    
C148  C183  S    
C131  C145  A    
C159  O59   A    
C92   O143  S    
C197  C198  A    
O62   Zn12  S    
C30   C65   A    
C112  C190  A    
C152  C188  S    
O24   Zn5   S    
H38   O121  S    
C41   C111  S    
C23   C195  A    
C167  O96   A    
C21   C193  A    
C172  O73   A    
C98   O9    S    
C140  C149  A    
O69   Zn2   S    
C106  O25   S    
C1    C189  A    
O83   Zn16  S    
O78   Zn5   S    
C157  O24   A    
C187  C196  A    
C11   C47   A    
C8    C43   A    
C12   C48   A    
C165  C194  A    
C136  C149  A    
C134  C147  A    
C109  O31   S    
O71   Zn3   S    
C76   O112  S    
C110  O32   D    
C26   C61   A    
C37   C107  S    
O66   Zn5   S    
C60   C178  S    
H30   O106  S    
C66   C162  S    
H27   O99   S    
C175  O76   A    
H35   O114  S    
C18   C53   A    
H65   O29   S    
C102  O15   D    
C117  O43   D    
C154  C193  A    
C47   C118  S    
C9    C44   A    
C71   O101  S    
C16   C51   A    
H50   O145  S    
C81   O120  D    
C74   O107  D    
H77   O53   S    
O58   Zn11  S    
C173  O80   A    
C3    H13   S    
C80   C131  S    
C56   C172  S    
H76   O51   S    
H59   O16   S    
O127  Zn16  S    
H44   O134  S    
C74   C137  S    
C81   C135  S    
C48   C119  S    
C67   C170  S    
C20   C91   S    
C192  H34   S    
C82   O122  D    
C31   C102  S    
C122  O54   D    
C29   C201  A    
C86   O131  D    
C108  O28   D    
C190  H12   S    
C32   C204  A    
O95   Zn15  S    
C85   C130  S    
C13   C165  S    
H42   O130  S    
C16   H26   S    
C103  O18   S    
C179  O86   A    
C32   C103  S    
C9    H19   S    
C104  O20   S    
C147  C182  S    
C90   C184  T    
H69   O36   S    
C156  O13   A    
O64   Zn3   S    
C197  H80   S    
C162  O63   A    
C16   C112  A    
C28   C98   S    
C14   C143  A    
C207  H10   S    
C119  O48   D    
C75   O109  D    
C71   O100  D    
C97   O7    S    
C34   C105  S    
C98   O8    D    
C127  C133  A    
C88   O136  S    
C34   C67   A    
C20   C192  A    
C21   C56   A    
H60   O18   S    
C35   C202  A    
C12   H22   S    
H29   O103  S    
C199  H2    S    
C174  O75   A    
C59   C179  S    
C189  H1    S    
C46   C132  S    
O61   Zn3   S    
C170  O95   A    
C44   C60   A    
C4    H14   S    
C145  C180  S    
H55   O9    S    
C202  H5    S    
C38   C108  S    
O63   Zn4   S    
C78   C133  S    
H47   O139  S    
C57   C112  S    
C126  C153  S    
C173  O74   A    
C101  C159  S    
C159  O46   A    
O91   Zn1   S    
C5    C40   A    
C51   C122  S    
O72   Zn14  S    
C133  C146  A    
C92   O142  D    
H70   O38   S    
C35   C143  S    
H41   O128  S    
C31   C66   A    
O72   Zn2   S    
C30   C100  S    
C125  C183  T    
C203  H6    S    
C83   O125  S    
H72   O42   S    
C34   C206  A    
C48   C54   A    
C28   C200  A    
C169  O69   A    
O83   Zn5   S    
C171  O71   A    
C119  O49   S    
C14   C49   A    
C15   C50   A    
C4    C13   A    
C2    C176  S    
C96   O5    S    
C115  O39   D    
O73   Zn4   S    
C38   C66   A    
C3    C38   A    
C6    C41   A    
C143  C192  A    
C162  O91   A    
C113  C158  S    
C100  O12   D    
C31   C203  A    
C43   C115  S    
C84   C127  S    
C62   C167  S    
H52   O3    S    
C89   O137  D    
C176  C195  A    
C10   H20   S    
C87   O133  D    
C20   C55   A    
O67   Zn8   S    
C94   O147  S    
O65   Zn6   S    
H57   O11   S    
O75   Zn2   S    
C130  C148  A    
C95   O148  D    
C122  O55   S    
C171  O82   A    
C6    C198  A    
C17   C189  A    
C77   O114  S    
C78   O117  S    
O96   Zn12  S    
C114  O37   D    
H66   O31   S    
C108  O29   S    
C164  O65   A    
C19   C89   S    
C105  O22   S    
H61   O20   S    
C85   O129  D    
C4    C39   A    
C15   H25   S    
O1    Zn4   S    
C175  O87   A    
C84   O128  S    
O2    Zn3   S    
C132  C191  A    
O59   Zn10  S    
C170  O70   A    
C177  O77   A    
C5    H15   S    
C124  C156  S    
C22   C93   S    
C126  C182  T    
H32   O110  S    
C70   O98   D    
C81   O121  S    
C36   C69   A    
O83   Zn15  S    
H49   O143  S    
O79   Zn6   S    
C79   C185  T    
C9    C187  A    
C121  O53   S    
C153  O138  A    
C168  O97   A    
C86   C129  S    
C84   O126  D    
C83   O124  D    
O61   Zn9   S    
C39   C63   A    
C40   C64   A    
C23   C94   S    
C109  O30   D    
C110  O33   S    
O94   Zn8   S    
C116  O41   D    
C157  O127  A    
C99   O10   D    
C47   C58   A    
C107  O26   D    
C155  O105  A    
C5    C24   A    
C113  C186  T    
C155  O2    A    
O1    Zn8   S    
H46   O136  S    
C100  O14   S    
C120  O51   S    
C124  C180  T    
C102  O16   S    
C89   O139  S    
H37   O119  S    
C135  C148  A    
O92   Zn9   S    
C68   C205  A    
H54   O7    S    
C22   C194  A    
C72   O103  S    
C179  O79   A    
C74   O108  S    
C125  C155  S    
O105  Zn7   S    
