data_mof_unit_66073.cif
_audit_creation_date              2012-12-10T17:24:10-0500
_audit_creation_method            fapswitch 2.2
_symmetry_space_group_name_H-M    P1
_symmetry_Int_Tables_number       1
_space_group_crystal_system       triclinic
_cell_length_a                    10.165612
_cell_length_b                    10.633998
_cell_length_c                    16.642022
_cell_angle_alpha                 91.343892
_cell_angle_beta                  76.765901
_cell_angle_gamma                 94.905176
_cell_volume                      1744.81619625

loop_
_atom_site_label
_atom_site_type_symbol
_atom_type_description
_atom_site_fract_x
_atom_site_fract_y
_atom_site_fract_z
_atom_type_partial_charge
C1    C     C_R   0.555314 0.733693 0.499124 0.815656
C2    C     C_R   0.519018 0.500531 0.344536 0.899945
C3    C     C_R   0.483577 0.552807 0.738382 -0.176796
C4    C     C_R   0.536599 0.524541 0.256493 -0.197892
C5    C     C_R   0.603811 0.612953 0.753715 -0.238805
C6    C     C_R   0.422136 0.540082 0.225382 -0.223643
C7    C     C_R   0.604378 0.668444 0.829755 -0.123222
C8    C     C_R   0.437099 0.580604 0.145058 -0.132826
C9    C     C_R   0.485225 0.662112 0.892054 0.083168
C10   C     C_R   0.567241 0.607511 0.094665 0.087485
C11   C     C_R   0.363697 0.607292 0.875979 -0.225920
C12   C     C_R   0.443611 0.266526 0.509525 0.831526
C13   C     C_R   0.681555 0.587486 0.124423 -0.230089
C14   C     C_R   0.362511 0.552406 0.799420 0.662268
C15   C     C_R   0.667086 0.546437 0.204841 0.651495
C16   C     C_2   0.490170 0.688732 0.977732 -0.170600
C17   C     C_2   0.586491 0.640342 0.007666 -0.164622
C18   C     C_2   0.583211 0.867698 0.511587 0.352120
C19   C     C_2   0.411912 0.133266 0.527307 0.337989
C20   C     C_2   0.484705 0.933564 0.556485 0.450280
C21   C     C_2   0.500900 0.069315 0.555004 0.452930
C22   C     C_2   0.931593 0.527029 0.494165 0.556916
C23   C     C_2   0.080090 0.508036 0.482337 0.558821
C24   C     C_R   0.483551 0.508753 0.654917 0.897831
F1    F     F_    0.780906 0.532084 0.232182 -0.628364
F2    F     F_    0.244445 0.496157 0.785944 -0.632929
F3    F     F_    0.614957 0.127388 0.573831 -0.617082
F4    F     F_    0.362628 0.877127 0.596684 -0.609932
F5    F     F_    0.295760 0.074313 0.512078 -0.588145
F6    F     F_    0.706348 0.925232 0.474574 -0.583992
F7    F     F_    0.142735 0.449284 0.412576 -0.653685
F8    F     F_    0.885811 0.635964 0.529646 -0.626912
H1    H     H_    0.697244 0.618951 0.706492 0.225641
H2    H     H_    0.320675 0.522444 0.263403 0.241554
H3    H     H_    0.675368 0.607020 0.965820 0.164603
H4    H     H_    0.400468 0.721481 0.018805 0.162686
H5    H     H_    0.271466 0.600781 0.924185 0.168809
H6    H     H_    0.782379 0.604178 0.085293 0.173118
H7    H     H_    0.346311 0.587717 0.122571 0.162199
H8    H     H_    0.698731 0.712374 0.840911 0.173175
I1    I     I_    0.068522 0.628636 0.647501 0.007715
I2    I     I_    0.896621 0.270217 0.421060 0.082976
N1    N     N_2   0.846390 0.448330 0.467170 -0.068596
N2    N     N_2   0.153610 0.551670 0.532830 -0.063071
O1    O     O_R   0.430310 0.692580 0.506610 -0.579360
O2    O     O_R   0.569690 0.307420 0.493390 -0.578239
O3    O     O_R   0.652740 0.659410 0.485540 -0.522343
O4    O     O_R   0.347260 0.340590 0.514460 -0.555101
O5    O     O_R   0.375640 0.518570 0.627580 -0.552300
O6    O     O_R   0.624360 0.481430 0.372420 -0.551525
O7    O     O_R   0.598070 0.485390 0.606510 -0.605490
O8    O     O_R   0.401930 0.514610 0.393490 -0.566812
Zn1   Zn    Zn3+2 0.351480 0.522150 0.514070 1.134499
Zn2   Zn    Zn3+2 0.648520 0.477850 0.485930 1.132887

loop_
_geom_bond_atom_site_label_1
_geom_bond_atom_site_label_2
_ccdc_geom_bond_type
C2    C4    S    
C7    H8    S    
C11   H5    S    
C18   F6    S    
C8    H7    S    
C17   H3    S    
C22   F8    S    
N1    Zn2   S    
C20   F4    S    
C22   N1    D    
C12   O4    A    
O7    Zn2   S    
O2    Zn2   S    
C24   O7    A    
C21   F3    S    
O1    Zn1   S    
C16   H4    S    
C9    C11   A    
C1    O1    A    
C1    C18   S    
O6    Zn2   S    
C3    C14   A    
C2    O8    A    
C4    C15   A    
O3    Zn2   S    
O5    Zn1   S    
C12   C19   S    
C8    C10   A    
C19   C21   D    
C9    C16   S    
C13   H6    S    
C18   C20   D    
C13   C15   A    
O4    Zn1   S    
I1    N2    S    
C15   F1    S    
C4    C6    A    
I2    N1    S    
C10   C17   S    
C19   F5    S    
C7    C9    A    
C24   O5    A    
O8    Zn1   S    
C12   O2    A    
C11   C14   A    
C5    C7    A    
C22   C23   S    
C1    O3    A    
C6    C8    A    
C2    O6    A    
C23   F7    S    
C20   C21   S    
N2    Zn1   S    
C14   F2    S    
C23   N2    D    
C6    H2    S    
C3    C24   S    
C16   C17   D    
C3    C5    A    
C10   C13   A    
C5    H1    S    
