data_mof_unit_61505.cif
_audit_creation_date              2012-12-10T17:58:20-0500
_audit_creation_method            fapswitch 2.2
_symmetry_space_group_name_H-M    P1
_symmetry_Int_Tables_number       1
_space_group_crystal_system       triclinic
_cell_length_a                    38.56257
_cell_length_b                    21.606856
_cell_length_c                    21.605098
_cell_angle_alpha                 90.000178
_cell_angle_beta                  124.225843
_cell_angle_gamma                 90.000056
_cell_volume                      14884.3001614

loop_
_atom_site_label
_atom_site_type_symbol
_atom_type_description
_atom_site_fract_x
_atom_site_fract_y
_atom_site_fract_z
_atom_type_partial_charge
C1    C     C_R   0.999905 0.000021 0.120186 0.891857
C2    C     C_3   0.774734 0.011540 0.843119 0.996480
C3    C     C_3   0.274551 0.554950 0.735147 -0.561541
C4    C     C_3   0.273869 0.048662 0.320563 0.281438
C5    C     C_3   0.726131 0.048609 0.679387 0.281444
C6    C     C_3   0.773868 0.550367 0.318729 0.281281
C7    C     C_3   0.226133 0.550427 0.681334 0.281281
C8    C     C_1   0.374489 0.999676 0.374242 -0.127081
C9    C     C_1   0.625511 0.999676 0.625759 -0.127089
C10   C     C_1   0.874488 0.499699 0.374235 -0.126722
C11   C     C_1   0.125513 0.499702 0.625765 -0.126733
C12   C     C_3   0.208841 0.000875 0.207550 0.076154
C13   C     C_3   0.725248 0.508976 0.156482 0.996427
C14   C     C_3   0.791158 0.000875 0.792452 0.076152
C15   C     C_3   0.708838 0.500843 0.207525 0.076152
C16   C     C_3   0.291162 0.500842 0.792472 0.076155
C17   C     C_3   0.274298 0.935738 0.294552 0.461653
C18   C     C_3   0.725702 0.935714 0.705520 0.461641
C19   C     C_3   0.774308 0.436552 0.296875 0.461931
C20   C     C_3   0.225690 0.436584 0.703039 0.461946
C21   C     C_3   0.291299 0.999903 0.290543 -0.030604
C22   C     C_3   0.708701 0.999902 0.709459 -0.030598
C23   C     C_3   0.791295 0.499912 0.290517 -0.030677
C24   C     C_3   0.274753 0.508888 0.843526 0.996426
C25   C     C_3   0.208705 0.499915 0.709480 -0.030678
C26   C     C_3   0.973861 0.142204 0.295776 0.075656
C27   C     C_3   0.946166 0.189634 0.300166 -0.740450
C28   C     C_3   0.026140 0.142203 0.704226 0.075667
C29   C     C_3   0.053833 0.189633 0.699832 -0.740464
C30   C     C_3   0.473847 0.642173 0.295805 0.075677
C31   C     C_3   0.446140 0.689610 0.300150 -0.740243
C32   C     C_3   0.526142 0.642179 0.704191 0.075670
C33   C     C_3   0.553849 0.689628 0.699867 -0.740232
C34   C     C_3   0.428357 0.188580 0.318165 0.123981
C35   C     C_1   0.336995 0.999491 0.336549 0.044909
C36   C     C_3   0.391323 0.150526 0.258192 -0.825911
C37   C     C_3   0.571668 0.188580 0.681835 0.123969
C38   C     C_3   0.608712 0.150533 0.741794 -0.825906
C39   C     C_3   0.929539 0.688875 0.317555 0.124493
C40   C     C_3   0.893133 0.650129 0.257203 -0.824907
C41   C     C_3   0.070438 0.688851 0.682437 0.124503
C42   C     C_3   0.106877 0.650172 0.742820 -0.824975
C43   C     C_3   0.297169 0.140050 0.292145 0.131808
C44   C     C_3   0.307007 0.207437 0.316167 -0.783169
C45   C     C_3   0.702831 0.140052 0.707707 0.131790
C46   C     C_1   0.663005 0.999490 0.663453 0.044907
C47   C     C_3   0.692994 0.207425 0.683615 -0.783161
C48   C     C_3   0.797099 0.639847 0.286936 0.132103
C49   C     C_3   0.806891 0.707715 0.308486 -0.783970
C50   C     C_3   0.202910 0.639842 0.713248 0.132121
C51   C     C_3   0.193129 0.707727 0.691790 -0.784005
C52   C     C_3   0.210289 0.072667 0.054580 0.145788
C53   C     C_3   0.205722 0.139893 0.030344 -0.851278
C54   C     C_3   0.789708 0.072840 0.945339 0.145797
C55   C     C_3   0.794270 0.140089 0.969494 -0.851307
C56   C     C_3   0.710197 0.566915 0.051944 0.144711
C57   C     C_1   0.836992 0.499517 0.336533 0.045072
C58   C     C_3   0.705476 0.633349 0.025094 -0.849365
C59   C     C_3   0.289808 0.566708 0.948144 0.144693
C60   C     C_3   0.294537 0.633112 0.975090 -0.849328
C61   C     C_1   0.163008 0.499522 0.663465 0.045078
C62   C     C_1   0.163074 0.000473 0.162453 0.069392
C63   C     C_1   0.836926 0.000473 0.837549 0.069392
C64   C     C_1   0.663071 0.500458 0.162452 0.069432
C65   C     C_R   0.000095 0.000020 0.879814 0.891856
C66   C     C_1   0.336929 0.500457 0.837545 0.069432
C67   C     C_1   0.125559 0.000155 0.125318 -0.165103
C68   C     C_1   0.874440 0.000155 0.874683 -0.165107
C69   C     C_1   0.625558 0.500151 0.125323 -0.165010
C70   C     C_1   0.374442 0.500150 0.874675 -0.165009
C71   C     C_R   0.975773 0.044357 0.193429 -0.269566
C72   C     C_R   0.024228 0.044355 0.806573 -0.269579
C73   C     C_R   0.475760 0.544343 0.193414 -0.269886
C74   C     C_R   0.524237 0.544346 0.806583 -0.269874
C75   C     C_R   0.975769 0.045198 0.257553 0.477875
C76   C     C_R   0.499904 0.500021 0.120185 0.891666
C77   C     C_R   0.024232 0.045197 0.742449 0.477871
C78   C     C_R   0.475756 0.545187 0.257538 0.477641
C79   C     C_R   0.524241 0.545189 0.742459 0.477642
C80   C     C_R   0.999882 0.001111 0.313559 -0.125270
C81   C     C_R   0.000118 0.001111 0.686442 -0.125270
C82   C     C_R   0.499882 0.501113 0.313557 -0.125402
C83   C     C_R   0.500118 0.501111 0.686442 -0.125397
C84   C     C_R   0.024339 0.957722 0.306645 -0.253324
C85   C     C_R   0.975660 0.957722 0.693354 -0.253329
C86   C     C_R   0.524349 0.457736 0.306654 -0.253291
C87   C     C_R   0.500096 0.500020 0.879815 0.891671
C88   C     C_R   0.475654 0.457731 0.693348 -0.253291
C89   C     C_R   0.023921 0.956812 0.242365 -0.177324
C90   C     C_R   0.976079 0.956812 0.757635 -0.177326
C91   C     C_R   0.523930 0.456825 0.242372 -0.177227
C92   C     C_R   0.476073 0.456821 0.757630 -0.177219
C93   C     C_R   0.081088 0.000019 0.081124 0.896733
C94   C     C_R   0.918911 0.000018 0.918877 0.896734
C95   C     C_R   0.581088 0.500018 0.081127 0.896563
C96   C     C_R   0.418912 0.500018 0.918872 0.896560
C97   C     C_R   0.999796 0.000263 0.186225 -0.078684
C98   C     C_3   0.274170 0.010968 0.206690 -0.478991
C99   C     C_R   0.000205 0.000262 0.813775 -0.078680
C100  C     C_R   0.499793 0.500263 0.186222 -0.078717
C101  C     C_R   0.500207 0.500262 0.813778 -0.078726
C102  C     C_R   0.500000 0.185894 0.499999 -0.220057
C103  C     C_R   1.000000 0.685924 0.500002 -0.220229
C104  C     C_R   0.500000 0.879991 0.500000 1.012744
C105  C     C_R   1.000000 0.379991 0.500000 1.013046
C106  C     C_R   0.418922 0.000082 0.418872 0.933187
C107  C     C_R   0.581077 0.000082 0.581128 0.933191
C108  C     C_R   0.918922 0.500089 0.418871 0.933223
C109  C     C_3   0.725830 0.011040 0.793300 -0.478998
C110  C     C_R   0.081078 0.500091 0.581129 0.933221
C111  C     C_R   0.500000 0.120175 0.500000 0.995976
C112  C     C_R   0.000001 0.620185 0.500001 0.995919
C113  C     C_R   1.000000 0.879317 0.500000 0.916546
C114  C     C_R   0.500000 0.379308 0.500000 0.916910
C115  C     C_R   0.999953 0.000161 0.379638 0.897631
C116  C     C_R   0.000047 0.000162 0.620362 0.897628
C117  C     C_R   0.499953 0.500162 0.379638 0.897844
C118  C     C_R   0.500047 0.500161 0.620362 0.897851
C119  C     C_R   0.000000 0.120438 0.500000 0.935553
C120  C     C_3   0.774152 0.508536 0.206298 -0.478694
C121  C     C_R   0.500000 0.620437 0.500001 0.935635
C122  C     C_R   0.531005 0.782295 0.498087 0.575895
C123  C     C_R   0.468994 0.782295 0.501914 0.575915
C124  C     C_R   0.031003 0.282294 0.498077 0.576113
C125  C     C_R   0.968997 0.282294 0.501922 0.576106
C126  C     C_R   0.031293 0.218375 0.499085 -0.281436
C127  C     C_R   0.968707 0.218375 0.500914 -0.281439
C128  C     C_R   0.531297 0.718375 0.499097 -0.281634
C129  C     C_R   0.468705 0.718375 0.500906 -0.281647
C130  C     C_3   0.225649 0.937659 0.248617 -0.511737
C131  C     C_3   0.225849 0.508453 0.793711 -0.478696
C132  C     C_3   0.774351 0.937632 0.751455 -0.511738
C133  C     C_3   0.725660 0.438560 0.250894 -0.511759
C134  C     C_3   0.274339 0.438594 0.749021 -0.511762
C135  C     C_R   1.000000 0.186670 0.500000 -0.223395
C136  C     C_R   0.500000 0.686670 0.500002 -0.223097
C137  C     C_R   0.500000 0.813958 0.500000 -0.311208
C138  C     C_R   0.000000 0.313958 0.500000 -0.311806
C139  C     C_R   0.465302 0.217261 0.440713 0.401413
C140  C     C_R   0.534700 0.217261 0.559284 0.401407
C141  C     C_R   0.965590 0.717298 0.440128 0.401805
C142  C     C_3   0.225266 0.011466 0.156871 0.996477
C143  C     C_R   0.034408 0.717300 0.559878 0.401776
C144  C     C_R   0.965204 0.781382 0.441821 -0.287448
C145  C     C_R   0.034793 0.781383 0.558183 -0.287390
C146  C     C_R   0.464944 0.281341 0.442427 -0.286749
C147  C     C_R   0.535057 0.281342 0.557573 -0.286745
C148  C     C_R   0.999999 0.813057 0.500001 -0.147409
C149  C     C_R   0.500000 0.313030 0.500001 -0.148362
C150  C     C_3   0.225456 0.053402 0.266900 -0.561539
C151  C     C_3   0.774544 0.053355 0.733044 -0.561538
C152  C     C_3   0.725451 0.554899 0.264921 -0.561531
F1    F     F_    0.287229 0.889374 0.267391 -0.617213
F2    F     F_    0.789196 0.963053 0.894598 -0.690979
F3    F     F_    0.710797 0.459113 0.106880 -0.691051
F4    F     F_    0.289202 0.458979 0.893060 -0.691053
F5    F     F_    0.712770 0.889394 0.732731 -0.617228
F6    F     F_    0.787238 0.388760 0.271424 -0.616692
F7    F     F_    0.212759 0.388744 0.728429 -0.616671
F8    F     F_    0.561270 0.813252 0.496866 -0.645297
F9    F     F_    0.438730 0.813252 0.503134 -0.645291
F10   F     F_    0.061264 0.313252 0.496848 -0.644678
F11   F     F_    0.938736 0.313252 0.503151 -0.644704
F12   F     F_    0.210804 0.962936 0.105446 -0.690980
H1    H     H_    0.286789 0.923931 0.353747 0.088651
H2    H     H_    0.713063 0.053788 0.801317 0.121472
H3    H     H_    0.662808 0.210873 0.627858 0.276436
H4    H     H_    0.690386 0.234007 0.724827 0.202370
H5    H     H_    0.718401 0.227815 0.680465 0.253851
H6    H     H_    0.767398 0.637739 0.230482 0.167644
H7    H     H_    0.823396 0.620621 0.285802 0.157819
H8    H     H_    0.837129 0.712152 0.364005 0.277217
H9    H     H_    0.809366 0.732707 0.266199 0.202096
H10   H     H_    0.781524 0.729068 0.311045 0.254228
H11   H     H_    0.232612 0.637694 0.769698 0.167645
H12   H     H_    0.176613 0.620590 0.714361 0.157809
H13   H     H_    0.786898 0.550484 0.196671 0.121454
H14   H     H_    0.162886 0.712204 0.636284 0.277266
H15   H     H_    0.190667 0.732670 0.734119 0.202053
H16   H     H_    0.218493 0.729103 0.689242 0.254247
H17   H     H_    0.183268 0.046141 0.008558 0.205719
H18   H     H_    0.239919 0.054379 0.064054 0.146643
H19   H     H_    0.232465 0.167450 0.075268 0.250567
H20   H     H_    0.205377 0.143080 0.978700 0.227386
H21   H     H_    0.175952 0.159275 0.018818 0.269131
H22   H     H_    0.816730 0.046340 0.991393 0.205721
H23   H     H_    0.760079 0.054571 0.935886 0.146650
H24   H     H_    0.213105 0.550374 0.803392 0.121460
H25   H     H_    0.767526 0.167622 0.924536 0.250569
H26   H     H_    0.794614 0.143335 0.021134 0.227390
H27   H     H_    0.824039 0.159456 0.980998 0.269131
H28   H     H_    0.683220 0.539595 0.006991 0.205698
H29   H     H_    0.739856 0.548023 0.062100 0.146379
H30   H     H_    0.732167 0.661680 0.068908 0.250630
H31   H     H_    0.705101 0.634642 0.973337 0.227241
H32   H     H_    0.675672 0.653255 0.012841 0.269300
H33   H     H_    0.316784 0.539359 0.993058 0.205695
H34   H     H_    0.260149 0.547797 0.937964 0.146375
H35   H     H_    0.956784 0.077518 0.149209 0.166345
H36   H     H_    0.267848 0.661471 0.931319 0.250630
H37   H     H_    0.294915 0.634337 0.026852 0.227236
H38   H     H_    0.324343 0.653035 0.987369 0.269303
H39   H     H_    0.043217 0.077516 0.850793 0.166343
H40   H     H_    0.456764 0.577495 0.149187 0.166393
H41   H     H_    0.543232 0.577501 0.850808 0.166397
H42   H     H_    0.043049 0.924045 0.350342 0.165101
H43   H     H_    0.956950 0.924046 0.649657 0.165098
H44   H     H_    0.543067 0.424070 0.350359 0.165132
H45   H     H_    0.713212 0.923856 0.646339 0.088660
H46   H     H_    0.456937 0.424063 0.649645 0.165132
H47   H     H_    0.042714 0.922930 0.236761 0.158713
H48   H     H_    0.957285 0.922930 0.763238 0.158709
H49   H     H_    0.542731 0.422953 0.236776 0.158814
H50   H     H_    0.457273 0.422946 0.763228 0.158820
H51   H     H_    0.055384 0.193665 0.497954 0.191017
H52   H     H_    0.944615 0.193665 0.502045 0.191013
H53   H     H_    0.555390 0.693666 0.497973 0.190828
H54   H     H_    0.444610 0.693665 0.502031 0.190826
H55   H     H_    0.215309 0.930586 0.286943 0.145920
H56   H     H_    0.786811 0.426459 0.356475 0.088284
H57   H     H_    0.784692 0.930505 0.713137 0.145924
H58   H     H_    0.715332 0.433270 0.289463 0.145810
H59   H     H_    0.284666 0.433366 0.710444 0.145808
H60   H     H_    0.938084 0.806206 0.397337 0.176541
H61   H     H_    0.061913 0.806207 0.602668 0.176565
H62   H     H_    0.437622 0.306142 0.398412 0.176999
H63   H     H_    0.562379 0.306142 0.601584 0.176997
H64   H     H_    0.215420 0.099365 0.239319 0.234881
H65   H     H_    0.784580 0.099338 0.760574 0.234884
H66   H     H_    0.715394 0.600189 0.235667 0.234834
H67   H     H_    0.213186 0.426551 0.643425 0.088272
H68   H     H_    0.284610 0.600214 0.764460 0.234826
H69   H     H_    0.211429 0.048815 0.299818 0.179909
H70   H     H_    0.788571 0.048716 0.700131 0.179902
H71   H     H_    0.711437 0.552018 0.297996 0.179893
H72   H     H_    0.288564 0.552127 0.702067 0.179899
H73   H     H_    0.279604 0.027895 0.372762 0.122110
H74   H     H_    0.720396 0.027792 0.627209 0.122109
H75   H     H_    0.779616 0.531316 0.371668 0.121855
H76   H     H_    0.220384 0.531436 0.628369 0.121854
H77   H     H_    0.285583 0.973519 0.187053 0.245161
H78   H     H_    0.212309 0.898916 0.207578 0.267950
H79   H     H_    0.714417 0.973625 0.812978 0.245163
H80   H     H_    0.785571 0.469989 0.188045 0.245066
H81   H     H_    0.214428 0.469869 0.811913 0.245064
H82   H     H_    0.984177 0.162130 0.261041 0.144882
H83   H     H_    0.001831 0.133595 0.353554 0.127909
H84   H     H_    0.935009 0.171078 0.333970 0.268418
H85   H     H_    0.964233 0.232753 0.326779 0.211157
H86   H     H_    0.918625 0.200663 0.243045 0.254364
H87   H     H_    0.015825 0.162131 0.738964 0.144883
H88   H     H_    0.998168 0.133594 0.646450 0.127905
H89   H     H_    0.787690 0.898920 0.792537 0.267949
H90   H     H_    0.064991 0.171074 0.666030 0.268421
H91   H     H_    0.035765 0.232749 0.673214 0.211156
H92   H     H_    0.081374 0.200667 0.756951 0.254357
H93   H     H_    0.484200 0.662106 0.261128 0.144955
H94   H     H_    0.501795 0.633544 0.353600 0.127868
H95   H     H_    0.434940 0.671045 0.333885 0.268296
H96   H     H_    0.464212 0.732713 0.326819 0.211247
H97   H     H_    0.418625 0.700669 0.243012 0.254474
H98   H     H_    0.515780 0.662099 0.738861 0.144944
H99   H     H_    0.498199 0.633549 0.646391 0.127881
H100  H     H_    0.712320 0.398827 0.211298 0.268035
H101  H     H_    0.565057 0.671077 0.666138 0.268290
H102  H     H_    0.535775 0.732730 0.673201 0.211252
H103  H     H_    0.581359 0.700685 0.757011 0.254474
H104  H     H_    0.457434 0.169589 0.325929 0.153966
H105  H     H_    0.423772 0.237198 0.297863 0.135424
H106  H     H_    0.361572 0.171200 0.245165 0.240358
H107  H     H_    0.390877 0.150085 0.206357 0.211978
H108  H     H_    0.393833 0.102178 0.277792 0.264397
H109  H     H_    0.542598 0.169582 0.674096 0.153968
H110  H     H_    0.576253 0.237198 0.702136 0.135428
H111  H     H_    0.287677 0.398826 0.788564 0.268036
H112  H     H_    0.638456 0.171207 0.754788 0.240355
H113  H     H_    0.609176 0.150097 0.793647 0.211986
H114  H     H_    0.606198 0.102182 0.722197 0.264384
H115  H     H_    0.959015 0.670628 0.326248 0.153176
H116  H     H_    0.924625 0.737473 0.297091 0.135506
H117  H     H_    0.863010 0.669997 0.243312 0.240820
H118  H     H_    0.893182 0.650010 0.205858 0.211300
H119  H     H_    0.895994 0.601736 0.276908 0.265038
H120  H     H_    0.040975 0.670527 0.673727 0.153245
H121  H     H_    0.075298 0.737451 0.702880 0.135473
H122  H     H_    0.286936 0.053693 0.198627 0.121473
H123  H     H_    0.136984 0.670130 0.756737 0.240856
H124  H     H_    0.106809 0.650010 0.794145 0.211310
H125  H     H_    0.104076 0.601787 0.723130 0.264999
H126  H     H_    0.267484 0.138946 0.235605 0.167500
H127  H     H_    0.323476 0.121778 0.290408 0.158631
H128  H     H_    0.337194 0.210913 0.371917 0.276471
H129  H     H_    0.309612 0.233974 0.274923 0.202344
H130  H     H_    0.281602 0.227858 0.319300 0.253855
H131  H     H_    0.732515 0.138976 0.764249 0.167508
H132  H     H_    0.676523 0.121812 0.709461 0.158649
O1    O     O_R   0.999990 0.948250 0.091620 -0.620683
O2    O     O_R   0.965310 0.999930 0.556910 -0.637498
O3    O     O_R   0.534690 0.499930 0.443090 -0.637559
O4    O     O_R   0.465310 0.499930 0.556910 -0.637558
O5    O     O_R   0.965300 0.091560 0.465360 -0.620136
O6    O     O_R   0.034700 0.091560 0.534640 -0.620138
O7    O     O_R   0.465300 0.591560 0.465360 -0.620235
O8    O     O_R   0.534700 0.591560 0.534640 -0.620219
O9    O     O_R   0.999990 0.051750 0.091660 -0.625541
O10   O     O_R   0.000010 0.051750 0.908340 -0.625541
O11   O     O_R   0.499990 0.551750 0.091660 -0.625508
O12   O     O_R   0.000010 0.948250 0.908380 -0.620683
O13   O     O_R   0.500010 0.551750 0.908340 -0.625510
O14   O     O_R   0.061430 0.948250 0.061430 -0.612349
O15   O     O_R   0.938570 0.948250 0.938570 -0.612360
O16   O     O_R   0.561430 0.448250 0.061430 -0.611938
O17   O     O_R   0.438570 0.448250 0.938570 -0.611925
O18   O     O_R   0.061430 0.051750 0.061470 -0.613738
O19   O     O_R   0.938570 0.051750 0.938530 -0.613729
O20   O     O_R   0.561430 0.551750 0.061470 -0.613976
O21   O     O_R   0.438570 0.551750 0.938530 -0.613984
O22   O     O_R   0.500000 0.908530 0.551740 -0.595318
O23   O     O_R   0.499990 0.448250 0.091620 -0.620592
O24   O     O_R   0.500000 0.908530 0.448260 -0.595318
O25   O     O_R   1.000000 0.408530 0.551740 -0.595353
O26   O     O_R   0.000000 0.408530 0.448260 -0.595346
O27   O     O_R   0.438570 0.000200 0.490320 -0.602178
O28   O     O_R   0.561430 0.000200 0.509680 -0.602175
O29   O     O_R   0.938570 0.500200 0.490320 -0.602517
O30   O     O_R   0.061430 0.500200 0.509680 -0.602517
O31   O     O_R   0.438570 0.000170 0.386880 -0.631234
O32   O     O_R   0.561430 0.000170 0.613120 -0.631222
O33   O     O_R   0.938570 0.500170 0.386880 -0.631638
O34   O     O_R   0.500010 0.448250 0.908380 -0.620591
O35   O     O_R   0.061430 0.500170 0.613120 -0.631629
O36   O     O_R   0.500000 0.091870 0.551750 -0.631937
O37   O     O_R   0.500000 0.091870 0.448250 -0.631928
O38   O     O_R   0.000000 0.591870 0.551750 -0.631352
O39   O     O_R   0.000000 0.591870 0.448250 -0.631291
O40   O     O_R   0.965340 0.908230 0.465340 -0.630569
O41   O     O_R   0.034660 0.908230 0.534660 -0.630567
O42   O     O_R   0.465340 0.408230 0.465340 -0.630826
O43   O     O_R   0.534660 0.408230 0.534660 -0.630828
O44   O     O_3   0.950796 0.087143 0.263764 -0.600571
O45   O     O_R   0.965330 0.999890 0.373740 -0.580515
O46   O     O_3   0.049205 0.087143 0.736238 -0.600578
O47   O     O_3   0.450777 0.587126 0.263739 -0.600805
O48   O     O_3   0.549216 0.587133 0.736254 -0.600796
O49   O     O_3   0.430381 0.184983 0.385400 -0.614220
O50   O     O_3   0.569625 0.184982 0.614584 -0.614227
O51   O     O_3   0.930922 0.685002 0.384166 -0.613796
O52   O     O_3   0.069075 0.685009 0.615844 -0.613785
O53   O     O_3   0.294641 0.106948 0.345753 -0.579538
O54   O     O_3   0.705359 0.106891 0.654134 -0.579544
O55   O     O_3   0.794640 0.608773 0.341769 -0.579561
O56   O     O_R   0.034670 0.999890 0.626260 -0.580518
O57   O     O_3   0.205362 0.608836 0.658370 -0.579551
O58   O     O_3   0.210160 0.069464 0.119823 -0.673939
O59   O     O_3   0.789839 0.069564 0.880101 -0.673939
O60   O     O_3   0.710118 0.566125 0.117310 -0.673948
O61   O     O_3   0.289885 0.566005 0.882775 -0.673951
O62   O     O_R   0.465330 0.499890 0.373740 -0.580637
O63   O     O_R   0.534670 0.499890 0.626260 -0.580636
O64   O     O_R   0.034690 0.999930 0.443090 -0.637496
Zn1   Zn    Zn3+2 0.000000 0.930890 0.000000 0.979786
Zn2   Zn    Zn3+2 0.046310 0.999890 0.546280 0.987390
Zn3   Zn    Zn3+2 0.453690 0.499890 0.453720 0.986526
Zn4   Zn    Zn3+2 0.546310 0.499890 0.546280 0.986536
Zn5   Zn    Zn3+2 0.500000 0.430890 0.000000 0.980723
Zn6   Zn    Zn3+2 0.000000 0.069110 0.000000 0.972964
Zn7   Zn    Zn3+2 0.500000 0.569110 0.000000 0.972978
Zn8   Zn    Zn3+2 0.499990 0.000210 0.569090 1.011454
Zn9   Zn    Zn3+2 0.500010 0.000210 0.430910 1.011445
Zn10  Zn    Zn3+2 0.999990 0.500210 0.569090 1.010593
Zn11  Zn    Zn3+2 0.000010 0.500210 0.430910 1.010618
Zn12  Zn    Zn3+2 0.953690 0.999890 0.453720 0.987387

loop_
_geom_bond_atom_site_label_1
_geom_bond_atom_site_label_2
_ccdc_geom_bond_type
C133  H100  S    
C40   H119  S    
C30   H93   S    
O25   Zn10  S    
C18   C132  S    
C17   F1    S    
O34   Zn5   S    
C49   H9    S    
C14   C132  S    
C121  O7    A    
C12   C130  S    
C52   H18   S    
C53   H19   S    
C28   O46   S    
C54   O59   S    
C43   H126  S    
C58   H31   S    
C94   O19   A    
C105  C138  S    
C14   C151  S    
C116  O56   A    
C4    H73   S    
C91   C100  A    
C110  O30   A    
C51   H14   S    
O28   Zn9   S    
C83   C88   A    
C59   C60   S    
C44   H130  S    
C45   H131  S    
C102  C111  S    
O38   Zn10  S    
C41   H121  S    
C140  O50   S    
C43   O53   S    
C45   C47   S    
C5    H74   S    
C132  H57   S    
C12   C150  S    
C65   C99   S    
C6    O55   S    
O26   Zn11  S    
C141  C144  A    
C151  H70   S    
C145  H61   S    
C17   C21   S    
C103  C112  S    
C8    C35   T    
C55   H27   S    
C19   C23   S    
C43   C44   S    
C37   C38   S    
C12   C62   S    
C78   C82   A    
C87   O34   A    
C22   C109  S    
C133  H58   S    
O42   Zn3   S    
C72   H39   S    
C60   H38   S    
O7    Zn3   S    
C54   H23   S    
C105  O26   A    
C145  C148  A    
C124  C138  A    
O56   Zn2   S    
O41   Zn2   S    
O24   Zn9   S    
C122  C137  A    
C110  O35   A    
C69   C95   S    
C103  C143  A    
C114  O43   A    
C85   C90   A    
C120  H13   S    
C21   C35   S    
C125  C138  A    
C76   C100  S    
C4    C150  S    
C93   O14   A    
C139  O49   S    
C5    C151  S    
C118  O4    A    
C33   H102  S    
C31   H97   S    
C27   H85   S    
C28   H87   S    
C91   H49   S    
C18   F5    S    
C24   C131  S    
C66   C70   T    
C45   O54   S    
C79   O48   S    
C102  C139  A    
C29   H91   S    
C2    C14   S    
C109  H2    S    
C60   H36   S    
C84   H42   S    
C125  C127  A    
C36   H106  S    
C20   C134  S    
C24   F4    S    
C112  O39   A    
C87   O13   A    
C90   H48   S    
O32   Zn8   S    
C2    C109  S    
C10   C108  S    
C16   C134  S    
C113  O41   A    
C71   C97   A    
C40   H118  S    
O1    Zn1   S    
O15   Zn1   S    
C55   H25   S    
C113  C148  S    
C77   O46   S    
C123  F9    S    
C117  O3    A    
O19   Zn6   S    
O31   Zn9   S    
C50   O57   S    
C87   C101  S    
C39   H116  S    
O17   Zn5   S    
O40   Zn12  S    
C43   H127  S    
C31   H96   S    
C2    F2    S    
C20   H67   S    
C98   C142  S    
C11   C110  S    
C134  H111  S    
C51   H15   S    
C103  C141  A    
C140  C147  A    
C47   H5    S    
C152  H66   S    
O29   Zn10  S    
C150  H64   S    
C94   O15   A    
C39   C40   S    
C147  H63   S    
C1    O9    A    
C68   C94   S    
C50   H11   S    
C70   C96   S    
C48   O55   S    
C37   H110  S    
C119  O5    A    
C48   H7    S    
C60   H37   S    
C38   H113  S    
O36   Zn8   S    
C36   H108  S    
O35   Zn10  S    
C64   C69   T    
C142  O58   S    
O21   Zn7   S    
C90   C99   A    
C13   C120  S    
C52   C53   S    
C85   H43   S    
C124  C126  A    
C23   C57   S    
C54   C55   S    
O11   Zn7   S    
O14   Zn1   S    
C17   C130  S    
C30   H94   S    
C19   F6    S    
C11   C61   T    
C49   H8    S    
C9    C107  S    
C6    H75   S    
C123  C137  A    
C82   C117  S    
C47   H4    S    
C130  H78   S    
C151  H65   S    
C81   C116  S    
C58   H32   S    
C56   C58   S    
C34   C36   S    
C119  O6    A    
C107  O32   A    
C65   O10   A    
C26   H82   S    
C9    C46   T    
C7    H76   S    
C67   C93   S    
C88   H46   S    
C19   H56   S    
C81   C85   A    
C3    C16   S    
C74   H41   S    
C32   O48   S    
C73   C100  A    
C56   H28   S    
C139  C146  A    
C106  O27   A    
O39   Zn11  S    
C41   C42   S    
C80   C84   A    
C41   H120  S    
C112  O38   A    
C89   H47   S    
C76   O23   A    
C26   C27   S    
C1    O1    A    
C28   C29   S    
C147  C149  A    
C127  C135  A    
C3    C7    S    
C86   C91   A    
C128  C136  A    
C142  F12   S    
C30   C31   S    
C20   C25   S    
C56   O60   S    
C59   H34   S    
O10   Zn6   S    
C104  C137  S    
C15   C152  S    
C63   C68   T    
C15   C64   S    
C92   H50   S    
C42   H123  S    
C6    C152  S    
C13   O60   S    
C42   H125  S    
C18   C22   S    
C105  O25   A    
O37   Zn9   S    
C52   O58   S    
C49   H10   S    
C124  F10   S    
C121  O8    A    
C117  O62   A    
C18   H45   S    
C52   H17   S    
C53   H20   S    
C86   H44   S    
C146  H62   S    
C82   C86   A    
C58   H30   S    
C119  C135  S    
C4    O53   S    
C33   H101  S    
C78   O47   S    
O23   Zn5   S    
C32   H99   S    
C28   H88   S    
C65   O12   A    
C3    H72   S    
C146  C149  A    
C80   C115  S    
C77   C81   A    
C41   O52   S    
C50   C51   S    
C102  C140  A    
C29   H90   S    
C132  H89   S    
C48   H6    S    
O2    Zn12  S    
C48   C49   S    
C22   C46   S    
C126  C135  A    
C44   H129  S    
C45   H132  S    
C75   O44   S    
C16   C66   S    
O16   Zn5   S    
C26   H83   S    
C24   O61   S    
O18   Zn6   S    
O45   Zn12  S    
C8    C106  S    
C96   O21   A    
C95   O20   A    
C71   H35   S    
O30   Zn11  S    
C19   C133  S    
C150  H69   S    
C7    C25   S    
C104  O22   A    
C32   C33   S    
C17   H1    S    
C27   H84   S    
C79   C83   A    
C21   C98   S    
C14   C63   S    
O6    Zn2   S    
C39   O51   S    
C12   C142  S    
O3    Zn4   S    
C121  C136  S    
C122  C128  A    
C130  H55   S    
C39   H115  S    
O27   Zn8   S    
C115  O45   A    
C134  H59   S    
C54   H22   S    
C108  O29   A    
C31   H95   S    
C114  C149  S    
C128  H53   S    
O9    Zn6   S    
C111  O37   A    
C144  C148  A    
C114  O42   A    
O64   Zn2   S    
C152  H71   S    
C129  H54   S    
C62   C67   T    
C33   H103  S    
C83   C118  S    
C34   H104  S    
C107  O28   A    
C27   H86   S    
C2    O59   S    
C127  H52   S    
C109  H79   S    
O43   Zn4   S    
C50   H12   S    
C120  H80   S    
C29   H92   S    
C53   H21   S    
C13   F3    S    
C98   H77   S    
C26   O44   S    
C131  H81   S    
C37   H109  S    
C38   H114  S    
C5    C22   S    
C88   C92   A    
C106  O31   A    
C20   F7    S    
C73   C78   A    
C34   H105  S    
C108  O33   A    
C7    O57   S    
C75   C80   A    
C76   O11   A    
C131  H24   S    
O13   Zn7   S    
C74   C101  A    
C34   O49   S    
C116  O2    A    
C16   C24   S    
C123  C129  A    
C115  O64   A    
C125  F11   S    
C5    O54   S    
C73   H40   S    
C40   H117  S    
C104  O24   A    
C55   H26   S    
C10   C57   T    
C143  O52   S    
C1    C97   S    
C23   C120  S    
C25   C61   S    
C30   O47   S    
C89   C97   A    
C111  O36   A    
C72   C77   A    
C129  C136  A    
C47   H3    S    
C93   O18   A    
O62   Zn3   S    
C141  O51   S    
C32   H98   S    
O63   Zn4   S    
C37   O50   S    
C92   C101  A    
O12   Zn1   S    
C13   C15   S    
C84   C89   A    
C51   H16   S    
C25   C131  S    
C113  O40   A    
O4    Zn3   S    
C143  C145  A    
C44   H128  S    
C3    H68   S    
C15   C133  S    
O33   Zn11  S    
C118  O63   A    
C74   C79   A    
O20   Zn7   S    
C71   C75   A    
C4    C21   S    
O5    Zn12  S    
C38   H112  S    
O8    Zn4   S    
C59   H33   S    
C6    C23   S    
C36   H107  S    
C95   O16   A    
C144  H60   S    
C126  H51   S    
C56   H29   S    
C59   O61   S    
O22   Zn8   S    
C122  F8    S    
C96   O17   A    
C72   C99   A    
C42   H124  S    
C98   H122  S    
