data_mof_unit_51047.cif
_audit_creation_date              2012-12-10T18:28:24-0500
_audit_creation_method            fapswitch 2.2
_symmetry_space_group_name_H-M    P1
_symmetry_Int_Tables_number       1
_space_group_crystal_system       triclinic
_cell_length_a                    22.957269
_cell_length_b                    21.658575
_cell_length_c                    14.923765
_cell_angle_alpha                 90.851785
_cell_angle_beta                  99.441716
_cell_angle_gamma                 89.791867
_cell_volume                      7319.0815091

loop_
_atom_site_label
_atom_site_type_symbol
_atom_type_description
_atom_site_fract_x
_atom_site_fract_y
_atom_site_fract_z
_atom_type_partial_charge
C1    C     C_R   0.574600 0.088710 0.552907 0.896944
C2    C     C_R   0.426808 0.910619 0.447916 0.991003
C3    C     C_R   0.423454 0.085299 0.445849 0.985193
C4    C     C_R   0.575628 0.912847 0.554382 0.949744
C5    C     C_R   0.076032 0.585992 0.554652 0.992895
C6    C     C_R   0.928073 0.409825 0.448588 1.002950
C7    C     C_R   0.924505 0.586782 0.447057 0.991530
C8    C     C_R   0.073817 0.411466 0.551938 1.012509
C9    C     C_R   0.249832 0.232458 0.672551 0.464721
C10   C     C_R   0.729281 0.747401 0.346951 0.402166
C11   C     C_R   0.793422 0.190274 0.353358 0.366029
C12   C     C_R   0.294081 0.707280 0.656353 0.410509
C13   C     C_R   0.767917 0.754406 0.690970 0.422529
C14   C     C_R   0.223200 0.236497 0.331489 0.445504
C15   C     C_R   0.228802 0.760245 0.325682 0.421339
C16   C     C_R   0.780638 0.233256 0.677113 0.398172
C17   C     C_R   0.615877 0.018792 0.177827 0.246713
C18   C     C_R   0.369844 0.974064 0.796650 0.293807
C19   C     C_R   0.126236 0.502834 0.190625 0.292250
C20   C     C_R   0.872894 0.503193 0.807946 0.281976
C21   C     C_R   0.606270 0.002985 0.265949 0.420207
C22   C     C_R   0.389827 0.990209 0.714066 0.449064
C23   C     C_R   0.108366 0.508822 0.276815 0.446928
C24   C     C_R   0.891360 0.508395 0.722253 0.439226
C25   C     C_R   0.503816 0.997215 0.213403 0.132298
C26   C     C_R   0.485913 0.010776 0.796720 0.025469
C27   C     C_R   0.009132 0.486908 0.208534 0.074881
C28   C     C_R   0.990333 0.486005 0.791219 0.070607
C29   C     C_R   0.513449 0.012592 0.126056 -0.050249
C30   C     C_R   0.463624 0.001712 0.877989 -0.136533
C31   C     C_R   0.027409 0.471852 0.124072 -0.077246
C32   C     C_R   0.971645 0.471782 0.874969 -0.062967
C33   C     C_R   0.567050 0.041833 0.121384 -0.268163
C34   C     C_R   0.412572 0.966888 0.873359 -0.203186
C35   C     C_R   0.088289 0.472980 0.120683 -0.240223
C36   C     C_R   0.910727 0.474454 0.878302 -0.236491
C37   C     C_R   0.476784 0.996845 0.043361 0.019994
C38   C     C_R   0.490708 0.023910 0.963030 -0.142146
C39   C     C_R   0.988009 0.459965 0.041298 -0.041092
C40   C     C_R   0.010879 0.459260 0.957373 -0.033909
C41   C     C_R   0.529221 0.075165 0.971252 0.396181
C42   C     C_R   0.433306 0.949736 0.035673 0.412611
C43   C     C_R   0.071458 0.445654 0.960453 0.407982
C44   C     C_R   0.927244 0.448319 0.038031 0.402607
C45   C     C_R   0.571752 0.080641 0.048826 0.476756
C46   C     C_R   0.403062 0.932760 0.949014 0.363891
C47   C     C_R   0.109259 0.447457 0.044503 0.358545
C48   C     C_R   0.889470 0.450403 0.954183 0.374511
C49   C     C_R   0.620704 0.865983 0.592237 -0.239982
C50   C     C_R   0.375053 0.127483 0.411172 -0.215280
C51   C     C_R   0.384433 0.860104 0.418011 -0.216583
C52   C     C_R   0.620590 0.136819 0.584256 -0.320701
C53   C     C_R   0.114571 0.360083 0.581267 -0.194720
C54   C     C_R   0.878704 0.632969 0.415942 -0.212855
C55   C     C_R   0.895127 0.351792 0.423175 -0.209193
C56   C     C_R   0.125300 0.627015 0.591881 -0.208110
C57   C     C_R   0.670193 0.798170 0.711330 -0.142662
C58   C     C_R   0.296056 0.162486 0.295269 -0.173366
C59   C     C_R   0.322245 0.806203 0.295246 -0.144135
C60   C     C_R   0.690952 0.182964 0.705946 -0.125015
C61   C     C_R   0.155465 0.283450 0.691553 -0.143241
C62   C     C_R   0.799856 0.672695 0.304747 -0.170511
C63   C     C_R   0.871088 0.262038 0.325056 -0.152217
C64   C     C_R   0.214216 0.646992 0.698927 -0.165851
C65   C     C_R   0.619159 0.831454 0.672991 0.363435
C66   C     C_R   0.342019 0.121721 0.322424 0.289450
C67   C     C_R   0.376945 0.833604 0.329512 0.359739
C68   C     C_R   0.636666 0.155170 0.676393 0.311574
C69   C     C_R   0.107803 0.321049 0.654424 0.383099
C70   C     C_R   0.845262 0.630520 0.327658 0.269804
C71   C     C_R   0.909511 0.310442 0.355217 0.363791
C72   C     C_R   0.161001 0.616058 0.676781 0.264036
C73   C     C_R   0.670972 0.859337 0.551893 0.406814
C74   C     C_R   0.358752 0.172010 0.471592 0.390089
C75   C     C_R   0.347302 0.839877 0.478290 0.402929
C76   C     C_R   0.655236 0.159559 0.520881 0.391759
C77   C     C_R   0.161107 0.348191 0.533264 0.385559
C78   C     C_R   0.865622 0.678049 0.479005 0.423387
C79   C     C_R   0.850098 0.334931 0.471858 0.389114
C80   C     C_R   0.141048 0.673509 0.535909 0.416751
C81   C     C_R   0.706664 0.807441 0.571073 -0.097410
C82   C     C_R   0.303514 0.202088 0.450250 -0.037659
C83   C     C_R   0.303824 0.795414 0.448431 -0.070941
C84   C     C_R   0.711164 0.186786 0.551801 0.014330
C85   C     C_R   0.196844 0.296472 0.555029 -0.070900
C86   C     C_R   0.811492 0.711274 0.461838 -0.038510
C87   C     C_R   0.823362 0.276416 0.456475 -0.050039
C88   C     C_R   0.199680 0.697099 0.550959 -0.028992
C89   C     C_R   0.715256 0.786248 0.659580 -0.081447
C90   C     C_R   0.274763 0.201392 0.357938 -0.101347
C91   C     C_R   0.283897 0.788497 0.354905 -0.089886
C92   C     C_R   0.728159 0.200070 0.645808 -0.126955
C93   C     C_R   0.201707 0.271667 0.642275 -0.103106
C94   C     C_R   0.780558 0.711199 0.370397 -0.093121
C95   C     C_R   0.828290 0.243412 0.376086 -0.082170
C96   C     C_R   0.235980 0.684265 0.636184 -0.094238
C97   C     C_R   0.735225 0.779134 0.505201 -0.004822
C98   C     C_R   0.274147 0.229326 0.517787 0.010927
C99   C     C_R   0.280245 0.758119 0.509961 0.012838
C100  C     C_R   0.749852 0.204317 0.491514 0.074391
C101  C     C_R   0.225015 0.267129 0.489588 -0.003605
C102  C     C_R   0.785045 0.741394 0.531824 0.029469
C103  C     C_R   0.792896 0.249449 0.520464 -0.010616
C104  C     C_R   0.224619 0.730178 0.483821 0.035691
C105  C     C_R   0.287562 0.214825 0.611375 -0.199916
C106  C     C_R   0.708585 0.781663 0.414042 -0.199357
C107  C     C_R   0.751376 0.174168 0.407631 -0.175046
C108  C     C_R   0.314967 0.743676 0.593507 -0.238225
C109  C     C_R   0.802755 0.732584 0.627132 -0.195777
C110  C     C_R   0.199794 0.269425 0.397171 -0.193169
C111  C     C_R   0.198964 0.733154 0.390400 -0.197586
C112  C     C_R   0.809970 0.260951 0.613910 -0.237920
H1    H     H_    0.672143 0.777889 0.777457 0.245774
H2    H     H_    0.274287 0.159821 0.225628 0.252635
H3    H     H_    0.313555 0.791751 0.224794 0.243232
H4    H     H_    0.702828 0.192656 0.777584 0.254446
H5    H     H_    0.152602 0.258389 0.752720 0.248909
H6    H     H_    0.777465 0.672157 0.235440 0.258409
H7    H     H_    0.878562 0.236373 0.265547 0.251420
H8    H     H_    0.239986 0.638653 0.764610 0.262062
H9    H     H_    0.324130 0.185517 0.636734 0.266587
H10   H     H_    0.666797 0.804743 0.396675 0.218244
H11   H     H_    0.724576 0.133793 0.389407 0.199993
H12   H     H_    0.360497 0.758390 0.608231 0.229511
H13   H     H_    0.841436 0.706543 0.653744 0.267173
H14   H     H_    0.158211 0.292799 0.376448 0.257667
H15   H     H_    0.157704 0.711224 0.364432 0.270466
H16   H     H_    0.848782 0.288460 0.637970 0.229651
H17   H     H_    0.530883 0.023882 0.797781 0.246428
H18   H     H_    0.460813 0.986005 0.227298 0.275329
H19   H     H_    0.035717 0.484979 0.783179 0.275936
H20   H     H_    0.963750 0.487326 0.217083 0.271171
N1    N     N_R   0.549130 0.000000 0.284090 -0.185998
N2    N     N_R   0.450870 0.000000 0.715910 -0.172995
N3    N     N_R   0.049130 0.500000 0.284090 -0.195414
N4    N     N_R   0.950870 0.500000 0.715910 -0.198065
O1    O     O_R   0.541320 0.066090 0.608930 -0.560178
O2    O     O_R   0.458680 0.933910 0.391070 -0.574075
O3    O     O_R   0.458680 0.066090 0.391070 -0.603395
O4    O     O_R   0.541320 0.933910 0.608930 -0.576605
O5    O     O_R   0.041320 0.566090 0.608930 -0.571737
O6    O     O_R   0.958680 0.433910 0.391070 -0.583530
O7    O     O_R   0.958680 0.566090 0.391070 -0.575035
O8    O     O_R   0.041320 0.433910 0.608930 -0.589536
O9    O     O_R   0.572880 0.066110 0.470280 -0.564425
O10   O     O_R   0.427120 0.933890 0.529720 -0.507555
O11   O     O_R   0.427120 0.066110 0.529720 -0.520640
O12   O     O_R   0.572880 0.933890 0.470280 -0.513997
O13   O     O_R   0.072880 0.566110 0.470280 -0.535608
O14   O     O_R   0.927120 0.433890 0.529720 -0.517156
O15   O     O_R   0.927120 0.566110 0.529720 -0.531095
O16   O     O_R   0.072880 0.433890 0.470280 -0.505966
Zn1   Zn    Zn3+2 0.478910 0.000000 0.592580 1.140623
Zn2   Zn    Zn3+2 0.521090 0.000000 0.407420 1.113943
Zn3   Zn    Zn3+2 0.978910 0.500000 0.592580 1.135815
Zn4   Zn    Zn3+2 0.021090 0.500000 0.407420 1.141582
S1    S     S_3+6 0.265418 0.206807 0.786148 0.087194
O17   O     O_2   0.268510 0.261683 0.849582 -0.258410
O18   O     O_2   0.216778 0.164743 0.803879 -0.241553
O19   O     O_3   0.330117 0.168545 0.804987 -0.507134
H21   H     H_    0.332036 0.150361 0.865920 0.405515
S2    S     S_3+6 0.686525 0.747593 0.236075 0.103532
O20   O     O_2   0.724232 0.768921 0.169228 -0.217082
O21   O     O_2   0.665265 0.683197 0.209997 -0.236999
O22   O     O_3   0.627700 0.794751 0.230840 -0.460732
H22   H     H_    0.597985 0.770899 0.257056 0.373859
S3    S     S_3+6 0.804051 0.140838 0.262168 0.124806
O23   O     O_2   0.783774 0.172140 0.173242 -0.199387
O24   O     O_2   0.868280 0.124328 0.269185 -0.192914
O25   O     O_3   0.766270 0.075703 0.266598 -0.434640
H23   H     H_    0.724340 0.088081 0.252421 0.376424
S4    S     S_3+6 0.343535 0.689775 0.757699 0.101817
O26   O     O_2   0.317690 0.712203 0.838519 -0.197710
O27   O     O_2   0.352071 0.621018 0.764030 -0.256704
O28   O     O_3   0.409646 0.723735 0.760244 -0.433431
H24   H     H_    0.430692 0.697328 0.721158 0.381058
S5    S     S_3+6 0.796246 0.752930 0.808808 0.089558
O29   O     O_2   0.796812 0.817727 0.846411 -0.225680
O30   O     O_2   0.757450 0.713898 0.857036 -0.226529
O31   O     O_3   0.865550 0.724841 0.826790 -0.493357
H25   H     H_    0.875642 0.720472 0.893515 0.410170
S6    S     S_3+6 0.184503 0.238460 0.218164 0.102206
O32   O     O_2   0.226257 0.256893 0.155560 -0.238675
O33   O     O_2   0.160353 0.175251 0.191176 -0.221742
O34   O     O_3   0.128225 0.289206 0.209109 -0.511656
H26   H     H_    0.108329 0.285557 0.145144 0.415635
S7    S     S_3+6 0.193159 0.764719 0.211109 0.086704
O35   O     O_2   0.190862 0.831145 0.182976 -0.221631
O36   O     O_2   0.227347 0.728309 0.150620 -0.234456
O37   O     O_3   0.123945 0.736919 0.199502 -0.497130
H27   H     H_    0.109192 0.737121 0.133301 0.409912
S8    S     S_3+6 0.810936 0.241282 0.793988 0.112191
O38   O     O_2   0.767593 0.274474 0.842797 -0.195800
O39   O     O_2   0.822191 0.178294 0.834257 -0.223863
O40   O     O_3   0.874605 0.281265 0.808839 -0.487066
H28   H     H_    0.904318 0.252142 0.791374 0.377990
O41   O     O_3   0.522973 0.121866 0.908924 -0.602188
H29   H     H_    0.482034 0.121089 0.875078 0.367744
O42   O     O_3   0.423566 0.918452 0.111461 -0.695476
H30   H     H_    0.382649 0.902498 0.101527 0.401450
O43   O     O_3   0.091477 0.423949 0.883714 -0.672129
H31   H     H_    0.133619 0.434947 0.887580 0.404077
O44   O     O_3   0.906897 0.427531 0.114091 -0.680500
H32   H     H_    0.865220 0.440386 0.111188 0.398413
O45   O     O_3   0.399328 0.187548 0.547526 -0.753237
H33   H     H_    0.392810 0.231366 0.563467 0.344646
O46   O     O_3   0.694174 0.910871 0.518893 -0.646791
H34   H     H_    0.734617 0.901982 0.506624 0.371155
O47   O     O_3   0.632575 0.161797 0.429303 -0.733470
H35   H     H_    0.589352 0.168630 0.422654 0.355479
O48   O     O_3   0.352875 0.864529 0.565351 -0.681497
H36   H     H_    0.314095 0.862682 0.586186 0.379459
O49   O     O_3   0.908471 0.690929 0.553055 -0.723587
H37   H     H_    0.906499 0.735779 0.566695 0.344986
O50   O     O_3   0.170816 0.386275 0.463968 -0.673775
H38   H     H_    0.213249 0.384535 0.458192 0.366354
O51   O     O_3   0.096900 0.696854 0.471401 -0.731069
H39   H     H_    0.103562 0.741961 0.468612 0.347308
O52   O     O_3   0.831966 0.376356 0.532903 -0.679904
H40   H     H_    0.789815 0.368696 0.536184 0.365448
S9    S     S_3+6 0.354319 0.064724 0.241619 0.047342
O53   O     O_2   0.368072 0.003750 0.286842 -0.292062
O54   O     O_2   0.300688 0.056703 0.169635 -0.211033
O55   O     O_3   0.410773 0.088314 0.192034 -0.573305
H41   H     H_    0.396046 0.125741 0.158169 0.374528
S10   S     S_3+6 0.556757 0.827689 0.728672 0.093935
O56   O     O_2   0.500830 0.824836 0.660361 -0.271162
O57   O     O_2   0.560617 0.771060 0.786459 -0.222623
O58   O     O_3   0.555738 0.890523 0.795750 -0.508746
H42   H     H_    0.525277 0.881676 0.833746 0.395937
S11   S     S_3+6 0.591814 0.149090 0.760451 0.093672
O59   O     O_2   0.610290 0.091059 0.811078 -0.227421
O60   O     O_2   0.603694 0.202886 0.825650 -0.199392
O61   O     O_3   0.519129 0.148673 0.718776 -0.498587
H43   H     H_    0.512036 0.187469 0.684339 0.372101
S12   S     S_3+6 0.438553 0.809329 0.279359 0.081914
O62   O     O_2   0.473210 0.763903 0.342232 -0.278950
O63   O     O_2   0.417392 0.777495 0.189798 -0.224229
O64   O     O_3   0.484109 0.866784 0.262590 -0.499095
H44   H     H_    0.512906 0.847815 0.227766 0.408741
S13   S     S_3+6 0.857445 0.575835 0.242816 0.053350
O65   O     O_2   0.864185 0.512293 0.282301 -0.288118
O66   O     O_2   0.806735 0.574969 0.164953 -0.202858
O67   O     O_3   0.919271 0.595297 0.203363 -0.546642
H45   H     H_    0.910865 0.636520 0.176339 0.377735
S14   S     S_3+6 0.037542 0.305155 0.683520 0.078628
O68   O     O_2   0.991464 0.306750 0.599476 -0.324809
O69   O     O_2   0.037853 0.242105 0.724410 -0.238091
O70   O     O_3   0.020237 0.357246 0.758834 -0.482044
H46   H     H_    0.979315 0.347030 0.766393 0.385076
S15   S     S_3+6 0.141911 0.564582 0.758530 0.049200
O71   O     O_2   0.131393 0.501388 0.716488 -0.299469
O72   O     O_2   0.190154 0.560068 0.839555 -0.207504
O73   O     O_3   0.080305 0.590732 0.793704 -0.545189
H47   H     H_    0.091188 0.631700 0.821724 0.381253
S16   S     S_3+6 0.979176 0.308142 0.318458 0.097790
O74   O     O_2   0.027355 0.322687 0.396522 -0.303104
O75   O     O_2   0.990011 0.244693 0.282213 -0.213986
O76   O     O_3   0.980712 0.359008 0.235632 -0.486500
H48   H     H_    0.018137 0.350393 0.212874 0.391190
S17   S     S_3+6 0.624879 0.140536 0.060289 0.153109
O77   O     O_2   0.648526 0.152469 0.158912 -0.323887
O78   O     O_2   0.674533 0.122058 0.011220 -0.142433
O79   O     O_3   0.593784 0.205908 0.015437 -0.430443
H49   H     H_    0.626376 0.236351 0.022507 0.404522
S18   S     S_3+6 0.367558 0.859623 0.931602 0.138209
O80   O     O_2   0.308771 0.861972 0.963488 -0.200041
O81   O     O_2   0.358853 0.841256 0.832794 -0.203321
O82   O     O_3   0.410466 0.806569 0.991704 -0.451667
H50   H     H_    0.385767 0.768953 0.988326 0.432949
S19   S     S_3+6 0.177129 0.405884 0.057542 0.121868
O83   O     O_2   0.222291 0.441960 0.017706 -0.196204
O84   O     O_2   0.199735 0.393751 0.156030 -0.197282
O85   O     O_3   0.165667 0.337952 0.001325 -0.487545
H51   H     H_    0.205344 0.323746 0.992126 0.426074
S20   S     S_3+6 0.821906 0.408863 0.940396 0.149848
O86   O     O_2   0.776515 0.445453 0.980719 -0.217052
O87   O     O_2   0.799721 0.395812 0.841553 -0.178501
O88   O     O_3   0.833774 0.341552 0.995445 -0.438727
H52   H     H_    0.795475 0.330785 0.013496 0.406037
S21   S     S_3+6 0.332093 0.008187 0.618501 0.124339
O89   O     O_2   0.277760 0.971190 0.624458 -0.239279
O90   O     O_2   0.317603 0.075074 0.629203 -0.269494
O91   O     O_3   0.340830 0.997733 0.510183 -0.530946
H53   H     H_    0.304844 0.015207 0.473410 0.375957
S22   S     S_3+6 0.663655 0.973649 0.344184 0.110447
O92   O     O_2   0.646358 0.908068 0.355167 -0.236410
O93   O     O_2   0.722585 0.973535 0.313212 -0.223462
O94   O     O_3   0.669176 0.014136 0.442073 -0.495707
H54   H     H_    0.709086 0.032748 0.451925 0.366917
S23   S     S_3+6 0.834371 0.526830 0.627679 0.111647
O95   O     O_2   0.775502 0.506419 0.647874 -0.237859
O96   O     O_2   0.833148 0.595455 0.617677 -0.305177
O97   O     O_3   0.838622 0.496449 0.525395 -0.488444
H55   H     H_    0.805989 0.515746 0.483281 0.374113
S24   S     S_3+6 0.165347 0.529788 0.370312 0.106088
O98   O     O_2   0.224418 0.509571 0.349678 -0.241358
O99   O     O_2   0.165260 0.598632 0.379425 -0.305472
O100  O     O_3   0.161448 0.501499 0.472730 -0.499692
H56   H     H_    0.195230 0.520055 0.514111 0.368419
S25   S     S_3+6 0.666154 0.977146 0.119035 0.150115
O101  O     O_2   0.638567 0.967274 0.021294 -0.251347
O102  O     O_2   0.722494 0.012297 0.120929 -0.150973
O103  O     O_3   0.681353 0.907208 0.164387 -0.409717
H57   H     H_    0.714074 0.891055 0.135003 0.422452
S26   S     S_3+6 0.294630 0.981250 0.816819 0.149458
O104  O     O_2   0.260753 0.923917 0.782996 -0.186155
O105  O     O_2   0.292757 0.989450 0.916537 -0.236419
O106  O     O_3   0.260606 0.043068 0.765208 -0.427495
H58   H     H_    0.218105 0.036784 0.767045 0.413773
S27   S     S_3+6 0.184736 0.548750 0.159677 0.167006
O107  O     O_2   0.242665 0.514950 0.178898 -0.159884
O108  O     O_2   0.172062 0.563197 0.060137 -0.210580
O109  O     O_3   0.190667 0.616191 0.217139 -0.453956
H59   H     H_    0.233079 0.620428 0.242977 0.403911
S28   S     S_3+6 0.812679 0.548211 0.837430 0.166663
O110  O     O_2   0.755883 0.512386 0.819476 -0.158906
O111  O     O_2   0.824916 0.566439 0.936328 -0.211766
O112  O     O_3   0.804067 0.613101 0.777083 -0.458331
H60   H     H_    0.761830 0.614260 0.749193 0.403526

loop_
_geom_bond_atom_site_label_1
_geom_bond_atom_site_label_2
_ccdc_geom_bond_type
S1    O17   D    
C33   C45   A    
S23   O95   D    
C53   C69   A    
C79   C87   A    
C12   S4    S    
S25   O101  D    
S21   O91   S    
C16   C112  A    
O91   H53   S    
C10   C94   A    
S19   O83   D    
C4    O12   A    
S16   O76   S    
C29   C33   A    
C5    O13   A    
O67   H45   S    
C18   S26   S    
O85   H51   S    
C19   S27   S    
C37   C42   A    
S6    O32   D    
C14   C90   A    
C40   C43   A    
O16   Zn4   S    
C56   C72   A    
C43   O43   S    
C44   O44   S    
O15   Zn3   S    
C25   N1    A    
C68   S11   S    
O2    Zn2   S    
C35   C47   A    
O42   H30   S    
C10   S2    S    
C11   S3    S    
C82   C98   A    
C108  H12   S    
C21   N1    A    
C14   S6    S    
S2    O21   D    
C25   C29   A    
C27   C31   A    
C2    O2    A    
S8    O40   S    
C28   C32   A    
C12   C108  A    
O3    Zn2   S    
O109  H59   S    
C17   C21   A    
S28   O110  D    
S6    O34   S    
C19   C23   A    
O50   H38   S    
C37   C38   A    
S2    O22   S    
C79   O52   S    
O28   H24   S    
C54   C70   A    
S26   O104  D    
O1    Zn1   S    
C59   C91   A    
C87   C103  A    
S24   O98   D    
C63   C71   A    
S1    O19   S    
C49   C73   A    
C23   S24   S    
C80   O51   S    
S25   O103  S    
S22   O94   S    
C20   S28   S    
C83   C91   A    
C64   H8    S    
C4    C49   S    
C80   C88   A    
C19   C35   A    
S22   O93   D    
S11   O61   S    
O11   Zn1   S    
C24   S23   S    
C15   C91   A    
O40   H28   S    
C41   C45   A    
C102  C109  A    
O6    Zn4   S    
C43   C47   A    
C55   C71   A    
C44   C48   A    
C3    O11   A    
O37   H27   S    
C1    O9    A    
C103  C112  A    
C7    O7    A    
S3    O24   D    
C99   C108  A    
C30   C38   A    
O70   H46   S    
S28   O112  S    
C32   C36   A    
C8    O16   A    
C50   C74   A    
S17   O77   D    
N2    Zn1   S    
O25   H23   S    
C9    C105  A    
S12   O62   D    
S13   O65   D    
C13   C109  A    
C59   C67   A    
C85   C93   A    
S24   O100  S    
O79   H49   S    
S5    O30   D    
C87   C95   A    
C34   C46   A    
C21   S22   S    
C24   N4    A    
C77   C85   A    
C27   H20   S    
C25   H18   S    
C88   C104  A    
C3    C50   S    
S4    O27   D    
O94   H54   S    
C60   C92   A    
C67   S12   S    
C62   H6    S    
C30   C34   A    
N1    Zn2   S    
C64   C96   A    
C38   C41   A    
C41   O41   S    
C39   C40   A    
N4    Zn3   S    
S15   O73   S    
C57   H1    S    
O51   H39   S    
N3    Zn4   S    
S8    O39   D    
S9    O53   D    
C26   N2    A    
C63   H7    S    
C45   S17   S    
C106  H10   S    
O47   H35   S    
C17   C33   A    
C51   C67   A    
S18   O81   D    
C110  H14   S    
O9    Zn2   S    
C48   S20   S    
C26   C30   A    
O14   Zn3   S    
S27   O108  D    
C60   H4    S    
C3    O3    A    
C86   C102  A    
C1    O1    A    
C14   C110  A    
S14   O68   D    
C18   C22   A    
C52   C76   A    
S18   O82   S    
C8    C53   S    
S17   O79   S    
S4    O28   S    
C39   C44   A    
S21   O90   D    
C56   C80   A    
S12   O64   S    
S13   O67   S    
C27   N3    A    
C111  H15   S    
C18   C34   A    
C36   C48   A    
C72   S15   S    
O41   H29   S    
S6    O33   D    
C10   C106  A    
C47   S19   S    
S20   O86   D    
S10   O56   D    
C58   H2    S    
C84   C92   A    
C74   O45   S    
S19   O85   S    
C88   C96   A    
C5    C56   S    
O64   H44   S    
C107  H11   S    
C6    C55   S    
S27   O107  D    
O55   H41   S    
C76   C84   A    
S15   O71   D    
O49   H37   S    
C75   O48   S    
C57   C89   A    
C42   O42   S    
S9    O55   S    
C70   S13   S    
O97   H55   S    
C61   C93   A    
C11   C95   A    
C63   C95   A    
S28   O111  D    
C42   C46   A    
C73   C81   A    
S7    O37   S    
S26   O105  D    
O88   H52   S    
C6    O6    A    
C97   C102  A    
O4    Zn1   S    
C81   C89   A    
S24   O99   D    
C99   C104  A    
C73   O46   S    
S1    O18   D    
C83   C99   A    
O82   H50   S    
O12   Zn2   S    
C74   C82   A    
C66   S9    S    
C78   O49   S    
S25   O102  D    
S26   O106  S    
C61   H5    S    
O46   H34   S    
S3    O23   D    
O5    Zn3   S    
O106  H58   S    
C100  C103  A    
C84   C100  A    
C53   C77   A    
O100  H56   S    
O73   H47   S    
C55   C79   A    
O48   H36   S    
S20   O88   S    
C9    S1    S    
C46   S18   S    
S11   O60   D    
C58   C90   A    
C26   H17   S    
C7    O15   A    
C97   C106  A    
C17   S25   S    
C16   C92   A    
C62   C94   A    
C31   C35   A    
O61   H43   S    
O52   H40   S    
O31   H25   S    
C77   O50   S    
S2    O20   D    
S23   O96   D    
C28   N4    A    
C57   C65   A    
C98   C101  A    
C82   C90   A    
C23   N3    A    
C101  C110  A    
S7    O35   D    
S8    O38   D    
C75   C83   A    
O34   H26   S    
O10   Zn1   S    
C13   S5    S    
S12   O63   D    
C65   S10   S    
C1    C52   S    
C112  H16   S    
C2    C51   S    
O112  H60   S    
C6    O14   A    
C69   S14   S    
C60   C68   A    
S5    O29   D    
C29   C37   A    
C12   C96   A    
C7    C54   S    
C54   C78   A    
C76   O47   S    
O44   H32   S    
O22   H22   S    
O43   H31   S    
O45   H33   S    
O58   H42   S    
C98   C105  A    
C49   C65   A    
C22   N2    A    
O13   Zn4   S    
C51   C75   A    
S22   O92   D    
S15   O72   D    
C86   C94   A    
C58   C66   A    
C20   C24   A    
C16   S8    S    
C52   C68   A    
C78   C86   A    
C32   C40   A    
C62   C70   A    
S3    O25   S    
S14   O69   D    
C15   C111  A    
S23   O97   S    
S17   O78   D    
C20   C36   A    
S21   O89   D    
C15   S7    S    
S16   O75   D    
S13   O66   D    
C4    O4    A    
C5    O5    A    
S5    O31   S    
S16   O74   D    
C105  H9    S    
C8    O8    A    
C50   C66   A    
C109  H13   S    
O103  H57   S    
S20   O87   D    
S10   O57   D    
C11   C107  A    
O76   H48   S    
C9    C93   A    
C85   C101  A    
S4    O26   D    
C61   C69   A    
S19   O84   D    
C100  C107  A    
C13   C89   A    
C22   S21   S    
C104  C111  A    
C2    O10   A    
S10   O58   S    
C28   H19   S    
O19   H21   S    
O8    Zn3   S    
S9    O54   D    
O7    Zn4   S    
C81   C97   A    
C31   C39   A    
C64   C72   A    
C71   S16   S    
S7    O36   D    
S18   O80   D    
C59   H3    S    
S27   O109  S    
S11   O59   D    
S14   O70   S    
