data_mof_unit_55914.cif
_audit_creation_date              2012-12-10T17:18:58-0500
_audit_creation_method            fapswitch 2.2
_symmetry_space_group_name_H-M    P1
_symmetry_Int_Tables_number       1
_space_group_crystal_system       triclinic
_cell_length_a                    10.183265
_cell_length_b                    10.837379
_cell_length_c                    13.647552
_cell_angle_alpha                 92.020387
_cell_angle_beta                  100.529385
_cell_angle_gamma                 95.955697
_cell_volume                      1470.52298005

loop_
_atom_site_label
_atom_site_type_symbol
_atom_type_description
_atom_site_fract_x
_atom_site_fract_y
_atom_site_fract_z
_atom_type_partial_charge
C1    C     C_R   0.054402 0.732547 0.496073 0.950522
C2    C     C_2   0.024306 0.068506 0.526642 -0.146855
C3    C     C_2   0.430893 0.511438 0.508239 -0.139259
C4    C     C_2   0.569095 0.488763 0.491533 -0.139224
C5    C     C_R   0.093391 0.510961 0.685819 0.867853
C6    C     C_R   0.905068 0.484034 0.314268 0.874564
C7    C     C_R   0.138816 0.502300 0.792790 -0.060342
C8    C     C_R   0.847091 0.453652 0.209246 -0.064406
C9    C     C_R   0.110980 0.527909 0.964149 -0.213456
C10   C     C_R   0.847606 0.350732 0.049126 -0.206333
C11   C     C_R   0.061730 0.535511 0.862627 -0.197898
C12   C     C_R   0.947876 0.267893 0.508905 0.949101
C13   C     C_R   0.915145 0.393069 0.144715 -0.215292
C14   C     C_R   0.261177 0.455942 0.824428 -0.267080
C15   C     C_R   0.712834 0.471328 0.177872 -0.262851
C16   C     C_R   0.311502 0.445270 0.925441 0.094975
C17   C     C_R   0.640495 0.420407 0.086480 0.093612
C18   C     C_R   0.236743 0.485944 0.996143 0.173777
C19   C     C_R   0.710691 0.364688 0.019334 0.174164
C20   C     C_R   0.439957 0.406073 0.957664 0.067491
C21   C     C_R   0.501409 0.429760 0.058801 0.069710
C22   C     C_R   0.422148 0.462664 0.128756 -0.231151
C23   C     C_R   0.510459 0.347236 0.892166 -0.232773
C24   C     C_R   0.290685 0.488189 0.097600 -0.244832
C25   C     C_R   0.643256 0.324810 0.923510 -0.237525
C26   C     C_2   0.089096 0.865346 0.501856 -0.385394
C27   C     C_2   0.921838 0.136797 0.522026 -0.382388
C28   C     C_2   0.001298 0.936512 0.529324 -0.146582
H1    H     H_    0.233689 0.515763 0.152861 0.150796
H2    H     H_    0.464051 0.314663 0.816943 0.149345
H3    H     H_    0.821027 0.096024 0.526334 0.149324
H4    H     H_    0.183174 0.904800 0.482801 0.150202
H5    H     H_    0.578272 0.415380 0.437828 0.162870
H6    H     H_    0.421708 0.584970 0.561802 0.166228
H7    H     H_    0.665101 0.622671 0.589511 0.159653
H8    H     H_    0.334886 0.377301 0.410502 0.158994
H9    H     H_    0.125355 0.108847 0.522271 0.188611
H10   H     H_    0.906926 0.897487 0.548330 0.187809
H11   H     H_    0.694464 0.279860 0.871569 0.149950
H12   H     H_    0.665668 0.526239 0.226052 0.161071
H13   H     H_    0.319590 0.434198 0.769091 0.161931
H14   H     H_    0.019051 0.376953 0.168434 0.159113
H15   H     H_    0.965440 0.569886 0.839022 0.161643
H16   H     H_    0.052832 0.558390 0.017611 0.153748
H17   H     H_    0.901736 0.306092 0.999050 0.149463
H18   H     H_    0.459045 0.467280 0.208340 0.145702
N1    N     N_2   0.322180 0.446120 0.460900 -0.195050
N2    N     N_2   0.677820 0.553880 0.539100 -0.191563
O1    O     O_R   0.935190 0.693030 0.507870 -0.608841
O2    O     O_R   0.064810 0.306970 0.492130 -0.610337
O3    O     O_R   0.142080 0.658430 0.482770 -0.607500
O4    O     O_R   0.857920 0.341570 0.517230 -0.608771
O5    O     O_R   0.969700 0.527180 0.651960 -0.612975
O6    O     O_R   0.030300 0.472820 0.348040 -0.612559
O7    O     O_R   0.176600 0.492580 0.626860 -0.615753
O8    O     O_R   0.823400 0.507420 0.373140 -0.611281
Zn1   Zn    Zn3+2 0.861850 0.523100 0.516760 0.934875
Zn2   Zn    Zn3+2 0.138150 0.476900 0.483240 0.931177

loop_
_geom_bond_atom_site_label_1
_geom_bond_atom_site_label_2
_ccdc_geom_bond_type
C6    C8    S    
C5    C7    S    
C26   H4    S    
C8    C13   A    
C9    C11   A    
C12   O4    A    
C26   C28   D    
C20   C23   A    
C28   H10   S    
C10   C19   A    
C16   C20   A    
C20   C21   A    
C10   H17   S    
N2    Zn1   S    
O3    Zn2   S    
C21   C22   A    
C25   H11   S    
N1    Zn2   S    
C7    C11   A    
C1    O3    A    
C2    H9    S    
C2    C27   D    
C6    O6    A    
C14   H13   S    
C18   C24   A    
H7    N2    S    
C5    O5    A    
C13   H14   S    
C22   H18   S    
C8    C15   A    
C22   C24   A    
C23   C25   A    
C4    N2    D    
C1    C26   S    
C19   C25   A    
C14   C16   A    
C15   H12   S    
O4    Zn1   S    
C12   C27   S    
C27   H3    S    
C3    C4    S    
O2    Zn2   S    
C23   H2    S    
C9    C18   A    
O1    Zn1   S    
O8    Zn1   S    
H8    N1    S    
C16   C18   A    
O6    Zn2   S    
O7    Zn2   S    
C3    N1    D    
C15   C17   A    
O5    Zn1   S    
C4    H5    S    
C9    H16   S    
C2    C28   S    
C3    H6    S    
C17   C19   A    
C24   H1    S    
C1    O1    A    
C11   H15   S    
C5    O7    A    
C7    C14   A    
C17   C21   A    
C6    O8    A    
C12   O2    A    
C10   C13   A    
