data_mof_unit_26426.cif
_audit_creation_date              2012-10-26T19:04:43-0400
_audit_creation_method            fapswitch 2.2
_symmetry_space_group_name_H-M    P1
_symmetry_Int_Tables_number       1
_space_group_crystal_system       triclinic
_cell_length_a                    9.633799
_cell_length_b                    10.853398
_cell_length_c                    13.481855
_cell_angle_alpha                 93.779077
_cell_angle_beta                  71.640539
_cell_angle_gamma                 88.409084
_cell_volume                      1333.24008097

loop_
_atom_site_label
_atom_site_type_symbol
_atom_type_description
_atom_site_fract_x
_atom_site_fract_y
_atom_site_fract_z
_atom_type_partial_charge
C1    C     C_R   0.496917 0.738255 0.499988 0.539286
C2    C     C_R   0.373828 0.491729 0.815171 -0.001371
C3    C     C_R   0.214743 0.901647 0.544450 -0.094567
C4    C     C_R   0.421314 0.494385 0.699828 0.509894
C5    C     C_R   0.085990 0.973365 0.593549 -0.100449
C6    C     C_R   0.092328 0.092659 0.634866 -0.049093
C7    C     C_R   0.227427 0.144006 0.619284 -0.045705
C8    C     C_R   0.359077 0.075650 0.562372 0.030177
C9    C     C_R   0.354189 0.947877 0.536478 0.034336
C10   C     C_R   0.488595 0.874135 0.504360 -0.013557
C11   C     C_R   0.621274 0.931138 0.489607 -0.175122
C12   C     C_R   0.436796 0.497888 0.978556 0.018440
C13   C     C_R   0.626720 0.057953 0.503597 -0.011533
C14   C     C_R   0.495020 0.132254 0.530544 0.000531
C15   C     C_R   0.935470 0.370546 0.331805 0.406871
C16   C     C_R   0.497626 0.264268 0.511244 0.564326
C17   C     C_R   0.046672 0.346220 0.237204 -0.146541
C18   C     C_R   0.189812 0.356755 0.233652 -0.246229
C19   C     C_R   0.219337 0.371914 0.328149 0.045291
C20   C     C_R   0.112205 0.434691 0.418054 0.119358
C21   C     C_R   0.962800 0.435445 0.418421 0.157812
C22   C     C_R   0.888935 0.561726 0.576801 0.044397
C23   C     C_R   0.474445 0.463271 0.869461 -0.032685
C24   C     C_R   0.036246 0.563535 0.577267 0.115715
C25   C     C_R   0.578923 0.501919 0.300016 0.560422
C26   C     C_R   0.800102 0.431061 0.016705 -0.096451
C27   C     C_R   0.624170 0.496238 0.184998 -0.002955
C28   C     C_R   0.230131 0.533430 0.872489 -0.115369
C29   C     C_R   0.189294 0.557853 0.980306 -0.137155
C30   C     C_R   0.291707 0.544709 0.032535 -0.107258
C31   C     C_2   0.772915 0.105249 0.494015 0.293374
C32   C     C_2   0.313595 0.266834 0.335208 0.318689
C33   C     C_2   0.065067 0.641321 0.662273 0.219016
C34   C     C_R   0.546034 0.484647 0.028800 -0.024449
C35   C     C_R   0.689499 0.437537 0.969532 0.071291
C36   C     C_R   0.719330 0.393375 0.865117 0.377637
C37   C     C_R   0.611401 0.400910 0.817644 -0.077527
C38   C     C_R   0.517023 0.514625 0.136603 -0.140821
C39   C     C_R   0.767567 0.461441 0.123684 -0.142677
Cu1   Cu    Cu3+1 0.359340 0.500010 0.500010 0.946132
Cu2   Cu    Cu3+1 0.640660 0.499990 0.499990 1.034963
F1    F     F_    0.812414 0.311578 0.338854 -0.618287
F2    F     F_    0.852595 0.339947 0.809059 -0.655488
H1    H     H_    0.852906 0.453196 0.158950 0.135941
H2    H     H_    0.410200 0.548658 0.185964 0.129284
H3    H     H_    0.150244 0.552316 0.833572 0.180957
H4    H     H_    0.252612 0.572017 0.115156 0.109141
H5    H     H_    0.078648 0.592355 0.023348 0.126889
H6    H     H_    0.636975 0.355238 0.739967 0.196862
H7    H     H_    0.723521 0.875981 0.468341 0.124543
H8    H     H_    0.868089 0.068215 0.430256 0.125990
H9    H     H_    0.429498 0.261606 0.290874 0.110053
H10   H     H_    0.171995 0.674591 0.653886 0.161061
H11   H     H_    0.199644 0.813361 0.509768 0.136768
H12   H     H_    0.980800 0.935596 0.600328 0.128194
H13   H     H_    0.992404 0.146749 0.676305 0.213152
H14   H     H_    0.228019 0.237247 0.652888 0.152233
H15   H     H_    0.802812 0.613646 0.638202 0.169055
H16   H     H_    0.023750 0.302819 0.169781 0.146215
H17   H     H_    0.274136 0.319289 0.162850 0.131554
H18   H     H_    0.910966 0.398862 0.971680 0.170854
N1    N     N_R   0.852480 0.498790 0.499000 -0.255991
N2    N     N_R   0.148360 0.498710 0.498970 -0.276573
O1    O     O_R   0.381190 0.680360 0.500010 -0.546918
O2    O     O_2   0.259509 0.179210 0.383230 -0.499132
O3    O     O_2   0.966769 0.672421 0.743610 -0.540284
O4    O     O_R   0.618760 0.680340 0.500000 -0.514564
O5    O     O_R   0.323240 0.499990 0.650990 -0.531600
O6    O     O_R   0.560820 0.499960 0.650980 -0.516418
O7    O     O_R   0.381240 0.319660 0.500000 -0.495300
O8    O     O_R   0.618810 0.319640 0.499990 -0.379527
O9    O     O_R   0.439180 0.500040 0.349020 -0.536808
O10   O     O_R   0.676760 0.500010 0.349010 -0.444315
O11   O     O_2   0.790180 0.178177 0.561549 -0.483985

loop_
_geom_bond_atom_site_label_1
_geom_bond_atom_site_label_2
_ccdc_geom_bond_type
C19   C20   A    
C7    C8    A    
Cu2   O4    S    
C12   C23   A    
C28   H3    S    
Cu1   N2    S    
Cu1   O7    S    
C36   C37   A    
C26   H18   S    
C34   C35   A    
C5    C6    A    
C3    H11   S    
C26   C39   A    
C27   C38   A    
C18   C19   A    
C32   H9    S    
C38   H2    S    
C35   C36   A    
C27   C39   A    
C8    C9    A    
C9    C10   A    
C25   O10   A    
Cu2   O8    S    
C13   C14   A    
C16   O8    A    
Cu2   N1    S    
C19   C32   S    
C4    O6    A    
C5    H12   S    
C33   O3    D    
C33   H10   S    
C29   H5    S    
C30   H4    S    
C16   O7    A    
C6    H13   S    
C4    O5    A    
C31   O11   D    
C23   C37   A    
C2    C4    S    
C29   C30   A    
C3    C9    A    
C22   N1    A    
C37   H6    S    
C17   C18   A    
C25   O9    A    
C21   N1    A    
C39   H1    S    
C17   H16   S    
C18   H17   S    
Cu1   Cu2   S    
C24   N2    A    
C22   C24   A    
C12   C34   A    
C1    O1    A    
Cu2   O6    S    
C15   C17   A    
C28   C29   A    
C8    C14   A    
Cu1   O9    S    
C12   C30   A    
C34   C38   A    
C13   C31   S    
C1    C10   S    
C15   F1    S    
C31   H8    S    
C3    C5    A    
C22   H15   S    
C6    C7    A    
C25   C27   S    
C24   C33   S    
Cu1   O1    S    
C20   N2    A    
C11   H7    S    
C11   C13   A    
C1    O4    A    
C14   C16   S    
C10   C11   A    
Cu2   O10   S    
C26   C35   A    
C15   C21   A    
C20   C21   A    
Cu1   O5    S    
C2    C23   A    
C36   F2    S    
C2    C28   A    
C7    H14   S    
C32   O2    D    
