data_mof_unit_59582.cif
_audit_creation_date              2012-12-10T20:31:02-0500
_audit_creation_method            fapswitch 2.2
_symmetry_space_group_name_H-M    P1
_symmetry_Int_Tables_number       1
_space_group_crystal_system       triclinic
_cell_length_a                    14.849627
_cell_length_b                    10.714764
_cell_length_c                    9.864061
_cell_angle_alpha                 90.618184
_cell_angle_beta                  89.696301
_cell_angle_gamma                 91.93843
_cell_volume                      1568.46464712

loop_
_atom_site_label
_atom_site_type_symbol
_atom_type_description
_atom_site_fract_x
_atom_site_fract_y
_atom_site_fract_z
_atom_type_partial_charge
C1    C     C_R   0.501258 0.260339 0.499228 0.884334
C2    C     C_R   0.909601 0.613704 0.483907 0.115131
C3    C     C_R   0.946707 0.269150 0.506582 0.098829
C4    C     C_R   0.040727 0.270917 0.504997 -0.252563
C5    C     C_R   0.090382 0.384000 0.499494 0.116306
C6    C     C_R   0.046848 0.499037 0.492459 0.013207
C7    C     C_R   0.097322 0.614046 0.486009 0.101414
C8    C     C_R   0.053057 0.728626 0.474898 0.108684
C9    C     C_R   0.959099 0.726433 0.474321 -0.276630
C10   C     C_R   0.183553 0.383903 0.501449 -0.207344
C11   C     C_R   0.231978 0.496769 0.499801 -0.042996
C12   C     C_R   0.327116 0.496680 0.500184 0.904703
C13   C     C_R   0.190777 0.610444 0.491837 -0.290322
C14   C     C_R   0.550755 0.068443 0.601336 0.010692
C15   C     C_R   0.510165 0.129497 0.495078 -0.111348
C16   C     C_R   0.482868 0.062664 0.378677 -0.209623
C17   C     C_R   0.481952 0.933954 0.379932 -0.227682
C18   C     C_R   0.508755 0.872572 0.497279 -0.110182
C19   C     C_R   0.550041 0.940981 0.602097 0.071387
C20   C     C_3   0.542818 0.935099 0.753733 -0.120244
C21   C     C_3   0.540635 0.079072 0.752388 -0.122347
C22   C     C_R   0.436329 0.431827 0.070742 0.170062
C23   C     C_R   0.501235 0.740146 0.500306 0.863947
C24   C     C_R   0.570928 0.550001 0.072065 -0.135265
C25   C     C_R   0.571778 0.547179 0.927941 -0.155527
C26   C     C_R   0.436533 0.430819 0.928888 0.098083
C27   C     C_3   0.336056 0.434536 0.922871 -0.218383
C28   C     C_3   0.336571 0.438611 0.079341 0.051877
C29   C     C_R   0.672863 0.502983 0.499629 0.871772
C30   C     C_R   0.816507 0.614158 0.484783 -0.255927
C31   C     C_R   0.767945 0.502305 0.498244 -0.035275
C32   C     C_R   0.809033 0.388631 0.506804 -0.277732
C33   C     C_R   0.902590 0.384207 0.501979 0.096536
C34   C     C_R   0.953139 0.498855 0.492591 0.023023
H1    H     H_    0.781609 0.700902 0.475783 0.119087
H2    H     H_    0.454952 0.883230 0.292749 0.171042
H3    H     H_    0.476870 0.892951 0.786881 0.137661
H4    H     H_    0.473111 0.114021 0.780216 0.150571
H5    H     H_    0.627071 0.593360 0.126231 0.153724
H6    H     H_    0.629942 0.583764 0.873651 0.153148
H7    H     H_    0.313200 0.522417 0.877086 0.165808
H8    H     H_    0.315169 0.529548 0.121770 0.133438
H9    H     H_    0.766537 0.305001 0.515421 0.143956
H10   H     H_    0.075421 0.183691 0.508881 0.142243
H11   H     H_    0.218675 0.296823 0.505481 0.143632
H12   H     H_    0.233099 0.694610 0.489699 0.140488
H13   H     H_    0.924314 0.813241 0.466461 0.150502
H14   H     H_    0.456367 0.108794 0.290894 0.195489
N1    N     N_R   0.499390 0.499140 0.142800 -0.114584
N2    N     N_R   0.499390 0.499180 0.857150 -0.104290
O1    O     O_R   0.500010 0.316790 0.614690 -0.638984
O2    O     O_R   0.500000 0.316760 0.385350 -0.596944
O3    O     O_R   0.367850 0.499990 0.614680 -0.639937
O4    O     O_R   0.367840 0.499950 0.385340 -0.584730
O5    O     O_R   0.500000 0.683240 0.614650 -0.620476
O6    O     O_R   0.499990 0.683210 0.385310 -0.625934
O7    O     O_R   0.632160 0.500050 0.614660 -0.628033
O8    O     O_R   0.632150 0.500010 0.385320 -0.621875
Zn1   Zn    Zn3+2 0.500010 0.500020 0.653130 0.921477
Zn2   Zn    Zn3+2 0.499990 0.499980 0.346870 0.958824
C35   C     C_3   0.623567 0.873637 0.823414 -0.349924
C36   C     C_3   0.706752 0.853397 0.732618 -0.334446
C37   C     C_3   0.785402 0.805136 0.813469 -0.903959
H15   H     H_    0.806148 0.874004 0.893284 0.259302
H16   H     H_    0.766359 0.714767 0.861455 0.260050
H17   H     H_    0.843607 0.790748 0.744564 0.258835
H18   H     H_    0.688836 0.784134 0.651827 0.222635
H19   H     H_    0.729011 0.942020 0.683715 0.218336
H20   H     H_    0.643773 0.925088 0.916692 0.204450
H21   H     H_    0.598342 0.781895 0.858788 0.194888
C38   C     C_3   0.618285 0.155795 0.820541 -0.361681
C39   C     C_3   0.599436 0.175544 0.972520 -0.352136
C40   C     C_3   0.678739 0.242530 0.043145 -0.857767
H22   H     H_    0.739166 0.184273 0.038090 0.251310
H23   H     H_    0.694398 0.333749 0.994491 0.262432
H24   H     H_    0.661526 0.259489 0.151379 0.265891
H25   H     H_    0.538849 0.232011 0.985195 0.226533
H26   H     H_    0.584913 0.085441 0.023799 0.216519
H27   H     H_    0.684197 0.112258 0.804824 0.206341
H28   H     H_    0.624097 0.249066 0.772626 0.229244
C41   C     C_3   0.294744 0.315333 0.855796 -0.306380
C42   C     C_3   0.191468 0.317273 0.854591 -0.307678
C43   C     C_3   0.150607 0.191564 0.807858 -0.899472
H29   H     H_    0.165631 0.118181 0.882343 0.272234
H30   H     H_    0.076357 0.197812 0.799558 0.256328
H31   H     H_    0.178401 0.164546 0.707480 0.247812
H32   H     H_    0.164867 0.338846 0.957256 0.263962
H33   H     H_    0.169694 0.391633 0.785665 0.217721
H34   H     H_    0.319170 0.308720 0.749489 0.205940
H35   H     H_    0.317757 0.230440 0.907396 0.224357
Br1   Br    Br    0.286620 0.294563 0.177098 -0.611447
C44   C     C_3   0.895581 0.144112 0.512698 -0.425444
C45   C     C_3   0.854389 0.108184 0.374170 -0.327834
C46   C     C_3   0.774563 0.015727 0.388804 -0.908859
H36   H     H_    0.794652 0.931605 0.443875 0.251075
H37   H     H_    0.718949 0.060111 0.445048 0.264715
H38   H     H_    0.749597 0.986886 0.286901 0.258369
H39   H     H_    0.830589 0.191691 0.320890 0.231529
H40   H     H_    0.906895 0.065823 0.309254 0.220586
H41   H     H_    0.940828 0.069053 0.543335 0.179798
H42   H     H_    0.843403 0.147245 0.593742 0.196603
C47   C     C_3   0.103194 0.853985 0.462951 -0.427778
C48   C     C_3   0.143016 0.871701 0.320179 -0.364459
C49   C     C_3   0.201416 0.991344 0.312033 -0.827177
H43   H     H_    0.160456 0.073965 0.334161 0.276055
H44   H     H_    0.257878 0.988869 0.385344 0.259362
H45   H     H_    0.230054 0.000497 0.208263 0.269371
H46   H     H_    0.184837 0.791703 0.290835 0.227011
H47   H     H_    0.087255 0.876465 0.245807 0.227406
H48   H     H_    0.056980 0.931406 0.483436 0.189122
H49   H     H_    0.156201 0.863298 0.541782 0.194418

loop_
_geom_bond_atom_site_label_1
_geom_bond_atom_site_label_2
_ccdc_geom_bond_type
C35   H21   S    
C37   H16   S    
C45   C46   S    
O5    Zn1   S    
C40   H22   S    
C19   C20   S    
C16   H14   S    
C38   H27   S    
C41   C42   S    
O3    Zn1   S    
C7    C8    A    
O4    Zn2   S    
C26   C27   S    
C36   C37   S    
N1    Zn2   S    
C30   H1    S    
C21   C38   S    
N2    Zn1   S    
C14   C21   S    
C26   N2    A    
C25   H6    S    
C30   C31   A    
O7    Zn1   S    
C3    C33   A    
O8    Zn2   S    
C42   H32   S    
C24   H5    S    
C18   C19   A    
C20   C35   S    
C25   N2    A    
C49   H43   S    
C39   H26   S    
O2    Zn2   S    
C47   C48   S    
C21   H4    S    
C43   H29   S    
C8    C9    A    
C48   H46   S    
C1    C15   S    
C17   H2    S    
C45   H40   S    
C12   O3    A    
C41   H34   S    
C2    C34   A    
C48   H47   S    
C37   H17   S    
C22   C28   S    
C40   H23   S    
C47   H49   S    
C35   C36   S    
C49   H44   S    
C38   H28   S    
C17   C18   A    
C18   C23   S    
C27   C41   S    
C24   C25   A    
C16   C17   A    
C4    H10   S    
C46   H38   S    
C6    C34   A    
C3    C44   S    
C39   H25   S    
C27   H7    S    
C31   C32   A    
C7    C13   A    
C10   H11   S    
C33   C34   A    
C20   C21   S    
C46   H37   S    
C1    O1    A    
C23   O6    A    
C44   H42   S    
C22   N1    A    
C41   H35   S    
C36   H18   S    
C43   H30   S    
C29   O7    A    
C9    H13   S    
C40   H24   S    
C47   H48   S    
O1    Zn1   S    
C3    C4    A    
C48   C49   S    
C44   H41   S    
C35   H20   S    
C24   N1    A    
C14   C15   A    
C14   C19   A    
C39   C40   S    
C11   C12   S    
C23   O5    A    
C6    C7    A    
C36   H19   S    
C2    C30   A    
C32   C33   A    
C5    C10   A    
C29   C31   S    
C20   H3    S    
C11   C13   A    
C5    C6    A    
C42   H33   S    
C28   H8    S    
C44   C45   S    
C32   H9    S    
C28   Br1   S    
C46   H36   S    
C1    O2    A    
C10   C11   A    
C37   H15   S    
O6    Zn2   S    
C4    C5    A    
C43   H31   S    
C38   C39   S    
C29   O8    A    
C42   C43   S    
C22   C26   A    
C27   C28   S    
C13   H12   S    
C2    C9    A    
C8    C47   S    
C45   H39   S    
C49   H45   S    
C12   O4    A    
C15   C16   A    
