data_mof_unit_15011.cif
_audit_creation_date              2012-12-10T17:00:03-0500
_audit_creation_method            fapswitch 2.2
_symmetry_space_group_name_H-M    P1
_symmetry_Int_Tables_number       1
_space_group_crystal_system       triclinic
_cell_length_a                    15.046592
_cell_length_b                    15.156424
_cell_length_c                    10.051264
_cell_angle_alpha                 87.120775
_cell_angle_beta                  91.690914
_cell_angle_gamma                 90.076089
_cell_volume                      2288.32564688

loop_
_atom_site_label
_atom_site_type_symbol
_atom_type_description
_atom_site_fract_x
_atom_site_fract_y
_atom_site_fract_z
_atom_type_partial_charge
C1    C     C_R   0.386916 0.876267 0.501499 0.959802
C2    C     C_2   0.750945 0.179941 0.415881 -0.424659
C3    C     C_2   0.170016 0.242129 0.455707 -0.372762
C4    C     C_2   0.247742 0.683741 0.413680 -0.412863
C5    C     C_2   0.687202 0.815819 0.518707 0.320284
C6    C     C_2   0.680741 0.191104 0.492971 0.296255
C7    C     C_2   0.187721 0.316632 0.518226 0.325410
C8    C     C_2   0.178477 0.692452 0.493042 0.280658
C9    C     C_2   0.230950 0.166879 0.470663 0.530412
C10   C     C_2   0.313404 0.753890 0.398119 0.543642
C11   C     C_2   0.731339 0.667109 0.467315 0.531920
C12   C     C_R   0.381165 0.118035 0.495610 0.947345
C13   C     C_2   0.817288 0.250131 0.397178 0.564345
C14   C     C_2   0.317271 0.185493 0.480300 -0.288855
C15   C     C_2   0.335201 0.797331 0.506965 -0.369340
C16   C     C_2   0.817515 0.685720 0.480246 -0.284773
C17   C     C_2   0.838255 0.294582 0.506065 -0.370286
C18   C     C_2   0.572231 0.002988 0.926988 0.148097
C19   C     C_2   0.071834 0.494183 0.928182 0.141064
C20   C     C_2   0.570516 0.015924 0.075197 0.070343
C21   C     C_2   0.071365 0.510926 0.075316 0.067951
C22   C     C_3   0.789747 0.899135 0.644305 0.078493
C23   C     C_R   0.887089 0.375900 0.501279 0.962431
C24   C     C_3   0.849586 0.933023 0.531765 -0.436139
C25   C     C_3   0.897410 0.017402 0.570072 -0.961641
C26   C     C_3   0.640528 0.272058 0.672870 0.050349
C27   C     C_3   0.541067 0.286353 0.692003 -0.306356
C28   C     C_3   0.517089 0.271536 0.837851 -0.923262
C29   C     C_3   0.292231 0.403865 0.633202 0.073023
C30   C     C_3   0.345843 0.437442 0.513217 -0.438990
C31   C     C_3   0.394193 0.523171 0.543328 -0.949088
C32   C     C_3   0.139938 0.770357 0.676932 0.044947
C33   C     C_3   0.041417 0.785603 0.701407 -0.305812
C34   C     C_R   0.881332 0.618195 0.495604 0.949490
C35   C     C_3   0.020628 0.769308 0.848275 -0.932705
C36   C     C_3   0.140056 0.060066 0.383482 0.019880
C37   C     C_3   0.127196 0.960101 0.385393 -0.237133
C38   C     C_3   0.062281 0.932868 0.275431 -0.995974
C39   C     C_3   0.308660 0.766147 0.165541 0.096730
C40   C     C_3   0.339885 0.692628 0.079365 -0.324149
C41   C     C_3   0.291452 0.696580 0.943953 -1.017621
C42   C     C_3   0.637763 0.562037 0.380377 0.022940
C43   C     C_3   0.624601 0.462184 0.378431 -0.237775
C44   C     C_3   0.559620 0.437148 0.267127 -0.977405
C45   C     C_R   0.617113 0.120709 0.498803 0.824294
C46   C     C_3   0.836448 0.218805 0.169998 0.100099
C47   C     C_3   0.902274 0.141526 0.172184 -0.371997
C48   C     C_3   0.888596 0.086308 0.050379 -0.972940
C49   C     C_R   0.621128 0.883568 0.504285 0.797907
C50   C     C_R   0.116594 0.620948 0.498773 0.830196
C51   C     C_R   0.121118 0.383697 0.504211 0.794995
C52   C     C_2   0.670685 0.742671 0.452152 -0.374875
H1    H     H_    0.611944 0.738580 0.387119 0.127939
H2    H     H_    0.943745 0.519867 0.894517 0.141033
H3    H     H_    0.446891 0.972194 0.102128 0.143420
H4    H     H_    0.945706 0.474426 0.101969 0.155004
H5    H     H_    0.831161 0.891754 0.737545 0.175379
H6    H     H_    0.739524 0.949805 0.662898 0.168059
H7    H     H_    0.900345 0.882757 0.512020 0.232877
H8    H     H_    0.808859 0.947079 0.439110 0.202655
H9    H     H_    0.848873 0.068002 0.597479 0.259347
H10   H     H_    0.935721 0.044341 0.484918 0.259689
H11   H     H_    0.944198 0.003282 0.656008 0.271192
H12   H     H_    0.760666 0.117513 0.369715 0.128084
H13   H     H_    0.677025 0.327702 0.717317 0.159991
H14   H     H_    0.665215 0.211333 0.729522 0.140811
H15   H     H_    0.522888 0.354897 0.657638 0.204254
H16   H     H_    0.501557 0.240653 0.631109 0.235454
H17   H     H_    0.532619 0.202564 0.873515 0.267805
H18   H     H_    0.444837 0.283076 0.848328 0.267105
H19   H     H_    0.554665 0.317977 0.900501 0.251262
H20   H     H_    0.338016 0.398653 0.721985 0.175342
H21   H     H_    0.241850 0.453617 0.655791 0.164374
H22   H     H_    0.396078 0.387681 0.489005 0.232770
H23   H     H_    0.109727 0.236662 0.394334 0.116831
H24   H     H_    0.300452 0.449751 0.425047 0.201503
H25   H     H_    0.348198 0.570919 0.585545 0.259150
H26   H     H_    0.420976 0.553607 0.450206 0.267593
H27   H     H_    0.450124 0.509585 0.616014 0.268170
H28   H     H_    0.178257 0.824636 0.721926 0.160976
H29   H     H_    0.164245 0.708369 0.729967 0.159523
H30   H     H_    0.023897 0.854803 0.670085 0.208272
H31   H     H_    0.999923 0.741167 0.641052 0.237108
H32   H     H_    0.035349 0.699628 0.881034 0.266742
H33   H     H_    0.949052 0.782214 0.862938 0.266864
H34   H     H_    0.257772 0.623599 0.361418 0.141935
H35   H     H_    0.060777 0.814016 0.910495 0.252136
H36   H     H_    0.164508 0.082933 0.283820 0.138587
H37   H     H_    0.074790 0.091099 0.400499 0.144879
H38   H     H_    0.192373 0.927646 0.372433 0.239089
H39   H     H_    0.101095 0.937354 0.483445 0.253889
H40   H     H_    0.995755 0.962120 0.288878 0.267678
H41   H     H_    0.055664 0.859793 0.279740 0.281408
H42   H     H_    0.086954 0.954783 0.176070 0.260360
H43   H     H_    0.318412 0.830747 0.110597 0.155843
H44   H     H_    0.235770 0.760091 0.181381 0.129660
H45   H     H_    0.342564 0.250893 0.455065 0.100231
H46   H     H_    0.412505 0.699485 0.064129 0.234737
H47   H     H_    0.327724 0.627392 0.131065 0.216607
H48   H     H_    0.218833 0.688433 0.957041 0.266017
H49   H     H_    0.304212 0.760834 0.889789 0.263835
H50   H     H_    0.315718 0.642809 0.883332 0.264271
H51   H     H_    0.659559 0.586930 0.280168 0.142216
H52   H     H_    0.573206 0.592592 0.403102 0.155809
H53   H     H_    0.689634 0.429718 0.364248 0.251649
H54   H     H_    0.598486 0.437803 0.475671 0.246311
H55   H     H_    0.493945 0.468666 0.278861 0.261659
H56   H     H_    0.312557 0.775146 0.604615 0.132495
H57   H     H_    0.550588 0.364330 0.271045 0.279203
H58   H     H_    0.585877 0.458290 0.168426 0.262838
H59   H     H_    0.845204 0.259028 0.075812 0.160653
H60   H     H_    0.766182 0.196859 0.166042 0.131311
H61   H     H_    0.971330 0.167731 0.173658 0.229420
H62   H     H_    0.894228 0.098420 0.263358 0.207372
H63   H     H_    0.821283 0.056423 0.049587 0.270907
H64   H     H_    0.896711 0.127827 0.957271 0.264867
H65   H     H_    0.938524 0.032332 0.053458 0.270929
H66   H     H_    0.689405 0.059203 0.878360 0.167846
H67   H     H_    0.842964 0.751438 0.457830 0.097492
H68   H     H_    0.693792 0.948896 0.913874 0.174129
H69   H     H_    0.196469 0.530578 0.880654 0.176483
H70   H     H_    0.183543 0.421678 0.920293 0.181476
H71   H     H_    0.639519 0.110598 0.165819 0.210306
H72   H     H_    0.669945 0.004691 0.216359 0.231205
H73   H     H_    0.145844 0.603426 0.163926 0.211531
H74   H     H_    0.170816 0.496906 0.216506 0.226006
H75   H     H_    0.818045 0.270278 0.604197 0.122222
H76   H     H_    0.441380 0.010123 0.895394 0.136213
N1    N     N_2   0.501330 1.000000 0.852150 -0.197487
N2    N     N_2   0.001330 0.500000 0.852150 -0.199304
N3    N     N_2   0.501360 0.000000 0.147810 -0.202432
N4    N     N_2   0.001360 0.500000 0.147810 -0.203465
N5    N     N_3   0.656387 0.999447 0.864918 -0.402649
N6    N     N_3   0.154607 0.476418 0.868560 -0.397547
N7    N     N_3   0.651110 0.046985 0.135373 -0.487618
N8    N     N_3   0.153720 0.538916 0.134477 -0.475464
O1    O     O_R   0.409520 0.909540 0.613040 -0.618399
O2    O     O_R   0.590440 0.909540 0.613100 -0.585293
O3    O     O_R   0.090440 0.590460 0.613100 -0.624399
O4    O     O_R   0.090440 0.409540 0.613100 -0.583145
O5    O     O_R   0.590480 0.090460 0.386960 -0.642525
O6    O     O_R   0.590480 0.909540 0.386960 -0.636508
O7    O     O_R   0.090480 0.590460 0.386960 -0.644162
O8    O     O_R   0.090480 0.409540 0.386960 -0.642294
O9    O     O_3   0.752040 0.814968 0.621945 -0.636145
O10   O     O_3   0.658801 0.274367 0.535248 -0.669987
O11   O     O_3   0.255122 0.318611 0.617424 -0.637470
O12   O     O_R   0.409520 0.090460 0.613040 -0.591128
O13   O     O_3   0.155329 0.774563 0.538377 -0.674605
O14   O     O_3   0.201804 0.079886 0.486237 -0.640801
O15   O     O_3   0.362446 0.766064 0.283367 -0.636568
O16   O     O_3   0.702289 0.579886 0.480255 -0.641913
O17   O     O_3   0.856167 0.274414 0.275635 -0.631496
O18   O     O_R   0.909520 0.409540 0.613040 -0.619103
O19   O     O_R   0.909520 0.590460 0.613040 -0.593719
O20   O     O_R   0.409560 0.909540 0.386900 -0.562474
O21   O     O_R   0.409560 0.090460 0.386900 -0.621195
O22   O     O_R   0.909560 0.409540 0.386900 -0.548288
O23   O     O_R   0.909560 0.590460 0.386900 -0.618603
O24   O     O_R   0.590440 0.090460 0.613100 -0.620618
Zn1   Zn    Zn3+2 0.499970 0.000000 0.650990 0.962155
Zn2   Zn    Zn3+2 0.999970 0.500000 0.650990 0.960482
Zn3   Zn    Zn3+2 0.500030 1.000000 0.349010 0.941198
Zn4   Zn    Zn3+2 0.000030 0.500000 0.349010 0.946775

loop_
_geom_bond_atom_site_label_1
_geom_bond_atom_site_label_2
_ccdc_geom_bond_type
C36   H37   S    
C47   H62   S    
O1    Zn1   S    
C6    C45   S    
C46   H60   S    
C28   H17   S    
C4    C8    D    
C42   H51   S    
C40   H47   S    
C34   O19   A    
C36   H36   S    
C19   N6    S    
C32   H29   S    
C26   C27   S    
C29   C30   S    
C37   H38   S    
C14   H45   S    
O12   Zn1   S    
C36   C37   S    
C19   C21   S    
C3    C7    D    
C10   C15   D    
C25   H11   S    
C30   C31   S    
C6    O10   S    
C29   H21   S    
O4    Zn2   S    
C23   O22   A    
C38   H40   S    
C41   H50   S    
C18   N5    S    
H68   N5    S    
C43   H53   S    
C26   O10   S    
C2    C13   S    
H70   N6    S    
C11   C52   S    
C16   C34   S    
C35   H35   S    
C32   O13   S    
O20   Zn3   S    
C5    C52   D    
C27   H16   S    
C12   O21   A    
C42   O16   S    
C33   H30   S    
O21   Zn3   S    
C21   N8    S    
O22   Zn4   S    
C48   H64   S    
C29   H20   S    
C44   H57   S    
N2    Zn2   S    
C19   N2    D    
H74   N8    S    
C46   H59   S    
H76   N1    S    
C45   O5    A    
C5    C49   S    
C2    C6    D    
C45   O24   A    
C22   H5    S    
C2    H12   S    
C31   H25   S    
C7    O11   S    
O19   Zn2   S    
H2    N2    S    
C9    O14   S    
C5    O9    S    
C37   H39   S    
C48   H65   S    
C26   H14   S    
C24   C25   S    
C16   H67   S    
O6    Zn3   S    
C50   O3    A    
C17   H75   S    
C25   H9    S    
C51   O8    A    
C32   C33   S    
H71   N7    S    
C43   H54   S    
C15   H56   S    
C1    O20   A    
C9    C14   D    
N4    Zn4   S    
C21   N4    D    
C29   O11   S    
C37   C38   S    
C3    C9    S    
C10   O15   S    
C32   H28   S    
C30   H24   S    
C11   C16   D    
C47   C48   S    
C22   O9    S    
N3    Zn3   S    
C24   H8    S    
C13   O17   S    
C49   O6    A    
C38   H42   S    
C41   H48   S    
N1    Zn1   S    
C17   C23   S    
C33   H31   S    
C39   H43   S    
H4    N4    S    
H66   N5    S    
C48   H63   S    
C1    C15   S    
H73   N8    S    
C40   C41   S    
C12   C14   S    
O5    Zn3   S    
H3    N3    S    
C43   C44   S    
H69   N6    S    
C22   C24   S    
C28   H19   S    
C42   C43   S    
C20   N3    D    
C4    C10   S    
C8    C50   S    
O7    Zn4   S    
C39   C40   S    
C1    O1    A    
C52   H1    S    
C31   H26   S    
C44   H55   S    
C47   H61   S    
C46   O17   S    
C46   C47   S    
H72   N7    S    
C26   H13   S    
O18   Zn2   S    
O3    Zn2   S    
C28   H18   S    
C42   H52   S    
C22   H6    S    
C35   H32   S    
C31   H27   S    
C50   O7    A    
C13   C17   D    
O24   Zn1   S    
C12   O12   A    
C8    O13   S    
C3    H23   S    
C7    C51   S    
C51   O4    A    
C40   H46   S    
C35   H33   S    
C36   O14   S    
C24   H7    S    
C30   H22   S    
C38   H41   S    
C33   C35   S    
C41   H49   S    
O2    Zn1   S    
C18   C20   S    
C25   H10   S    
C20   N7    S    
C39   O15   S    
C39   H44   S    
C27   H15   S    
C11   O16   S    
C4    H34   S    
C23   O18   A    
C27   C28   S    
C34   O23   A    
O23   Zn4   S    
C18   N1    D    
C49   O2    A    
O8    Zn4   S    
C44   H58   S    
