data_mof_unit_26482.cif
_audit_creation_date              2012-12-10T16:45:22-0500
_audit_creation_method            fapswitch 2.2
_symmetry_space_group_name_H-M    P1
_symmetry_Int_Tables_number       1
_space_group_crystal_system       triclinic
_cell_length_a                    7.480544
_cell_length_b                    8.687221
_cell_length_c                    15.642425
_cell_angle_alpha                 94.273705
_cell_angle_beta                  75.077028
_cell_angle_gamma                 103.268867
_cell_volume                      955.890138497

loop_
_atom_site_label
_atom_site_type_symbol
_atom_type_description
_atom_site_fract_x
_atom_site_fract_y
_atom_site_fract_z
_atom_type_partial_charge
C1    C     C_R   0.545031 0.800029 0.502684 0.885288
C2    C     C_R   0.454850 0.199972 0.497474 0.880201
C3    C     C_R   0.309573 0.300269 0.067213 0.492000
C4    C     C_R   0.726425 0.533310 0.908860 0.486532
C5    C     C_R   0.186212 0.251277 0.012160 -0.289146
C6    C     C_R   0.858187 0.568486 0.960395 -0.276376
C7    C     C_2   0.570081 0.968138 0.504055 -0.370777
C8    C     C_2   0.429639 0.031877 0.496318 -0.369327
C9    C     C_R   0.383807 0.484286 0.666308 0.782228
C10   C     C_R   0.615613 0.510598 0.333154 0.794166
C11   C     C_R   0.310660 0.441391 0.759651 -0.056227
C12   C     C_R   0.685119 0.515659 0.236000 -0.086546
C13   C     C_R   0.114689 0.251322 0.869974 -0.170284
C14   C     C_R   0.935081 0.585625 0.102757 -0.163599
C15   C     C_R   0.166167 0.306575 0.783717 -0.196733
C16   C     C_R   0.877375 0.569592 0.194572 -0.171668
C17   C     C_R   0.412976 0.512152 0.820686 -0.212328
C18   C     C_R   0.553955 0.469344 0.184081 -0.176422
C19   C     C_R   0.391093 0.435060 0.899929 0.081595
C20   C     C_R   0.611125 0.472477 0.091303 0.082061
C21   C     C_R   0.227176 0.314925 0.928552 0.075912
C22   C     C_R   0.802165 0.542378 0.051225 0.068242
C23   C     C_R   0.531858 0.467364 0.948709 -0.121387
C24   C     C_R   0.481342 0.415760 0.037714 -0.124466
Cu1   Cu    Cu3+1 0.322120 0.483240 0.490330 0.947906
Cu2   Cu    Cu3+1 0.677880 0.516760 0.509670 0.950761
H1    H     H_    0.060629 0.158688 0.034222 0.161648
H2    H     H_    0.005609 0.617315 0.928787 0.170335
H3    H     H_    0.405343 0.438618 0.217118 0.207137
H4    H     H_    0.521496 0.618234 0.801778 0.188993
H5    H     H_    0.981517 0.605445 0.233237 0.154275
H6    H     H_    0.095593 0.242096 0.735330 0.131892
H7    H     H_    0.996069 0.151601 0.888661 0.131171
H8    H     H_    0.083076 0.634092 0.072147 0.130360
H9    H     H_    0.705249 0.039766 0.511380 0.178352
H10   H     H_    0.294450 0.960258 0.489022 0.179974
H11   H     H_    0.003251 0.615919 0.569278 0.234386
H12   H     H_    0.996687 0.383994 0.430772 0.233014
N1    N     N_2   0.945180 0.542040 0.524240 -0.222776
N2    N     N_2   0.054820 0.457960 0.475760 -0.223105
O1    O     O_R   0.384450 0.714270 0.493720 -0.579350
O2    O     O_R   0.615550 0.285730 0.506280 -0.584222
O3    O     O_R   0.684880 0.742590 0.510050 -0.581129
O4    O     O_R   0.315120 0.257410 0.489950 -0.583683
O5    O     O_R   0.265540 0.477900 0.617090 -0.592469
O6    O     O_R   0.734460 0.522100 0.382910 -0.582692
O7    O     O_R   0.565970 0.506210 0.633420 -0.573300
O8    O     O_R   0.434030 0.493790 0.366580 -0.579494
O9    O     O_3   0.267869 0.221373 0.145894 -0.592846
C25   C     C_3   0.350343 0.088001 0.130296 -0.326217
H13   H     H_    0.507205 0.122597 0.105157 0.166517
H14   H     H_    0.287980 0.002375 0.083618 0.157874
H15   H     H_    0.320213 0.026845 0.193877 0.193526
O10   O     O_3   0.796497 0.552812 0.818364 -0.596040
C26   C     C_3   0.794403 0.403432 0.775186 -0.270898
H16   H     H_    0.666273 0.361308 0.750130 0.185761
H17   H     H_    0.802304 0.309046 0.817575 0.140196
H18   H     H_    0.914990 0.417165 0.715964 0.201204

loop_
_geom_bond_atom_site_label_1
_geom_bond_atom_site_label_2
_ccdc_geom_bond_type
C10   O6    A    
C25   H14   S    
C23   C24   A    
C14   H8    S    
C19   C23   A    
C26   H16   S    
C14   C22   A    
C13   C15   A    
C25   H13   S    
C3    O9    S    
C3    C5    A    
C13   C21   A    
C7    C8    D    
H11   N1    S    
C18   H3    S    
C1    C7    S    
C16   H5    S    
C13   H7    S    
C17   H4    S    
C9    C11   S    
Cu1   O8    S    
C7    H9    S    
C3    C24   A    
C10   C12   S    
Cu2   O7    S    
C2    O2    A    
C9    O5    A    
Cu1   O4    S    
C1    O1    A    
H12   N2    S    
C20   C22   A    
Cu2   O3    S    
C9    O7    A    
C18   C20   A    
C26   H17   S    
Cu1   N2    S    
C10   O8    A    
C14   C16   A    
Cu2   N1    S    
C25   H15   S    
Cu2   O6    S    
Cu1   O1    S    
C6    C22   A    
Cu1   O5    S    
C15   H6    S    
C5    C21   A    
Cu2   O2    S    
C4    C6    A    
O9    C25   S    
C8    H10   S    
C26   H18   S    
C12   C18   A    
N1    N2    D    
C4    C23   A    
C20   C24   A    
O10   C26   S    
C17   C19   A    
C2    C8    S    
C4    O10   S    
Cu1   Cu2   S    
C5    H1    S    
C11   C15   A    
C1    O3    A    
C6    H2    S    
C12   C16   A    
C2    O4    A    
C19   C21   A    
C11   C17   A    
