data_mof_unit_43403.cif
_audit_creation_date              2012-12-11T15:14:56-0500
_audit_creation_method            fapswitch 2.2
_symmetry_space_group_name_H-M    P1
_symmetry_Int_Tables_number       1
_space_group_crystal_system       triclinic
_cell_length_a                    11.078294
_cell_length_b                    11.054935
_cell_length_c                    18.465959
_cell_angle_alpha                 90.456618
_cell_angle_beta                  90.0188
_cell_angle_gamma                 119.687588
_cell_volume                      1964.58637278

loop_
_atom_site_label
_atom_site_type_symbol
_atom_type_description
_atom_site_fract_x
_atom_site_fract_y
_atom_site_fract_z
_atom_type_partial_charge
C1    C     C_R   0.518962 0.455494 0.644962 0.610944
C2    C     C_R   0.456219 0.521595 0.355718 0.546713
C3    C     C_R   0.478384 0.936273 0.145215 0.533953
C4    C     C_R   0.061243 0.542011 0.354079 0.549112
C5    C     C_3   0.383187 0.996187 0.479646 0.385148
C6    C     C_3   0.601579 0.596037 0.024781 0.383356
C7    C     C_3   0.948623 0.371085 0.468066 0.377594
C8    C     C_3   0.372023 0.966237 0.018821 0.374221
C9    C     C_3   0.583167 0.627131 0.484061 0.366270
C10   C     C_3   0.989732 0.387573 0.020132 0.385874
C11   C     C_3   0.068107 0.494495 0.961764 0.422921
C12   C     C_R   0.883535 0.459506 0.862278 0.564296
C13   C     C_3   0.463537 0.580668 0.538265 0.385062
C14   C     C_3   0.413576 0.889138 0.963584 0.390306
C15   C     C_3   0.046991 0.443643 0.531658 0.444740
C16   C     C_3   0.534809 0.627087 0.960305 0.415817
C17   C     C_3   0.388620 0.897930 0.535438 0.411267
C18   C     C_3   0.509410 0.119070 0.515289 -0.206333
C19   C     C_3   0.565612 0.454809 0.991018 -0.203986
C20   C     C_3   0.842520 0.407544 0.500501 -0.236386
C21   C     C_3   0.477761 0.106361 0.986861 -0.173056
C22   C     C_3   0.623716 0.525718 0.516714 -0.174457
C23   C     C_R   0.543371 0.062024 0.645018 0.613962
C24   C     C_3   0.852130 0.374086 0.993517 -0.203354
C25   C     C_3   0.088091 0.613681 0.012853 -0.079948
C26   C     C_3   0.364323 0.466394 0.484953 -0.096647
C27   C     C_3   0.526024 0.897704 0.016179 -0.101249
C28   C     C_3   0.115547 0.582127 0.490250 -0.066743
C29   C     C_3   0.393199 0.559126 0.999433 -0.104091
C30   C     C_3   0.485676 0.871890 0.485790 -0.061388
C31   C     C_3   0.515606 0.018201 0.569757 0.019664
C32   C     C_3   0.497089 0.487395 0.927606 0.021849
C33   C     C_3   0.942964 0.481008 0.563482 0.012688
C34   C     C_R   0.518642 0.457122 0.854322 0.603170
C35   C     C_3   0.519690 0.027413 0.932455 0.026093
C36   C     C_3   0.502437 0.479367 0.569660 0.025420
C37   C     C_3   0.932910 0.482371 0.936456 -0.002209
C38   C     C_3   0.006636 0.505104 0.071520 -0.024704
C39   C     C_3   0.485699 0.511792 0.431257 -0.016048
C40   C     C_3   0.485302 0.976632 0.070659 -0.016350
C41   C     C_3   0.013087 0.508636 0.427509 -0.019846
C42   C     C_3   0.460632 0.526103 0.063223 -0.032809
C43   C     C_3   0.483517 0.974560 0.430980 -0.030972
C44   C     C_3   0.614901 0.994807 0.520888 -0.048290
C45   C     C_R   0.890037 0.460646 0.637113 0.564626
C46   C     C_3   0.355478 0.416270 0.965714 -0.069001
C47   C     C_3   0.010157 0.620440 0.522980 -0.069959
C48   C     C_3   0.633090 0.037717 0.984845 -0.106303
C49   C     C_3   0.403686 0.363030 0.517143 -0.111824
C50   C     C_3   0.950472 0.601597 0.986570 -0.075398
C51   C     C_3   0.870082 0.493252 0.045498 -0.180446
C52   C     C_3   0.525079 0.409639 0.462878 -0.209820
C53   C     C_3   0.590125 0.115291 0.040528 -0.209150
C54   C     C_3   0.909632 0.546828 0.459277 -0.206732
C55   C     C_3   0.423576 0.384414 0.030029 -0.176027
C56   C     C_R   0.545686 0.066495 0.856369 0.611740
C57   C     C_3   0.609391 0.095890 0.465674 -0.181189
C58   C     C_R   0.426205 0.542146 0.137437 0.533724
C59   C     C_R   0.478422 0.936528 0.355281 0.544298
C60   C     C_R   0.061811 0.541938 0.144968 0.539263
Cr1   Cr    Cr6+3 0.769930 0.543130 0.750000 1.117124
Cr2   Cr    Cr6+3 0.773200 0.230070 0.750000 1.139822
Cr3   Cr    Cr6+3 0.456870 0.226800 0.750000 1.107748
Cr4   Cr    Cr6+3 0.543130 0.769930 0.250000 1.131737
Cr5   Cr    Cr6+3 0.230070 0.773200 0.250000 1.124220
Cr6   Cr    Cr6+3 0.226800 0.456870 0.250000 1.119924
F1    F     F_    0.265298 0.997310 0.456108 -0.582749
F2    F     F_    0.113005 0.389641 0.572941 -0.558414
F3    F     F_    0.594687 0.745978 0.918637 -0.571850
F4    F     F_    0.284021 0.806566 0.580207 -0.572612
F5    F     F_    0.726969 0.689857 0.056477 -0.591044
F6    F     F_    0.926351 0.246552 0.438247 -0.589854
F7    F     F_    0.240393 0.938286 0.038752 -0.593438
F8    F     F_    0.680829 0.761223 0.465008 -0.599786
F9    F     F_    0.009442 0.277856 0.039090 -0.588497
F10   F     F_    0.159378 0.494490 0.910937 -0.558844
F11   F     F_    0.431142 0.660349 0.583548 -0.560950
F12   F     F_    0.328306 0.779108 0.918651 -0.553048
H1    H     H_    0.516277 0.213923 0.538307 0.114293
H2    H     H_    0.227384 0.646218 0.479419 0.145849
H3    H     H_    0.328043 0.606733 0.009420 0.151661
H4    H     H_    0.465175 0.771628 0.462888 0.154417
H5    H     H_    0.709287 0.993135 0.539600 0.241436
H6    H     H_    0.255419 0.339711 0.940192 0.244238
H7    H     H_    0.033340 0.722674 0.546193 0.240478
H8    H     H_    0.740412 0.064230 0.969761 0.227389
H9    H     H_    0.326460 0.254780 0.532220 0.224661
H10   H     H_    0.935111 0.689491 0.970275 0.237009
H11   H     H_    0.790743 0.489999 0.083307 0.191585
H12   H     H_    0.633216 0.409853 0.981673 0.095648
H13   H     H_    0.551228 0.343145 0.428483 0.152727
H14   H     H_    0.654799 0.202534 0.078121 0.157965
H15   H     H_    0.854280 0.588310 0.426600 0.190488
H16   H     H_    0.378041 0.285423 0.060545 0.202618
H17   H     H_    0.687970 0.170999 0.428370 0.209497
H18   H     H_    0.731913 0.347027 0.510616 0.097049
H19   H     H_    0.450674 0.184296 0.968374 0.143683
H20   H     H_    0.728557 0.559831 0.538093 0.146189
H21   H     H_    0.761250 0.291425 0.966505 0.099063
H22   H     H_    0.186098 0.705705 0.027978 0.191878
H23   H     H_    0.259375 0.440002 0.466250 0.186685
H24   H     H_    0.553075 0.821690 0.037565 0.175892
O1    O     O_R   0.913270 0.574260 0.668550 -0.474779
O2    O     O_R   0.574260 0.913270 0.331450 -0.461453
O3    O     O_R   0.086730 0.660990 0.168550 -0.473318
O4    O     O_R   0.339010 0.425740 0.331450 -0.490096
O5    O     O_R   0.640160 0.530400 0.673300 -0.513351
O6    O     O_R   0.890240 0.359840 0.826700 -0.444396
O7    O     O_R   0.469600 0.109760 0.673300 -0.485432
O8    O     O_R   0.640160 0.530400 0.826700 -0.485658
O9    O     O_R   0.890240 0.359840 0.673300 -0.429848
O10   O     O_R   0.469600 0.109760 0.826700 -0.493519
O11   O     O_R   0.530400 0.640160 0.173300 -0.456361
O12   O     O_R   0.660990 0.086730 0.831450 -0.490755
O13   O     O_R   0.359840 0.890240 0.326700 -0.473057
O14   O     O_R   0.109760 0.469600 0.173300 -0.478741
O15   O     O_R   0.530400 0.640160 0.326700 -0.463799
O16   O     O_R   0.359840 0.890240 0.173300 -0.473405
O17   O     O_R   0.109760 0.469600 0.326700 -0.478552
O18   O     O_3   0.666667 0.333333 0.750000 -0.380843
O19   O     O_3   0.333333 0.666667 0.250000 -0.353661
O20   O     O_R   0.425740 0.339010 0.668550 -0.485126
O21   O     O_R   0.913270 0.574260 0.831450 -0.455941
O22   O     O_R   0.660990 0.086730 0.668550 -0.503909
O23   O     O_R   0.425740 0.339010 0.831450 -0.507421
O24   O     O_R   0.574260 0.913270 0.168550 -0.496116
O25   O     O_R   0.086730 0.660990 0.331450 -0.485425
O26   O     O_R   0.339010 0.425740 0.168550 -0.476303

loop_
_geom_bond_atom_site_label_1
_geom_bond_atom_site_label_2
_ccdc_geom_bond_type
C27   C48   S    
C28   C47   S    
C58   O26   A    
C13   C26   S    
C22   H20   S    
C29   C42   S    
C24   H21   S    
C33   C45   S    
C49   H9    S    
C60   O3    A    
C5    F1    S    
C44   H5    S    
C42   C58   S    
Cr2   O22   S    
C3    O24   A    
C6    C19   S    
Cr6   O14   S    
C59   O2    A    
Cr5   O25   S    
Cr1   O1    S    
Cr2   O12   S    
C11   F10   S    
C26   H23   S    
C42   C55   S    
C18   C57   S    
C9    C22   S    
Cr2   O6    S    
C4    C41   S    
Cr1   O8    S    
Cr4   O19   S    
C28   C41   S    
C9    C39   S    
C14   F12   S    
Cr3   O10   S    
C11   C37   S    
C9    C13   S    
C1    O20   A    
C54   H15   S    
C45   O1    A    
C25   C50   S    
C2    C39   S    
Cr2   O9    S    
C35   C48   S    
C18   H1    S    
C46   C55   S    
C58   O11   A    
Cr5   O16   S    
C4    O17   A    
Cr5   O19   S    
C14   C27   S    
C44   C57   S    
Cr2   O18   S    
C50   H10   S    
C24   C51   S    
C7    C15   S    
C39   C52   S    
C20   H18   S    
C17   F4    S    
Cr1   O18   S    
C17   C30   S    
Cr5   O13   S    
C30   C44   S    
C6    F5    S    
Cr6   O4    S    
C55   H16   S    
C30   H4    S    
C19   C32   S    
Cr5   O3    S    
C2    O15   A    
C50   C51   S    
C48   C53   S    
C23   O7    A    
C13   F11   S    
C31   C44   S    
C13   C36   S    
C20   C54   S    
C26   C49   S    
C7    F6    S    
C12   O6    A    
C5    C18   S    
C10   C24   S    
C16   C29   S    
C2    O4    A    
Cr4   O15   S    
C32   C34   S    
Cr3   O7    S    
C29   H3    S    
C3    O16   A    
C25   C38   S    
C21   H19   S    
C10   F9    S    
C25   H22   S    
C27   C40   S    
C49   C52   S    
C53   H14   S    
C24   C37   S    
Cr6   O19   S    
Cr3   O23   S    
C26   C39   S    
C1    O5    A    
C47   C54   S    
C38   C60   S    
C20   C33   S    
C3    C40   S    
C7    C20   S    
Cr4   O24   S    
Cr6   O17   S    
C57   H17   S    
C33   C47   S    
C46   H6    S    
C30   C43   S    
C60   O14   A    
C9    F8    S    
C47   H7    S    
C14   C35   S    
Cr3   O20   S    
C22   C52   S    
C19   C55   S    
Cr4   O2    S    
C8    C14   S    
Cr4   O11   S    
C4    O25   A    
C35   C56   S    
C32   C46   S    
C16   F3    S    
C15   C33   S    
C8    C21   S    
C45   O9    A    
C23   O22   A    
C38   C51   S    
C43   C59   S    
C16   C32   S    
C22   C36   S    
C27   H24   S    
C10   C38   S    
C29   C46   S    
Cr1   O21   S    
C21   C35   S    
C19   H12   S    
C12   C37   S    
C51   H11   S    
C21   C53   S    
Cr3   O18   S    
C15   C28   S    
C12   O21   A    
C34   O23   A    
C17   C31   S    
C15   F2    S    
C37   C50   S    
C8    F7    S    
Cr6   O26   S    
C48   H8    S    
C7    C41   S    
C5    C43   S    
C28   H2    S    
C41   C54   S    
C10   C11   S    
C43   C57   S    
C6    C16   S    
C56   O12   A    
C5    C17   S    
C59   O13   A    
C40   C53   S    
C6    C42   S    
Cr1   O5    S    
C11   C25   S    
C52   H13   S    
C18   C31   S    
C8    C40   S    
C34   O8    A    
C56   O10   A    
C36   C49   S    
C1    C36   S    
C23   C31   S    
