data_mof_unit_24699.cif
_audit_creation_date              2012-12-11T16:57:11-0500
_audit_creation_method            fapswitch 2.2
_symmetry_space_group_name_H-M    P1
_symmetry_Int_Tables_number       1
_space_group_crystal_system       triclinic
_cell_length_a                    14.583102
_cell_length_b                    16.121522
_cell_length_c                    7.056531
_cell_angle_alpha                 89.874289
_cell_angle_beta                  98.447731
_cell_angle_gamma                 90.079816
_cell_volume                      1640.99852919

loop_
_atom_site_label
_atom_site_type_symbol
_atom_type_description
_atom_site_fract_x
_atom_site_fract_y
_atom_site_fract_z
_atom_type_partial_charge
O1    O     O_R   0.584990 0.413650 0.534420 -0.529213
O2    O     O_R   0.584990 0.586350 0.534420 -0.532345
O3    O     O_R   0.596190 0.585230 0.208380 -0.511491
O4    O     O_R   0.596190 0.414770 0.208380 -0.513648
O5    O     O_R   0.415010 0.586420 0.976930 -0.535493
O6    O     O_R   0.415010 0.413580 0.976930 -0.539019
C1    C     C_R   0.618744 0.613721 0.384707 0.810293
C2    C     C_R   0.618219 0.386002 0.384751 0.820840
O7    O     O_3   0.440560 0.500000 0.319140 -0.368733
V1    V     V_3+5 0.511030 0.500000 0.068070 1.804003
O8    O     O_R   0.403810 0.414840 0.643540 -0.501715
O9    O     O_R   0.403810 0.585160 0.643540 -0.516258
C3    C     C_R   0.385204 0.383266 0.809377 0.774358
C4    C     C_R   0.381672 0.613355 0.807762 0.772091
V2    V     V_3+5 0.488970 0.500000 0.560620 1.802032
O10   O     O_3   0.559440 0.500000 0.859420 -0.340460
C5    C     C_2   0.307695 0.676423 0.809395 0.165109
C6    C     C_2   0.323699 0.308585 0.815364 0.179304
C7    C     C_2   0.313724 0.737660 0.944829 0.375611
C8    C     C_2   0.316442 0.264784 0.980996 0.382181
C9    C     C_2   0.199712 0.822245 0.097154 0.272083
C10   C     C_2   0.187001 0.186515 0.095064 0.303989
C11   C     C_2   0.243023 0.804671 0.940453 0.042802
C12   C     C_2   0.257392 0.189082 0.985982 0.041582
C13   C     C_R   0.717689 0.715673 0.602665 -0.012538
C14   C     C_R   0.715660 0.282546 0.601867 -0.006803
C15   C     C_R   0.690109 0.680335 0.421598 -0.087664
C16   C     C_R   0.688173 0.318460 0.421178 -0.088056
C17   C     C_R   0.718055 0.729865 0.275902 0.339015
C18   C     C_R   0.713957 0.268472 0.275039 0.333144
C19   C     C_R   0.807620 0.767194 0.321685 0.330656
C20   C     C_R   0.803414 0.230554 0.318965 0.327774
C21   C     C_R   0.819081 0.817842 0.486063 -0.149274
C22   C     C_R   0.816084 0.180068 0.484261 -0.157404
C23   C     C_R   0.771354 0.786256 0.627699 -0.020941
C24   C     C_R   0.768735 0.211582 0.626489 -0.021663
C25   C     C_3   0.771388 0.790869 0.834345 0.332903
C26   C     C_3   0.769554 0.207721 0.833782 0.334133
C27   C     C_3   0.705421 0.712610 0.806126 0.585004
C28   C     C_3   0.703725 0.285900 0.805250 0.583556
O11   O     O_R   0.921430 0.915960 0.371040 -0.532953
O12   O     O_R   0.921430 0.084040 0.371040 -0.530097
O13   O     O_R   0.910450 0.087500 0.697310 -0.527718
O14   O     O_R   0.910450 0.912500 0.697310 -0.529737
O15   O     O_R   0.091710 0.087460 0.928430 -0.542766
O16   O     O_R   0.091710 0.912540 0.928430 -0.553203
C29   C     C_R   0.888303 0.114073 0.520164 0.784953
C30   C     C_R   0.889385 0.885217 0.520831 0.771338
O17   O     O_3   0.065970 0.000000 0.586140 -0.394790
V3    V     V_3+5 0.995640 1.000000 0.837400 1.568379
O18   O     O_R   0.103020 0.915700 0.261710 -0.520155
O19   O     O_R   0.103020 0.084300 0.261710 -0.519924
C31   C     C_R   0.127789 0.888376 0.097993 0.714364
C32   C     C_R   0.125424 0.113211 0.098071 0.704676
V4    V     V_3+5 0.017940 1.000000 0.344880 1.605051
O20   O     O_3   0.947330 1.000000 0.046180 -0.364910
C33   C     C_3   0.232993 0.858556 0.762336 -0.616837
H1    H     H_    0.286742 0.843456 0.671494 0.244684
H2    H     H_    0.164356 0.848320 0.674341 0.260105
H3    H     H_    0.242837 0.924928 0.801767 0.172285
C34   C     C_3   0.287824 0.111977 0.890778 -0.693920
H4    H     H_    0.354240 0.122809 0.835034 0.262388
H5    H     H_    0.298638 0.060130 0.995576 0.184496
H6    H     H_    0.235096 0.094056 0.767953 0.228985
Cl1   Cl    Cl    0.750753 0.617611 0.912309 -0.433492
Cl2   Cl    Cl    0.749270 0.380990 0.910065 -0.432836
Cl3   Cl    Cl    0.414361 0.752088 0.113224 -0.476602
Cl4   Cl    Cl    0.386265 0.284149 0.204057 -0.487133
Cl5   Cl    Cl    0.222951 0.761319 0.304232 -0.500475
Cl6   Cl    Cl    0.144675 0.279451 0.180497 -0.356503
Cl7   Cl    Cl    0.200316 0.654411 0.669155 -0.424097
Cl8   Cl    Cl    0.258183 0.276997 0.599635 -0.481393
Cl9   Cl    Cl    0.629825 0.803621 0.212483 -0.564506
Cl10  Cl    Cl    0.622333 0.197270 0.212397 -0.584423
Cl11  Cl    Cl    0.901276 0.696872 0.333896 -0.365463
Cl12  Cl    Cl    0.897099 0.301040 0.329656 -0.358440
C35   C     C_3   0.732545 0.875073 0.887414 -0.608711
H7    H     H_    0.753785 0.888190 0.041520 0.224946
H8    H     H_    0.760716 0.926336 0.808878 0.174057
H9    H     H_    0.656134 0.878495 0.851012 0.264846
C36   C     C_3   0.730725 0.123948 0.890489 -0.618100
H10   H     H_    0.748721 0.113163 0.046317 0.224655
H11   H     H_    0.654710 0.119210 0.847465 0.260612
H12   H     H_    0.762035 0.072176 0.819889 0.177623
Cl13  Cl    Cl    0.889072 0.773245 0.938149 -0.476884
Cl14  Cl    Cl    0.887424 0.225733 0.935752 -0.462623
Cl15  Cl    Cl    0.584365 0.725483 0.814334 -0.562383
Cl16  Cl    Cl    0.582552 0.272931 0.813305 -0.587107

loop_
_geom_bond_atom_site_label_1
_geom_bond_atom_site_label_2
_ccdc_geom_bond_type
C9    C31   S    
V4    O20   S    
C12   C34   S    
C15   C17   A    
O1    C2    A    
O2    C1    A    
C27   Cl15  S    
O4    C2    A    
C36   H10   S    
C10   C32   S    
C35   H7    S    
C3    C6    S    
C26   Cl14  S    
C25   Cl13  S    
C23   C25   S    
O3    C1    A    
C18   Cl10  S    
C33   H2    S    
C17   Cl9   S    
V2    O10   S    
C1    C15   S    
C34   H5    S    
O11   V4    S    
C21   C23   A    
O8    V2    S    
C8    C12   S    
C19   C21   A    
C7    Cl3   S    
O1    V2    S    
C18   C20   A    
O7    V1    S    
O18   V4    S    
O19   V4    S    
C28   Cl2   S    
C27   Cl1   S    
C4    C5    S    
C36   H11   S    
O19   C32   A    
C35   H8    S    
C6    Cl8   S    
C33   H3    S    
O17   V4    S    
C25   C35   S    
V3    O20   S    
C9    Cl5   S    
O18   C31   A    
C20   C22   A    
C34   H6    S    
C7    C11   S    
O6    V1    S    
O12   V4    S    
C19   Cl11  S    
O9    V2    S    
O2    V2    S    
O5    C4    A    
C13   C23   A    
C14   C24   A    
O9    C4    A    
O15   C32   A    
C5    Cl7   S    
C9    C11   D    
C26   C36   S    
C2    C16   S    
C10   C12   D    
O4    V1    S    
C36   H12   S    
C35   H9    S    
O14   V3    S    
C11   C33   S    
C8    Cl4   S    
C20   Cl12  S    
O13   V3    S    
C13   C15   A    
O16   V3    S    
C14   C16   A    
C28   Cl16  S    
C24   C26   S    
O7    V2    S    
O5    V1    S    
C17   C19   A    
O3    V1    S    
V1    O10   S    
C13   C27   S    
O6    C3    A    
C26   C28   S    
O8    C3    A    
C14   C28   S    
C33   H1    S    
O15   V3    S    
O16   C31   A    
C16   C18   A    
C5    C7    D    
O11   C30   A    
C6    C8    D    
O12   C29   A    
C34   H4    S    
C22   C24   A    
C25   C27   S    
O17   V3    S    
C21   C30   S    
C22   C29   S    
O13   C29   A    
C10   Cl6   S    
O14   C30   A    
