data_mof_unit_15752.cif
_audit_creation_date              2012-10-26T19:15:04-0400
_audit_creation_method            fapswitch 2.2
_symmetry_space_group_name_H-M    P1
_symmetry_Int_Tables_number       1
_space_group_crystal_system       triclinic
_cell_length_a                    10.859767
_cell_length_b                    10.798052
_cell_length_c                    9.595508
_cell_angle_alpha                 90.382927
_cell_angle_beta                  89.331644
_cell_angle_gamma                 91.707911
_cell_volume                      1124.61181987

loop_
_atom_site_label
_atom_site_type_symbol
_atom_type_description
_atom_site_fract_x
_atom_site_fract_y
_atom_site_fract_z
_atom_type_partial_charge
C1    C     C_R   0.503910 0.262862 0.499329 0.536596
C2    C     C_R   0.454222 0.934992 0.390128 0.043913
C3    C     C_3   0.323700 0.928874 0.341576 0.112714
C4    C     C_R   0.262647 0.498706 0.500408 0.540259
C5    C     C_3   0.328813 0.069595 0.338795 -0.170043
C6    C     C_R   0.582104 0.573486 0.073289 0.080078
C7    C     C_R   0.430643 0.416667 0.076502 0.092906
C8    C     C_R   0.429912 0.415343 0.928976 0.372923
C9    C     C_R   0.581882 0.573827 0.926384 0.150046
C10   C     C_3   0.596573 0.712868 0.926847 0.428357
C11   C     C_3   0.599022 0.710515 0.085012 -0.146528
C12   C     C_R   0.933110 0.465693 0.615014 0.027089
C13   C     C_R   0.500209 0.737523 0.500142 0.530027
C14   C     C_R   0.737645 0.504371 0.499080 0.529703
C15   C     C_R   0.060121 0.460229 0.616160 -0.030835
C16   C     C_R   0.129457 0.493185 0.498356 -0.075663
C17   C     C_R   0.068386 0.519089 0.374179 -0.087611
C18   C     C_R   0.940990 0.529296 0.372872 0.216592
C19   C     C_R   0.871491 0.504061 0.496367 -0.036729
C20   C     C_3   0.927384 0.516285 0.760473 0.136592
C21   C     C_3   0.067342 0.509104 0.762707 0.147752
C22   C     C_R   0.457976 0.062613 0.389321 -0.028706
C23   C     C_R   0.516362 0.130128 0.495459 -0.010199
C24   C     C_R   0.587448 0.066497 0.593584 0.235429
C25   C     C_R   0.579985 0.937180 0.595339 -0.054308
C26   C     C_R   0.507587 0.871176 0.498406 -0.067485
Cu1   Cu    Cu3+1 0.499990 0.499980 0.640670 1.011564
Cu2   Cu    Cu3+1 0.500010 0.500020 0.359330 0.950292
H1    H     H_    0.119858 0.541910 0.279877 0.180251
H2    H     H_    0.711937 0.722495 0.772609 0.321880
H3    H     H_    0.418905 0.737907 0.912522 0.317553
H4    H     H_    0.689820 0.738230 0.129351 0.148226
H5    H     H_    0.830056 0.635701 0.280099 0.327420
H6    H     H_    0.893133 0.612144 0.766389 0.105369
H7    H     H_    0.863444 0.474877 0.942777 0.369251
H8    H     H_    0.080500 0.338451 0.831288 0.378380
H9    H     H_    0.687776 0.208410 0.653543 0.353961
H10   H     H_    0.302783 0.786975 0.220572 0.330008
H11   H     H_    0.256560 0.888533 0.418797 0.113392
H12   H     H_    0.325168 0.109425 0.232382 0.196980
H13   H     H_    0.266249 0.112406 0.416750 0.099301
H14   H     H_    0.372433 0.351175 0.133729 0.150810
H15   H     H_    0.519307 0.755817 0.134767 0.166685
H16   H     H_    0.115954 0.600912 0.770965 0.137362
H17   H     H_    0.631582 0.889045 0.671941 0.209387
H18   H     H_    0.340462 0.346065 0.772816 0.387612
N1    N     N_R   0.500790 0.500930 0.147930 -0.288365
N2    N     N_R   0.500790 0.500890 0.852020 -0.262992
O1    O     O_R   0.500000 0.319640 0.618810 -0.489727
O2    O     O_3   0.709365 0.754780 0.869534 -0.664041
O3    O     O_3   0.496087 0.776790 0.874336 -0.627178
O4    O     O_3   0.889873 0.572314 0.252482 -0.672783
O5    O     O_3   0.866317 0.432684 0.850678 -0.631340
O6    O     O_3   0.110783 0.422799 0.858585 -0.639366
O7    O     O_3   0.662963 0.125556 0.689502 -0.627743
O8    O     O_3   0.314190 0.877687 0.207463 -0.669646
O9    O     O_R   0.500010 0.319680 0.381230 -0.499105
O10   O     O_R   0.319650 0.499970 0.618810 -0.512497
O11   O     O_R   0.319660 0.500010 0.381230 -0.521785
O12   O     O_R   0.499990 0.680320 0.618770 -0.472699
O13   O     O_R   0.500000 0.680360 0.381190 -0.523115
O14   O     O_R   0.680340 0.499990 0.618770 -0.493407
O15   O     O_R   0.680350 0.500030 0.381190 -0.471322
O16   O     O_3   0.356345 0.324297 0.869319 -0.661447

loop_
_geom_bond_atom_site_label_1
_geom_bond_atom_site_label_2
_ccdc_geom_bond_type
Cu1   N2    S    
C2    C22   A    
C23   C24   A    
C8    N2    A    
Cu2   N1    S    
C11   H15   S    
Cu1   O14   S    
C1    O9    A    
H7    O5    S    
C21   H16   S    
C17   H1    S    
C9    C10   S    
C3    O8    S    
C12   C15   A    
H9    O7    S    
C20   H6    S    
Cu2   O13   S    
C12   C20   S    
C6    C9    A    
C2    C3    S    
H2    O2    S    
C18   O4    S    
C7    C8    A    
C2    C26   A    
C13   O12   A    
H18   O16   S    
Cu2   O9    S    
C24   C25   A    
H5    O4    S    
C13   O13   A    
C8    O16   S    
C14   O15   A    
C12   C19   A    
Cu1   Cu2   S    
C4    C16   S    
C11   H4    S    
C17   C18   A    
C1    C23   S    
Cu1   O12   S    
C21   O6    S    
C7    N1    A    
C13   C26   S    
C7    H14   S    
H8    O6    S    
C6    N1    A    
C10   O3    S    
C3    H11   S    
C15   C16   A    
C10   O2    S    
Cu2   O15   S    
C25   H17   S    
C15   C21   S    
H10   O8    S    
C20   C21   S    
C4    O11   A    
C9    N2    A    
C18   C19   A    
C10   C11   S    
Cu2   O11   S    
C4    O10   A    
C6    C11   S    
C5    H13   S    
C22   C23   A    
C16   C17   A    
C3    C5    S    
C25   C26   A    
C5    H12   S    
C1    O1    A    
C14   C19   S    
C5    C22   S    
Cu1   O1    S    
H3    O3    S    
C20   O5    S    
C24   O7    S    
Cu1   O10   S    
C14   O14   A    
