data_mof_unit_62893.cif
_audit_creation_date              2012-12-10T20:47:29-0500
_audit_creation_method            fapswitch 2.2
_symmetry_space_group_name_H-M    P1
_symmetry_Int_Tables_number       1
_space_group_crystal_system       triclinic
_cell_length_a                    17.621062
_cell_length_b                    19.283656
_cell_length_c                    19.208261
_cell_angle_alpha                 94.401943
_cell_angle_beta                  99.059827
_cell_angle_gamma                 103.157468
_cell_volume                      6233.12966497

loop_
_atom_site_label
_atom_site_type_symbol
_atom_type_description
_atom_site_fract_x
_atom_site_fract_y
_atom_site_fract_z
_atom_type_partial_charge
C1    C     C_R   0.491582 0.506071 0.687777 0.973495
C2    C     C_R   0.910470 0.397706 0.461885 0.502798
C3    C     C_R   0.950735 0.365801 0.415654 -0.172965
C4    C     C_R   0.507196 0.493713 0.311377 0.840826
C5    C     C_R   0.034974 0.386127 0.425794 -0.194614
C6    C     C_R   0.076812 0.439776 0.482211 -0.066266
C7    C     C_R   0.079102 0.352957 0.383005 0.531988
C8    C     C_R   0.161942 0.380027 0.389539 -0.262027
C9    C     C_R   0.158117 0.470979 0.483464 0.531111
C10   C     C_R   0.509050 0.494705 0.234201 -0.161201
C11   C     C_R   0.439580 0.499047 0.187555 -0.129577
C12   C     C_R   0.835694 0.576313 0.636309 0.334750
C13   C     C_R   0.444105 0.517141 0.118293 -0.120013
C14   C     C_R   0.516420 0.523857 0.092884 0.195138
C15   C     C_R   0.585078 0.517467 0.138293 -0.102906
C16   C     C_R   0.491247 0.309246 0.490520 0.938107
C17   C     C_R   0.581503 0.502880 0.208900 -0.110779
C18   C     C_R   0.531362 0.468477 0.879103 -0.161309
C19   C     C_R   0.536608 0.469700 0.806400 -0.141952
C20   C     C_R   0.474133 0.497755 0.906392 0.123800
C21   C     C_R   0.488711 0.506185 0.763621 -0.230627
C22   C     C_R   0.432967 0.537203 0.792026 -0.206721
C23   C     C_R   0.841620 0.511831 0.524226 0.521268
C24   C     C_R   0.423563 0.529431 0.862690 0.489331
C25   C     C_R   0.515177 0.768824 0.510853 -0.234351
C26   C     C_R   0.446265 0.795085 0.506797 -0.176482
C27   C     C_R   0.452898 0.869312 0.513111 0.494997
C28   C     C_R   0.508770 0.691142 0.508714 0.948617
C29   C     C_R   0.527487 0.917907 0.515342 0.123104
C30   C     C_R   0.596347 0.891635 0.519079 -0.173160
C31   C     C_R   0.590589 0.817098 0.518048 -0.143463
C32   C     C_R   0.532189 0.137233 0.550800 -0.124676
C33   C     C_R   0.538710 0.211284 0.547114 -0.196514
C34   C     C_R   0.914849 0.498046 0.554099 -0.170596
C35   C     C_R   0.480919 0.086282 0.496007 0.105580
C36   C     C_R   0.490875 0.233375 0.491323 -0.193719
C37   C     C_R   0.436350 0.182809 0.440104 0.441379
C38   C     C_R   0.433383 0.109277 0.440510 -0.167317
C39   C     C_R   0.287543 0.459971 0.459997 1.024182
C40   C     C_R   0.713247 0.539324 0.540583 0.898055
C41   C     C_R   0.798979 0.545220 0.566707 -0.352647
C42   C     C_R   0.200940 0.438412 0.441292 -0.312721
C43   C     C_R   0.912037 0.569198 0.664571 0.479302
C44   C     C_3   0.120643 0.639770 0.693882 -0.113449
C45   C     C_R   0.954071 0.533919 0.621887 -0.311291
C46   C     C_3   0.045451 0.231475 0.374760 -0.233876
C47   C     C_2   0.588107 0.428761 0.774683 0.954028
C48   C     C_2   0.586253 0.437803 0.927546 1.051123
C49   C     C_2   0.660646 0.524418 0.110685 0.973879
C50   C     C_2   0.655126 0.501380 0.257356 0.994764
C51   C     C_2   0.382870 0.576823 0.748615 0.940755
C52   C     C_2   0.373819 0.530993 0.072999 1.008277
C53   C     C_3   0.295304 0.502040 0.876821 -0.197260
C54   C     C_2   0.361818 0.485369 0.211586 1.028146
C55   C     C_2   0.591257 0.265837 0.603966 0.963104
C56   C     C_R   0.952779 0.454187 0.515345 -0.073317
C57   C     C_3   0.174336 0.591650 0.489851 -0.270708
C58   C     C_2   0.577735 0.113517 0.612498 1.053077
C59   C     C_2   0.674203 0.942646 0.520642 1.010202
C60   C     C_2   0.663400 0.789442 0.523668 1.029981
C61   C     C_3   0.311881 0.198565 0.409878 -0.232031
C62   C     C_3   0.377224 0.904044 0.587810 -0.204559
C63   C     C_2   0.380668 0.056871 0.381681 0.977288
C64   C     C_2   0.365816 0.746472 0.497102 0.967107
C65   C     C_2   0.206262 0.347689 0.340626 0.965878
C66   C     C_2   0.901819 0.317207 0.353039 1.081202
C67   C     C_R   0.035449 0.464491 0.533120 -0.163511
C68   C     C_3   0.937245 0.543427 0.778461 -0.183690
C69   C     C_3   0.764780 0.585340 0.725847 -0.087100
C70   C     C_3   0.853103 0.557264 0.419882 -0.227923
C71   C     C_3   0.139695 0.422115 0.657039 -0.234458
C72   C     C_3   0.814175 0.326816 0.508886 -0.135305
C73   C     C_R   0.073413 0.496838 0.602425 0.473676
C74   C     C_R   0.034770 0.534818 0.644462 0.423843
H1    H     H_    0.080806 0.670793 0.667072 0.144267
H2    H     H_    0.718776 0.441857 0.311822 0.375282
H3    H     H_    0.318287 0.584072 0.653990 0.383793
H4    H     H_    0.257769 0.496172 0.030189 0.345665
H5    H     H_    0.273588 0.486735 0.818804 0.141743
H6    H     H_    0.249393 0.523334 0.898624 0.205350
H7    H     H_    0.301990 0.453880 0.903328 0.158061
H8    H     H_    0.266332 0.521690 0.226801 0.356409
H9    H     H_    0.674874 0.359099 0.629330 0.340041
H10   H     H_    0.108985 0.584842 0.478750 0.137492
H11   H     H_    0.198326 0.596787 0.439775 0.180069
H12   H     H_    0.166291 0.633275 0.661600 0.169699
H13   H     H_    0.199410 0.642289 0.525699 0.204235
H14   H     H_    0.684029 0.120968 0.673666 0.369801
H15   H     H_    0.775945 0.965455 0.481933 0.357713
H16   H     H_    0.719244 0.718886 0.484428 0.343124
H17   H     H_    0.315352 0.239582 0.454937 0.175917
H18   H     H_    0.287852 0.144065 0.424279 0.139954
H19   H     H_    0.268744 0.206994 0.364661 0.213353
H20   H     H_    0.324722 0.926103 0.590475 0.203412
H21   H     H_    0.429634 0.943222 0.620080 0.197190
H22   H     H_    0.367151 0.852363 0.611117 0.144944
H23   H     H_    0.151979 0.671525 0.745097 0.202605
H24   H     H_    0.330273 0.037019 0.277959 0.356606
H25   H     H_    0.251289 0.725811 0.448330 0.321856
H26   H     H_    0.309462 0.326810 0.323270 0.378588
H27   H     H_    0.873308 0.297466 0.246336 0.364585
H28   H     H_    0.975013 0.506147 0.768605 0.182764
H29   H     H_    0.875089 0.511629 0.772695 0.101935
H30   H     H_    0.956594 0.568158 0.834398 0.200368
H31   H     H_    0.750802 0.525778 0.715365 0.135502
H32   H     H_    0.708178 0.600747 0.727961 0.208118
H33   H     H_    0.803117 0.603494 0.778673 0.179064
H34   H     H_    0.014254 0.232393 0.420799 0.143214
H35   H     H_    0.918794 0.567088 0.433033 0.141161
H36   H     H_    0.834202 0.606622 0.435450 0.163045
H37   H     H_    0.836337 0.544654 0.361460 0.226870
H38   H     H_    0.116460 0.377789 0.612860 0.141867
H39   H     H_    0.101135 0.416316 0.697988 0.145691
H40   H     H_    0.199110 0.417422 0.682389 0.199725
H41   H     H_    0.828910 0.358547 0.562136 0.129859
H42   H     H_    0.846827 0.283701 0.508321 0.147894
H43   H     H_    0.749989 0.300406 0.499074 0.235676
H44   H     H_    0.107615 0.228265 0.392861 0.134336
H45   H     H_    0.014802 0.182041 0.338530 0.219525
H46   H     H_    0.640579 0.346062 0.779207 0.378604
H47   H     H_    0.699002 0.433806 0.963026 0.357084
H48   H     H_    0.757880 0.487088 0.105140 0.354548
N1    N     N_2   0.521216 0.532248 0.020529 -0.099635
N2    N     N_2   0.464514 0.492705 0.977687 -0.122581
N3    N     N_2   0.536090 0.993215 0.513293 -0.121980
N4    N     N_2   0.472854 0.011344 0.496354 -0.046934
O1    O     O_3   0.500000 0.500000 0.500000 -0.527351
O2    O     O_R   0.321500 0.427480 0.506110 -0.620364
O3    O     O_R   0.674970 0.575130 0.575140 -0.606076
O4    O     O_R   0.328550 0.507430 0.428780 -0.619961
O5    O     O_R   0.674980 0.489960 0.489960 -0.578081
O6    O     O_3   0.077394 0.572859 0.707984 -0.571635
O7    O     O_3   0.042526 0.291253 0.337267 -0.551105
O8    O     O_2   0.619524 0.449433 0.725236 -0.704044
O9    O     O_R   0.599940 0.365694 0.801067 -0.743146
O10   O     O_2   0.560392 0.395388 0.967317 -0.578689
O11   O     O_R   0.667726 0.458049 0.927832 -0.776593
O12   O     O_R   0.540930 0.349770 0.460420 -0.579650
O13   O     O_2   0.680871 0.571382 0.073305 -0.575786
O14   O     O_R   0.708357 0.476929 0.127065 -0.762973
O15   O     O_2   0.706621 0.556776 0.276626 -0.641103
O16   O     O_R   0.666044 0.436321 0.279299 -0.704574
O17   O     O_2   0.368036 0.630406 0.776037 -0.544515
O18   O     O_R   0.351491 0.552616 0.677083 -0.794374
O19   O     O_2   0.379800 0.587008 0.046131 -0.531904
O20   O     O_R   0.301213 0.480048 0.061020 -0.782805
O21   O     O_3   0.366724 0.555887 0.890705 -0.527197
O22   O     O_2   0.337128 0.429012 0.234986 -0.600282
O23   O     O_R   0.550820 0.667300 0.556650 -0.633813
O24   O     O_R   0.317735 0.537227 0.208432 -0.766078
O25   O     O_2   0.589376 0.258247 0.666296 -0.601896
O26   O     O_R   0.642155 0.326084 0.586118 -0.817749
O27   O     O_3   0.196691 0.535437 0.524173 -0.565830
O28   O     O_2   0.543440 0.070245 0.647411 -0.612800
O29   O     O_R   0.659732 0.141059 0.630703 -0.759393
O30   O     O_2   0.693638 0.998728 0.560541 -0.584708
O31   O     O_R   0.724958 0.926692 0.476009 -0.768568
O32   O     O_2   0.719839 0.815593 0.571341 -0.579517
O33   O     O_R   0.667125 0.733406 0.474578 -0.801448
O34   O     O_R   0.445640 0.455160 0.644460 -0.613141
O35   O     O_3   0.386331 0.205899 0.388776 -0.564554
O36   O     O_3   0.385369 0.893937 0.516084 -0.537032
O37   O     O_2   0.348362 0.996630 0.392896 -0.560271
O38   O     O_R   0.367381 0.076867 0.313186 -0.719818
O39   O     O_2   0.353350 0.695074 0.530839 -0.663100
O40   O     O_R   0.303866 0.761134 0.450076 -0.718938
O41   O     O_2   0.172339 0.319233 0.281322 -0.511698
O42   O     O_R   0.286598 0.350075 0.361496 -0.835458
O43   O     O_2   0.853423 0.263285 0.361111 -0.600406
O44   O     O_R   0.910011 0.334322 0.284749 -0.733608
O45   O     O_R   0.462610 0.527770 0.338470 -0.635043
O46   O     O_3   0.945071 0.598723 0.733730 -0.540874
O47   O     O_3   0.800869 0.621078 0.673657 -0.550540
O48   O     O_3   0.814575 0.498799 0.451622 -0.543717
O49   O     O_3   0.147773 0.489698 0.631878 -0.538980
O50   O     O_3   0.829285 0.371274 0.455109 -0.553025
O51   O     O_R   0.540910 0.554790 0.665460 -0.634169
O52   O     O_R   0.550840 0.462270 0.351610 -0.601836
O53   O     O_R   0.445650 0.335310 0.524600 -0.663878
O54   O     O_R   0.462600 0.647620 0.458330 -0.616378
Zn1   Zn    Zn3+2 0.565550 0.451340 0.451340 1.099982
Zn2   Zn    Zn3+2 0.429430 0.430690 0.543050 1.055021
Zn3   Zn    Zn3+2 0.439490 0.544930 0.432570 1.075812
Zn4   Zn    Zn3+2 0.565540 0.573040 0.573050 1.053095

loop_
_geom_bond_atom_site_label_1
_geom_bond_atom_site_label_2
_ccdc_geom_bond_type
C25   C31   A    
C40   O3    A    
C1    C21   S    
C52   O19   D    
C4    O45   A    
C62   H22   S    
C27   C29   A    
O1    Zn3   S    
C73   C74   A    
C66   O43   D    
C60   O33   S    
C32   C58   S    
C6    C9    A    
C69   H33   S    
C55   O26   S    
C54   O24   S    
C23   O48   S    
C62   O36   S    
C51   O18   S    
C25   C28   S    
C34   C56   A    
C72   H41   S    
C46   H44   S    
C9    C42   A    
C37   C38   A    
C48   O11   S    
C61   O35   S    
C40   O5    A    
C21   C22   A    
C36   C37   A    
C53   H5    S    
C8    C42   A    
C7    O7    S    
C12   C43   A    
C74   O6    S    
O4    Zn3   S    
C27   O36   S    
C5    C6    A    
C19   C47   S    
C10   C17   A    
C53   O21   S    
C33   C36   A    
C71   H39   S    
C53   H7    S    
C18   C19   A    
H47   O11   S    
H16   O33   S    
O12   Zn1   S    
C26   C64   S    
C64   O40   S    
C70   H36   S    
C2    O50   S    
C1    O51   A    
C20   C24   A    
C44   H1    S    
C57   H11   S    
C46   H34   S    
C72   H43   S    
O23   Zn4   S    
C68   H29   S    
C67   C73   A    
C29   C30   A    
C58   O28   D    
O54   Zn3   S    
C70   O48   S    
H25   O40   S    
H27   O44   S    
C72   O50   S    
C9    O27   S    
C8    C65   S    
C13   C14   A    
C30   C59   S    
O1    Zn4   S    
C69   O47   S    
C44   H12   S    
O34   Zn2   S    
C66   O44   S    
C39   C42   S    
C63   O38   S    
C32   C35   A    
N1    N2    D    
C35   C38   A    
O2    Zn2   S    
C16   O53   A    
C10   C11   A    
C4    O52   A    
C5    C7    A    
C69   H31   S    
C25   C26   A    
C57   O27   S    
C57   H13   S    
C71   H40   S    
C45   C74   A    
C31   C60   S    
C73   O49   S    
C35   N4    S    
C63   O37   D    
H14   O29   S    
O5    Zn1   S    
C64   O39   D    
C70   H35   S    
C13   C52   S    
C43   C45   A    
C44   H23   S    
C65   O42   S    
C59   O30   D    
C23   C34   A    
C71   H38   S    
C53   H6    S    
C26   C27   A    
C57   H10   S    
C33   C55   S    
C34   C45   A    
H15   O31   S    
C28   O54   A    
H8    O24   S    
C11   C54   S    
C61   H17   S    
C40   C41   S    
O3    Zn4   S    
C62   H20   S    
C47   O8    D    
N3    N4    D    
O1    Zn1   S    
C22   C24   A    
C3    C66   S    
H9    O26   S    
C37   O35   S    
C4    C10   S    
C56   C67   A    
C12   C41   A    
C59   O31   S    
C38   C63   S    
O45   Zn3   S    
C58   O29   S    
C15   C17   A    
C72   H42   S    
C6    C67   A    
C69   H32   S    
C52   O20   S    
C14   N1    S    
C62   H21   S    
C47   O9    S    
C48   O10   D    
C1    O34   A    
C16   O12   A    
C68   H30   S    
C60   O32   D    
C3    C5    A    
C24   O21   S    
C18   C48   S    
C17   C50   S    
H24   O38   S    
C43   O46   S    
C50   O15   D    
C55   O25   D    
C39   O2    A    
C39   O4    A    
C51   O17   D    
C44   O6    S    
O51   Zn4   S    
C65   O41   D    
C23   C41   A    
H26   O42   S    
H46   O9    S    
C32   C33   A    
O53   Zn2   S    
C49   O13   D    
C2    C3    A    
H3    O18   S    
H48   O14   S    
C54   O22   D    
C68   H28   S    
C16   C36   S    
C46   O7    S    
C11   C13   A    
C30   C31   A    
C61   H18   S    
C71   O49   S    
C46   H45   S    
C18   C20   A    
C15   C49   S    
C20   N2    S    
O52   Zn1   S    
C7    C8    A    
C70   H37   S    
H4    O20   S    
C50   O16   S    
C28   O23   A    
C49   O14   S    
O1    Zn2   S    
C14   C15   A    
C22   C51   S    
C2    C56   A    
C29   N3    S    
C61   H19   S    
C68   O46   S    
C12   O47   S    
C19   C21   A    
H2    O16   S    
