data_mof_unit_16907.cif
_audit_creation_date              2012-12-10T17:24:45-0500
_audit_creation_method            fapswitch 2.2
_symmetry_space_group_name_H-M    P1
_symmetry_Int_Tables_number       1
_space_group_crystal_system       triclinic
_cell_length_a                    23.507095
_cell_length_b                    10.851855
_cell_length_c                    9.605369
_cell_angle_alpha                 91.193741
_cell_angle_beta                  90.178287
_cell_angle_gamma                 94.453294
_cell_volume                      2442.33204014

loop_
_atom_site_label
_atom_site_type_symbol
_atom_type_description
_atom_site_fract_x
_atom_site_fract_y
_atom_site_fract_z
_atom_type_partial_charge
C1    C     C_R   0.504056 0.263665 0.498870 0.797632
C2    C     C_R   0.962162 0.276730 0.447630 -0.152340
C3    C     C_R   0.021519 0.276768 0.447120 -0.141450
C4    C     C_R   0.055800 0.387041 0.471497 -0.021708
C5    C     C_R   0.029882 0.498179 0.496296 -0.018351
C6    C     C_R   0.063860 0.609432 0.520065 -0.030916
C7    C     C_R   0.037578 0.719732 0.544540 -0.143037
C8    C     C_R   0.978219 0.719549 0.546011 -0.155559
C9    C     C_R   0.115541 0.389229 0.472580 0.608509
C10   C     C_R   0.123434 0.607128 0.519202 0.613733
C11   C     C_R   0.238810 0.506797 0.375499 -0.146949
C12   C     C_R   0.390966 0.499271 0.499886 0.834975
C13   C     C_R   0.298057 0.507152 0.374775 -0.184981
C14   C     C_R   0.328244 0.498517 0.500039 -0.120576
C15   C     C_R   0.298066 0.488825 0.625957 -0.272230
C16   C     C_R   0.238474 0.487528 0.627547 0.484287
C17   C     C_R   0.208798 0.497347 0.500932 0.226508
C18   C     C_R   0.761563 0.503062 0.626101 -0.101282
C19   C     C_R   0.702225 0.502635 0.626501 -0.228356
C20   C     C_R   0.671594 0.497840 0.500289 -0.029566
C21   C     C_R   0.701417 0.492309 0.373879 -0.210420
C22   C     C_R   0.760699 0.492121 0.373836 -0.105521
C23   C     C_R   0.497740 0.737805 0.502991 0.821852
C24   C     C_R   0.790894 0.497754 0.499827 0.363583
C25   C     C_R   0.563125 0.139572 0.721274 -0.141703
C26   C     C_R   0.573384 0.086135 0.848357 -0.128806
C27   C     C_R   0.550502 0.967090 0.873514 -0.145514
C28   C     C_R   0.521893 0.897589 0.767416 -0.180452
C29   C     C_R   0.516549 0.945289 0.631727 0.108927
C30   C     C_R   0.530355 0.073095 0.616355 0.100538
C31   C     C_R   0.510116 0.131086 0.497614 -0.114867
C32   C     C_R   0.488760 0.060224 0.383337 -0.193639
C33   C     C_R   0.484913 0.932787 0.388107 -0.190167
C34   C     C_R   0.608964 0.498713 0.500186 0.793625
C35   C     C_R   0.497954 0.873234 0.510881 -0.096699
C36   C     C_R   0.592552 0.646388 0.136484 -0.022779
C37   C     C_R   0.638783 0.688649 0.054087 -0.240832
C38   C     C_R   0.633130 0.692709 0.912994 -0.237157
C39   C     C_R   0.583266 0.644938 0.851887 -0.154818
C40   C     C_R   0.541755 0.571767 0.925099 0.180792
C41   C     C_R   0.543462 0.572429 0.075318 0.155151
C42   C     C_R   0.460014 0.431987 0.072005 -0.053948
C43   C     C_R   0.460221 0.431579 0.924367 -0.038384
C44   C     C_R   0.884162 0.606634 0.523476 0.535731
C45   C     C_R   0.876278 0.389138 0.474151 0.536594
C46   C     C_R   0.935868 0.386942 0.472701 -0.016785
C47   C     C_R   0.969846 0.498088 0.497161 -0.011525
C48   C     C_R   0.943924 0.609128 0.522557 -0.016632
Cu1   Cu    Cu3+1 0.500000 0.499990 0.640660 0.935086
Cu2   Cu    Cu3+1 0.500000 0.500010 0.359340 0.954060
H1    H     H_    0.936994 0.190097 0.428571 0.192744
H2    H     H_    0.680456 0.506042 0.725453 0.168108
H3    H     H_    0.679044 0.487918 0.274994 0.160027
H4    H     H_    0.783266 0.487943 0.275948 0.138741
H5    H     H_    0.474179 0.103363 0.290391 0.166359
H6    H     H_    0.581470 0.232763 0.705709 0.154906
H7    H     H_    0.597328 0.138741 0.929017 0.143134
H8    H     H_    0.555134 0.927973 0.975374 0.148581
H9    H     H_    0.501800 0.810378 0.798500 0.174564
H10   H     H_    0.470024 0.880557 0.295911 0.163967
H11   H     H_    0.427259 0.375895 0.125498 0.143201
H12   H     H_    0.040411 0.190149 0.427818 0.191915
H13   H     H_    0.677253 0.735583 0.099395 0.168306
H14   H     H_    0.666091 0.740620 0.851396 0.179775
H15   H     H_    0.579195 0.669007 0.746225 0.214693
H16   H     H_    0.427598 0.375061 0.867787 0.148891
H17   H     H_    0.062757 0.806430 0.563118 0.198376
H18   H     H_    0.959334 0.806143 0.565527 0.191171
H19   H     H_    0.216001 0.514033 0.278229 0.182159
H20   H     H_    0.320169 0.514674 0.276205 0.183671
H21   H     H_    0.320954 0.481767 0.723069 0.198223
H22   H     H_    0.784797 0.507035 0.723813 0.139873
N1    N     N_R   0.851816 0.497807 0.499418 -0.472589
N2    N     N_R   0.147857 0.497844 0.498044 -0.457267
N3    N     N_R   0.500540 0.501210 0.147910 -0.200223
N4    N     N_R   0.500560 0.501290 0.852040 -0.204469
O1    O     O_R   0.500000 0.319640 0.618810 -0.581282
O2    O     O_2   0.842990 0.283632 0.451181 -0.526735
O3    O     O_2   0.141220 0.283766 0.449465 -0.499413
O4    O     O_2   0.156761 0.712952 0.539653 -0.488678
O5    O     O_R   0.500000 0.319660 0.381240 -0.579966
O6    O     O_R   0.417880 0.499950 0.618810 -0.579618
O7    O     O_R   0.417880 0.499980 0.381240 -0.584258
O8    O     O_R   0.500000 0.680340 0.618760 -0.620686
O9    O     O_R   0.500000 0.680360 0.381190 -0.578618
O10   O     O_R   0.582120 0.500020 0.618760 -0.609027
O11   O     O_R   0.582120 0.500050 0.381190 -0.586251
O12   O     O_2   0.858514 0.712018 0.547403 -0.527788
C49   C     C_1   0.599281 0.710620 0.268648 0.335038
N5    N     N_1   0.609035 0.766140 0.371431 -0.314135
S1    S     S_3+6 0.201935 0.473316 0.787983 0.021675
O13   O     O_2   0.156343 0.368473 0.777147 -0.271486
O14   O     O_2   0.242494 0.448871 0.903737 -0.301202
O15   O     O_3   0.171440 0.605287 0.824203 -0.501659
H23   H     H_    0.146627 0.586481 0.905396 0.373618

loop_
_geom_bond_atom_site_label_1
_geom_bond_atom_site_label_2
_ccdc_geom_bond_type
C36   C49   S    
C1    O1    A    
C19   C20   A    
C25   H6    S    
C1    C31   S    
C7    C8    A    
C22   H4    S    
C45   C46   A    
C2    C46   A    
C5    C47   A    
C42   N3    A    
C29   C30   A    
C18   C24   A    
Cu1   O8    S    
C36   C37   A    
C34   O10   A    
C5    C6    A    
C24   N1    S    
C3    H12   S    
C11   C13   A    
S1    O14   D    
C13   H20   S    
C1    O5    A    
C15   C16   A    
C43   N4    A    
C45   N1    A    
C18   C19   A    
C9    O3    S    
Cu2   O9    S    
C19   H2    S    
C11   C17   A    
C31   C32   A    
C16   C17   A    
C45   O2    S    
C32   H5    S    
C20   C34   S    
C21   C22   A    
C39   H15   S    
C36   C41   A    
C44   N1    A    
C37   H13   S    
Cu2   O7    S    
C38   H14   S    
C18   H22   S    
C23   O8    A    
S1    O13   D    
C10   O4    S    
C25   C26   A    
C40   N4    A    
C12   O7    A    
Cu1   O6    S    
C8    C48   A    
C37   C38   A    
C41   N3    A    
C47   C48   A    
C30   C31   A    
C26   C27   A    
Cu1   N4    S    
C12   O6    A    
C42   H11   S    
Cu2   O11   S    
C40   C41   A    
C12   C14   S    
C8    H18   S    
C33   H10   S    
C23   C35   S    
C17   N2    S    
C22   C24   A    
C42   C43   A    
C3    C4    A    
C39   C40   A    
C28   H9    S    
C25   C30   A    
C46   C47   A    
C28   C29   A    
Cu1   O10   S    
C4    C5    A    
C27   H8    S    
C6    C10   A    
C11   H19   S    
C6    C7    A    
C15   H21   S    
C29   C35   A    
C32   C33   A    
C2    C3    A    
C4    C9    A    
C44   O12   S    
Cu2   N3    S    
S1    O15   S    
C21   H3    S    
C10   N2    A    
C38   C39   A    
C43   H16   S    
C33   C35   A    
Cu1   O1    S    
C34   O11   A    
O15   H23   S    
C26   H7    S    
C2    H1    S    
C7    H17   S    
C9    N2    A    
C20   C21   A    
C16   S1    S    
Cu1   Cu2   S    
C23   O9    A    
C27   C28   A    
C14   C15   A    
C49   N5    T    
C13   C14   A    
C44   C48   A    
Cu2   O5    S    
