data_mof_unit_14670.cif
_audit_creation_date              2012-12-11T16:37:17-0500
_audit_creation_method            fapswitch 2.2
_symmetry_space_group_name_H-M    P1
_symmetry_Int_Tables_number       1
_space_group_crystal_system       triclinic
_cell_length_a                    19.412301
_cell_length_b                    6.950067
_cell_length_c                    17.754679
_cell_angle_alpha                 90.190558
_cell_angle_beta                  108.832122
_cell_angle_gamma                 90.060008
_cell_volume                      2267.15637643

loop_
_atom_site_label
_atom_site_type_symbol
_atom_type_description
_atom_site_fract_x
_atom_site_fract_y
_atom_site_fract_z
_atom_type_partial_charge
O1    O     O_R   0.561710 0.369960 0.440200 -0.531281
O2    O     O_R   0.061710 0.630040 0.940200 -0.541144
O3    O     O_R   0.412630 0.033330 0.406330 -0.543118
O4    O     O_R   0.912630 0.966670 0.906330 -0.542752
O5    O     O_R   0.438290 0.869790 0.559800 -0.543997
O6    O     O_R   0.938290 0.130210 0.059800 -0.537182
C1    C     C_R   0.384693 0.202557 0.383565 0.687737
C2    C     C_R   0.884794 0.796644 0.883364 0.707842
O7    O     O_R   0.559570 0.039810 0.430640 -0.536703
O8    O     O_R   0.059570 0.960190 0.930640 -0.540598
O9    O     O_R   0.586280 0.876320 0.584290 -0.528546
O10   O     O_R   0.086280 0.123680 0.084290 -0.539347
C3    C     C_R   0.580402 0.208935 0.415262 0.715176
C4    C     C_R   0.080017 0.790691 0.914427 0.660802
O11   O     O_R   0.413720 0.363440 0.415710 -0.541928
O12   O     O_R   0.913720 0.636560 0.915710 -0.532485
O13   O     O_3   0.508590 0.205630 0.550380 -0.369396
O14   O     O_3   0.008590 0.794370 0.050380 -0.376809
V1    V     V_3+5 0.498410 0.928130 0.490650 1.428401
V2    V     V_3+5 0.998410 0.071870 0.990650 1.377848
O15   O     O_R   0.587370 0.546990 0.593670 -0.533005
O16   O     O_R   0.087370 0.453010 0.093670 -0.553203
C5    C     C_R   0.615097 0.716896 0.617045 0.714055
C6    C     C_R   0.115779 0.283954 0.116448 0.691788
O17   O     O_R   0.440430 0.540520 0.569360 -0.546057
O18   O     O_R   0.940430 0.459480 0.069360 -0.541711
C7    C     C_R   0.418486 0.709142 0.583963 0.680431
C8    C     C_R   0.918933 0.291094 0.084589 0.700570
V3    V     V_3+5 0.501590 0.428960 0.509350 1.432301
V4    V     V_3+5 0.001590 0.571040 0.009350 1.369572
O19   O     O_3   0.491410 0.701330 0.449620 -0.371038
O20   O     O_3   0.991410 0.298670 0.949620 -0.365027
C9    C     C_R   0.314025 0.892206 0.717515 -0.193080
C10   C     C_R   0.777352 0.119999 0.175612 -0.178559
H1    H     H_    0.312459 0.021472 0.751193 0.118097
H2    H     H_    0.742146 0.996375 0.170044 0.110240
C11   C     C_R   0.362127 0.884863 0.673487 -0.175235
C12   C     C_R   0.825171 0.123237 0.131161 -0.170527
H3    H     H_    0.395923 0.009081 0.673663 0.126798
H4    H     H_    0.825841 0.001721 0.093044 0.122741
C13   C     C_R   0.367642 0.718052 0.631112 -0.072194
C14   C     C_R   0.870063 0.283183 0.134182 -0.087561
C15   C     C_R   0.322375 0.560694 0.631785 -0.201173
C16   C     C_R   0.866113 0.439416 0.182957 -0.179332
H5    H     H_    0.324774 0.433690 0.597138 0.115661
H6    H     H_    0.899199 0.565905 0.184313 0.130179
C17   C     C_R   0.271825 0.567711 0.673665 0.169983
C18   C     C_R   0.819449 0.436904 0.229589 0.164776
C19   C     C_R   0.269005 0.734698 0.719301 0.069421
C20   C     C_R   0.774540 0.272819 0.226769 0.048772
C21   C     C_R   0.224218 0.613088 0.828730 -0.127126
C22   C     C_R   0.749033 0.293946 0.357664 -0.146721
H7    H     H_    0.263704 0.497879 0.840359 0.101780
H8    H     H_    0.804936 0.334539 0.387505 0.121996
C23   C     C_R   0.177432 0.624359 0.874212 -0.163370
C24   C     C_R   0.701456 0.283280 0.402269 -0.167195
H9    H     H_    0.180534 0.513641 0.917892 0.114360
H10   H     H_    0.720757 0.323236 0.464473 0.120796
C25   C     C_R   0.128620 0.778759 0.864812 -0.051890
C26   C     C_R   0.629690 0.219808 0.367184 -0.034166
C27   C     C_R   0.127119 0.920441 0.807948 -0.162199
C28   C     C_R   0.605498 0.171079 0.286126 -0.163209
H11   H     H_    0.090144 0.041111 0.799271 0.121667
H12   H     H_    0.550095 0.122262 0.257871 0.108004
C29   C     C_R   0.172045 0.904786 0.760170 -0.165840
C30   C     C_R   0.652133 0.190874 0.240422 -0.134414
H13   H     H_    0.168487 0.012874 0.715340 0.116014
H14   H     H_    0.631485 0.157504 0.177474 0.109844
C31   C     C_R   0.220553 0.749635 0.769460 0.096053
C32   C     C_R   0.724455 0.254871 0.275439 0.078364
C33   C     C_R   0.803682 0.618138 0.764019 0.015199
C34   C     C_R   0.306143 0.375744 0.262896 0.046145
C35   C     C_R   0.817831 0.781682 0.813204 -0.102908
C36   C     C_R   0.318142 0.215973 0.313127 -0.102018
C37   C     C_R   0.765076 0.927667 0.794456 -0.179534
C38   C     C_R   0.264044 0.072937 0.294555 -0.143586
H15   H     H_    0.772770 0.054380 0.831636 0.119321
H16   H     H_    0.270392 0.947344 0.331892 0.110289
C39   C     C_R   0.699224 0.904659 0.731287 -0.094496
C40   C     C_R   0.198404 0.098574 0.231370 -0.125952
H17   H     H_    0.658634 0.016778 0.720909 0.134421
H18   H     H_    0.156404 0.990046 0.221685 0.114415
C41   C     C_R   0.684135 0.735291 0.684531 -0.165571
C42   C     C_R   0.185247 0.266309 0.183812 -0.166692
C43   C     C_R   0.739240 0.596696 0.699945 0.055506
C44   C     C_R   0.243110 0.398467 0.197739 0.053304
C45   C     C_3   0.735292 0.387061 0.716721 0.348637
C46   C     C_3   0.245031 0.612641 0.210940 0.298187
C47   C     C_3   0.805740 0.411832 0.787239 -0.468556
C48   C     C_3   0.311356 0.583254 0.283987 -0.377950
H19   H     H_    0.687668 0.355386 0.736509 0.055687
H20   H     H_    0.197140 0.670622 0.224994 0.044457
H21   H     H_    0.855843 0.340106 0.784745 0.175513
H22   H     H_    0.362241 0.649688 0.280071 0.198480
H23   H     H_    0.796807 0.394845 0.845664 0.138580
H24   H     H_    0.300412 0.610787 0.340807 0.114573
O21   O     O_3   0.734549 0.267404 0.650893 -0.538207
C49   C     C_3   0.802552 0.246844 0.638720 -0.220205
H25   H     H_    0.837600 0.144718 0.682430 0.142691
H26   H     H_    0.830106 0.387449 0.639378 0.127898
H27   H     H_    0.793522 0.180490 0.579524 0.142279
O22   O     O_3   0.266189 0.716956 0.153763 -0.544675
C50   C     C_3   0.206870 0.737077 0.083786 -0.137881
H28   H     H_    0.158443 0.797379 0.095724 0.147208
H29   H     H_    0.193857 0.596742 0.052463 0.120027
H30   H     H_    0.222399 0.838733 0.043978 0.135070
C51   C     C_3   0.219901 0.399213 0.664472 -0.384935
C52   C     C_3   0.142160 0.453424 0.615531 -0.744632
H31   H     H_    0.120140 0.564465 0.646483 0.234533
H32   H     H_    0.140624 0.508662 0.556368 0.224772
H33   H     H_    0.106714 0.324137 0.606529 0.209857
H34   H     H_    0.236554 0.277131 0.633602 0.177340
H35   H     H_    0.221185 0.342448 0.722979 0.171497
C53   C     C_3   0.815465 0.618661 0.275285 -0.379831
C54   C     C_3   0.885684 0.654064 0.344233 -0.756317
H36   H     H_    0.900080 0.527137 0.383903 0.219199
H37   H     H_    0.931438 0.685289 0.321403 0.221716
H38   H     H_    0.878451 0.780157 0.379509 0.221999
H39   H     H_    0.806943 0.741794 0.234021 0.180966
H40   H     H_    0.768423 0.619309 0.297656 0.191232

loop_
_geom_bond_atom_site_label_1
_geom_bond_atom_site_label_2
_ccdc_geom_bond_type
C30   H14   S    
O11   V3    S    
C23   C25   A    
O13   V3    S    
C51   H34   S    
O4    C2    A    
V1    O19   S    
O21   C49   S    
C17   C19   A    
C3    C26   S    
C4    C25   S    
O9    V1    S    
C37   C39   A    
C36   C38   A    
C42   C44   A    
C12   C14   A    
O3    C1    A    
C44   C46   S    
C9    C19   A    
C54   H36   S    
C52   H31   S    
C26   C28   A    
C8    C14   S    
C27   H11   S    
O7    C3    A    
C51   H35   S    
C28   H12   S    
O13   V1    S    
O5    C7    A    
O7    V1    S    
O6    C8    A    
C46   H20   S    
O8    V2    S    
C29   H13   S    
C51   C52   S    
O3    V1    S    
O14   V4    S    
V4    O20   S    
C21   C23   A    
C53   H39   S    
C40   C42   A    
C18   C20   A    
C2    O12   A    
C33   C43   A    
C11   C13   A    
C13   C15   A    
C14   C16   A    
C22   H8    S    
C48   H22   S    
C1    C36   S    
C43   C45   S    
O15   C5    A    
O17   V3    S    
C25   C27   A    
C10   C20   A    
C45   H19   S    
C28   C30   A    
C22   C24   A    
C17   C51   S    
C34   C36   A    
O8    C4    A    
C53   C54   S    
C33   C35   A    
C1    O11   A    
C16   H6    S    
C54   H37   S    
O15   V3    S    
C9    C11   A    
C24   C26   A    
C21   H7    S    
O4    V2    S    
C47   H23   S    
C34   C48   S    
C7    C13   S    
C46   O22   S    
C33   C47   S    
C54   H38   S    
O10   V2    S    
O1    V3    S    
C50   H29   S    
C15   H5    S    
C5    C41   S    
C40   H18   S    
C41   C43   A    
C46   C48   S    
O18   V4    S    
C49   H26   S    
C23   H9    S    
O16   C6    A    
O1    C3    A    
C35   C37   A    
C18   C53   S    
V2    O20   S    
O16   V4    S    
C10   C12   A    
C38   C40   A    
C38   H16   S    
C34   C44   A    
C39   H17   S    
C48   H24   S    
O5    V1    S    
O17   C7    A    
C49   H27   S    
O6    V2    S    
O10   C6    A    
O18   C8    A    
C52   H33   S    
O2    V4    S    
C45   C47   S    
C20   C32   S    
V3    O19   S    
C6    C42   S    
C12   H4    S    
C30   C32   A    
C52   H32   S    
C15   C17   A    
C29   C31   A    
O9    C5    A    
C2    C35   S    
C9    H1    S    
C10   H2    S    
C24   H10   S    
C50   H30   S    
O14   V2    S    
C47   H21   S    
O22   C50   S    
O2    C4    A    
C22   C32   A    
C39   C41   A    
C27   C29   A    
C11   H3    S    
C49   H25   S    
C37   H15   S    
C50   H28   S    
C19   C31   S    
C21   C31   A    
O12   V4    S    
C53   H40   S    
C16   C18   A    
C45   O21   S    
