data_mof_unit_40810.cif
_audit_creation_date              2012-12-10T20:52:59-0500
_audit_creation_method            fapswitch 2.2
_symmetry_space_group_name_H-M    P1
_symmetry_Int_Tables_number       1
_space_group_crystal_system       triclinic
_cell_length_a                    18.3473
_cell_length_b                    18.304682
_cell_length_c                    18.309097
_cell_angle_alpha                 59.993669
_cell_angle_beta                  59.889601
_cell_angle_gamma                 59.895946
_cell_volume                      4340.70010405

loop_
_atom_site_label
_atom_site_type_symbol
_atom_type_description
_atom_site_fract_x
_atom_site_fract_y
_atom_site_fract_z
_atom_type_partial_charge
C1    C     C_R   0.389877 0.110182 0.110172 0.783851
C2    C     C_R   0.345520 0.821462 0.824044 -0.179570
C3    C     C_R   0.032846 0.557483 0.912462 0.065319
C4    C     C_R   0.443282 0.087925 0.966719 0.072935
C5    C     C_R   0.556718 0.912075 0.033281 0.072935
C6    C     C_R   0.945884 0.946026 0.554050 -0.165355
C7    C     C_R   0.054116 0.053974 0.445949 -0.165355
C8    C     C_R   0.946023 0.553917 0.945925 -0.159575
C9    C     C_R   0.053977 0.446082 0.054075 -0.159575
C10   C     C_R   0.553869 0.945856 0.946007 -0.171010
C11   C     C_R   0.446131 0.054144 0.053993 -0.171011
C12   C     C_3   0.085538 0.652754 0.253148 -0.901346
C13   C     C_R   0.170766 0.150216 0.666087 -0.186051
C14   C     C_3   0.914462 0.347246 0.746852 -0.901345
C15   C     C_3   0.590149 0.325696 0.196772 -0.951078
C16   C     C_3   0.409851 0.674304 0.803228 -0.951077
C17   C     C_3   0.309338 0.185491 0.603903 -0.953750
C18   C     C_3   0.690662 0.814509 0.396097 -0.953751
C19   C     C_3   0.865519 0.482442 0.405126 -0.929207
C20   C     C_3   0.134480 0.517558 0.594874 -0.929206
C21   C     C_3   0.593235 0.289682 0.934042 -0.906034
C22   C     C_3   0.406765 0.710317 0.065958 -0.906034
C23   C     C_3   0.306070 0.917137 0.583432 -0.934757
C24   C     C_R   0.829234 0.849784 0.333913 -0.186050
C25   C     C_3   0.693930 0.082863 0.416568 -0.934756
C26   C     C_R   0.019904 0.625819 0.253499 0.215259
C27   C     C_R   0.980096 0.374181 0.746501 0.215259
C28   C     C_R   0.612182 0.271031 0.143792 0.217685
C29   C     C_R   0.387818 0.728969 0.856208 0.217685
C30   C     C_R   0.263127 0.126935 0.620915 0.214289
C31   C     C_R   0.736873 0.873065 0.379085 0.214289
C32   C     C_R   0.975055 0.567614 0.330575 0.077071
C33   C     C_R   0.610123 0.889818 0.889828 0.783850
C34   C     C_R   0.024945 0.432385 0.669425 0.077072
C35   C     C_R   0.590898 0.309039 0.064826 0.090435
C36   C     C_R   0.409102 0.690960 0.935174 0.090435
C37   C     C_R   0.308835 0.051158 0.592502 0.091747
C38   C     C_R   0.691165 0.948842 0.407498 0.091748
C39   C     C_R   0.914243 0.545191 0.325473 0.165083
C40   C     C_R   0.085756 0.454809 0.674528 0.165083
C41   C     C_R   0.613484 0.252669 0.019024 0.205701
C42   C     C_R   0.386516 0.747331 0.980976 0.205701
C43   C     C_R   0.260406 0.999451 0.610839 0.190479
C44   C     C_R   0.110263 0.110027 0.389892 0.791264
C45   C     C_R   0.739594 0.000548 0.389161 0.190480
C46   C     C_R   0.898421 0.582044 0.243929 0.155908
C47   C     C_R   0.101579 0.417956 0.756071 0.155908
C48   C     C_R   0.654487 0.159229 0.054167 0.173611
C49   C     C_R   0.345513 0.840771 0.945833 0.173611
C50   C     C_R   0.166928 0.025506 0.655114 0.170863
C51   C     C_R   0.833072 0.974494 0.344886 0.170862
C52   C     C_R   0.944564 0.638223 0.168314 -0.233480
C53   C     C_R   0.055435 0.361777 0.831686 -0.233480
C54   C     C_R   0.674947 0.123269 0.132211 -0.247297
C55   C     C_R   0.889737 0.889973 0.610108 0.791263
C56   C     C_R   0.325053 0.876730 0.867789 -0.247297
C57   C     C_R   0.123189 0.100568 0.682630 -0.234145
C58   C     C_R   0.876811 0.899432 0.317370 -0.234145
C59   C     C_R   0.939110 0.584381 0.471536 -0.258452
C60   C     C_R   0.060890 0.415619 0.528464 -0.258452
C61   C     C_R   0.592877 0.462805 0.978174 -0.267499
C62   C     C_R   0.407123 0.537194 0.021826 -0.267498
C63   C     C_R   0.462842 0.973691 0.593209 -0.275489
C64   C     C_R   0.537158 0.026309 0.406791 -0.275489
C65   C     C_R   0.948021 0.552998 0.554651 -0.057071
C66   C     C_R   0.110079 0.389936 0.110171 0.789590
C67   C     C_R   0.051979 0.447002 0.445349 -0.057070
C68   C     C_R   0.552093 0.555434 0.945689 -0.061195
C69   C     C_R   0.447907 0.444566 0.054311 -0.061194
C70   C     C_R   0.555600 0.946409 0.551928 -0.057981
C71   C     C_R   0.444400 0.053591 0.448072 -0.057981
C72   C     C_R   0.009729 0.467866 0.583536 0.022575
C73   C     C_R   0.990271 0.532134 0.416464 0.022575
C74   C     C_R   0.457808 0.593263 0.967701 0.022069
C75   C     C_R   0.542192 0.406737 0.032299 0.022069
C76   C     C_R   0.593377 0.973257 0.457243 0.024455
C77   C     C_R   0.889920 0.610064 0.889829 0.789591
C78   C     C_R   0.406623 0.026743 0.542757 0.024455
C79   C     C_R   0.108787 0.390279 0.389852 0.810690
C80   C     C_R   0.891213 0.609721 0.610148 0.810689
C81   C     C_R   0.390514 0.389714 0.110252 0.806966
C82   C     C_R   0.609486 0.610286 0.889748 0.806965
C83   C     C_R   0.389629 0.109826 0.390605 0.806585
C84   C     C_R   0.610371 0.890174 0.609395 0.806585
C85   C     C_R   0.188470 0.918572 0.449785 -0.166798
C86   C     C_R   0.811530 0.081428 0.550215 -0.166798
C87   C     C_R   0.932331 0.387152 0.175478 -0.115777
C88   C     C_R   0.004360 0.659761 0.173186 -0.171336
C89   C     C_R   0.067669 0.612848 0.824522 -0.115777
C90   C     C_R   0.388732 0.176268 0.931554 -0.149150
C91   C     C_R   0.611267 0.823731 0.068446 -0.149150
C92   C     C_R   0.227226 0.825667 0.479141 -0.132938
C93   C     C_R   0.772774 0.174333 0.520859 -0.132938
C94   C     C_R   0.846341 0.385154 0.207809 -0.128986
C95   C     C_R   0.153659 0.614846 0.792191 -0.128986
C96   C     C_R   0.386812 0.208562 0.845411 -0.147176
C97   C     C_R   0.613188 0.791438 0.154589 -0.147176
C98   C     C_R   0.173511 0.772091 0.533185 -0.150488
C99   C     C_R   0.995640 0.340239 0.826814 -0.171336
C100  C     C_R   0.826488 0.227909 0.466815 -0.150488
C101  C     C_R   0.792669 0.438964 0.154361 -0.153452
C102  C     C_R   0.207331 0.561036 0.845639 -0.153452
C103  C     C_R   0.439966 0.154616 0.791928 -0.152552
C104  C     C_R   0.560034 0.845384 0.208072 -0.152552
C105  C     C_R   0.080751 0.811140 0.558258 -0.148879
C106  C     C_R   0.919249 0.188860 0.441742 -0.148879
C107  C     C_R   0.824797 0.494889 0.068233 -0.162166
C108  C     C_R   0.175203 0.505111 0.931767 -0.162166
C109  C     C_R   0.495413 0.068211 0.824285 -0.155955
C110  C     C_R   0.654480 0.178538 0.175956 -0.179570
C111  C     C_R   0.504587 0.931789 0.175715 -0.155955
C112  C     C_R   0.039810 0.905408 0.529418 0.077706
C113  C     C_R   0.960190 0.094591 0.470582 0.077706
C114  C     C_R   0.912669 0.497014 0.033070 0.055749
C115  C     C_R   0.087331 0.502986 0.966930 0.055749
C116  C     C_R   0.497505 0.033218 0.912286 0.066350
C117  C     C_R   0.502495 0.966782 0.087714 0.066350
C118  C     C_R   0.094394 0.959848 0.474663 0.060248
C119  C     C_R   0.905606 0.040152 0.525337 0.060248
C120  C     C_R   0.967154 0.442517 0.087537 0.065318
H1    H     H_    0.796193 0.300059 0.444312 0.130221
H2    H     H_    0.335105 0.566693 0.038047 0.179065
H3    H     H_    0.433280 0.953777 0.665521 0.182103
H4    H     H_    0.566720 0.046223 0.334479 0.182102
H5    H     H_    0.232948 0.957524 0.407619 0.115033
H6    H     H_    0.767052 0.042476 0.592381 0.115033
H7    H     H_    0.970255 0.345768 0.220814 0.130364
H8    H     H_    0.029745 0.654232 0.779186 0.130363
H9    H     H_    0.347545 0.221744 0.969569 0.129897
H10   H     H_    0.652455 0.778256 0.030431 0.129897
H11   H     H_    0.299264 0.795157 0.459760 0.132542
H12   H     H_    0.203806 0.699940 0.555688 0.130221
H13   H     H_    0.700736 0.204843 0.540240 0.132542
H14   H     H_    0.820915 0.342363 0.274981 0.136598
H15   H     H_    0.179085 0.657637 0.725019 0.136598
H16   H     H_    0.344442 0.276016 0.819828 0.126914
H17   H     H_    0.655558 0.723984 0.180172 0.126914
H18   H     H_    0.041702 0.766733 0.600302 0.111405
H19   H     H_    0.958298 0.233267 0.399698 0.111405
H20   H     H_    0.779490 0.536813 0.030291 0.134182
H21   H     H_    0.220510 0.463187 0.969709 0.134182
H22   H     H_    0.536896 0.029890 0.779100 0.134636
H23   H     H_    0.274485 0.562010 0.820014 0.134961
H24   H     H_    0.463104 0.970110 0.220900 0.134636
H25   H     H_    0.933751 0.666094 0.105220 0.155407
H26   H     H_    0.066249 0.333905 0.894779 0.155407
H27   H     H_    0.706555 0.051852 0.159782 0.149978
H28   H     H_    0.293445 0.948148 0.840218 0.149978
H29   H     H_    0.051655 0.121029 0.716955 0.147246
H30   H     H_    0.948345 0.878971 0.283045 0.147246
H31   H     H_    0.038738 0.703695 0.113722 0.158161
H32   H     H_    0.961262 0.296305 0.886278 0.158161
H33   H     H_    0.670883 0.148739 0.236219 0.166193
H34   H     H_    0.725514 0.437989 0.179986 0.134961
H35   H     H_    0.329117 0.851261 0.763780 0.166193
H36   H     H_    0.135099 0.207873 0.688186 0.160144
H37   H     H_    0.864900 0.792127 0.311814 0.160144
H38   H     H_    0.095778 0.621984 0.318437 0.248973
H39   H     H_    0.151505 0.632243 0.202404 0.249609
H40   H     H_    0.061174 0.726602 0.235414 0.226340
H41   H     H_    0.904222 0.378016 0.681563 0.248972
H42   H     H_    0.938826 0.273398 0.764586 0.226340
H43   H     H_    0.848495 0.367757 0.797596 0.249608
H44   H     H_    0.555624 0.398051 0.168187 0.248441
H45   H     H_    0.561086 0.819919 0.275264 0.132253
H46   H     H_    0.545988 0.301027 0.266107 0.243865
H47   H     H_    0.652775 0.318133 0.199523 0.240595
H48   H     H_    0.444376 0.601949 0.831813 0.248441
H49   H     H_    0.347225 0.681867 0.800477 0.240595
H50   H     H_    0.454012 0.698973 0.733893 0.243865
H51   H     H_    0.381942 0.164023 0.566420 0.248177
H52   H     H_    0.278807 0.255345 0.564485 0.241689
H53   H     H_    0.300697 0.184700 0.668805 0.239506
H54   H     H_    0.618058 0.835977 0.433580 0.248178
H55   H     H_    0.699303 0.815299 0.331195 0.239506
H56   H     H_    0.438914 0.180081 0.724736 0.132253
H57   H     H_    0.721193 0.744655 0.435515 0.241689
H58   H     H_    0.883628 0.454877 0.465412 0.243871
H59   H     H_    0.792316 0.518480 0.423364 0.240264
H60   H     H_    0.881267 0.424921 0.387630 0.242701
H61   H     H_    0.116372 0.545123 0.534588 0.243871
H62   H     H_    0.118733 0.575079 0.612371 0.242700
H63   H     H_    0.207684 0.481520 0.576636 0.240264
H64   H     H_    0.564865 0.363692 0.909299 0.235841
H65   H     H_    0.655737 0.269331 0.880071 0.251147
H66   H     H_    0.544423 0.262719 0.945941 0.242736
H67   H     H_    0.890817 0.649207 0.450036 0.167793
H68   H     H_    0.435135 0.636308 0.090701 0.235841
H69   H     H_    0.455577 0.737281 0.054059 0.242736
H70   H     H_    0.344263 0.730668 0.119929 0.251148
H71   H     H_    0.379857 0.898155 0.554855 0.238383
H72   H     H_    0.290049 0.859021 0.642595 0.250932
H73   H     H_    0.281886 0.929308 0.532374 0.245676
H74   H     H_    0.620143 0.101845 0.445145 0.238383
H75   H     H_    0.718114 0.070692 0.467626 0.245676
H76   H     H_    0.709951 0.140979 0.357405 0.250932
H77   H     H_    0.835785 0.589387 0.172656 0.184817
H78   H     H_    0.109183 0.350793 0.549964 0.167792
H79   H     H_    0.771349 0.594481 0.275788 0.173868
H80   H     H_    0.164214 0.410613 0.827345 0.184817
H81   H     H_    0.228651 0.405519 0.724212 0.173868
H82   H     H_    0.711312 0.035581 0.040226 0.182101
H83   H     H_    0.614749 0.099756 0.019573 0.209457
H84   H     H_    0.288688 0.964419 0.959774 0.182101
H85   H     H_    0.385251 0.900244 0.980427 0.209457
H86   H     H_    0.050382 0.998491 0.711469 0.182197
H87   H     H_    0.115840 0.986313 0.610970 0.209510
H88   H     H_    0.949618 0.001508 0.288530 0.182198
H89   H     H_    0.664895 0.433307 0.961952 0.179065
H90   H     H_    0.884160 0.013686 0.389030 0.209511
N1    N     N_3   0.835106 0.562146 0.238542 -0.451607
N2    N     N_3   0.164894 0.437854 0.761459 -0.451607
N3    N     N_3   0.675211 0.101259 0.010017 -0.452601
N4    N     N_3   0.324789 0.898741 0.989982 -0.452601
N5    N     N_3   0.116950 0.974874 0.672393 -0.449572
N6    N     N_3   0.883050 0.025126 0.327607 -0.449572
O1    O     O_3   0.250000 0.250000 0.250000 -0.482628
O2    O     O_R   0.865800 0.694910 0.573470 -0.641297
O3    O     O_R   0.305090 0.426530 0.134200 -0.652512
O4    O     O_R   0.694910 0.573470 0.865800 -0.652511
O5    O     O_R   0.426530 0.134200 0.305090 -0.647409
O6    O     O_R   0.573470 0.865800 0.694910 -0.647409
O7    O     O_R   0.134190 0.426530 0.134200 -0.633058
O8    O     O_R   0.865810 0.573470 0.865800 -0.633058
O9    O     O_R   0.426530 0.134200 0.134190 -0.654745
O10   O     O_R   0.573470 0.865800 0.865810 -0.654746
O11   O     O_R   0.134200 0.134190 0.426530 -0.645324
O12   O     O_3   0.750000 0.750000 0.750000 -0.482629
O13   O     O_R   0.865800 0.865810 0.573470 -0.645324
O14   O     O_R   0.426530 0.305080 0.134210 -0.637324
O15   O     O_R   0.573470 0.694920 0.865790 -0.637323
O16   O     O_R   0.305080 0.134210 0.426530 -0.637377
O17   O     O_R   0.694920 0.865790 0.573470 -0.637376
O18   O     O_R   0.134210 0.426530 0.305080 -0.632228
O19   O     O_R   0.865790 0.573470 0.694920 -0.632228
O20   O     O_R   0.305080 0.134200 0.134200 -0.634095
O21   O     O_R   0.694920 0.865800 0.865800 -0.634095
O22   O     O_R   0.134200 0.134200 0.305080 -0.633876
O23   O     O_R   0.865800 0.865800 0.694920 -0.633876
O24   O     O_R   0.134200 0.305080 0.134200 -0.647570
O25   O     O_R   0.865800 0.694920 0.865800 -0.647570
O26   O     O_R   0.134200 0.305090 0.426530 -0.641298
Zn1   Zn    Zn3+2 0.206620 0.206630 0.380140 0.963964
Zn2   Zn    Zn3+2 0.793380 0.793370 0.619860 0.963964
Zn3   Zn    Zn3+2 0.206630 0.380140 0.206620 0.964705
Zn4   Zn    Zn3+2 0.793370 0.619860 0.793380 0.964705
Zn5   Zn    Zn3+2 0.380140 0.206620 0.206630 0.952839
Zn6   Zn    Zn3+2 0.619860 0.793380 0.793370 0.952838
Zn7   Zn    Zn3+2 0.206620 0.206620 0.206620 0.957434
Zn8   Zn    Zn3+2 0.793380 0.793380 0.793380 0.957434

loop_
_geom_bond_atom_site_label_1
_geom_bond_atom_site_label_2
_ccdc_geom_bond_type
H86   N5    S    
O9    Zn5   S    
C21   H64   S    
C112  C118  A    
C82   O15   A    
C101  C107  A    
C2    H35   S    
H84   N4    S    
C89   C95   A    
C86   H6    S    
O16   Zn1   S    
C55   O13   A    
C85   H5    S    
O15   Zn6   S    
C1    C11   S    
C62   H2    S    
O20   Zn7   S    
C56   H28   S    
C87   H7    S    
C15   C28   S    
C17   H52   S    
C92   C98   A    
C21   H66   S    
C96   H16   S    
C91   H10   S    
C38   C76   S    
C53   C99   A    
C48   C54   A    
C29   C36   A    
C27   C99   A    
H80   N2    S    
C98   C105  A    
O1    Zn7   S    
C2    C29   A    
C77   O25   A    
C101  H34   S    
C108  C115  A    
O1    Zn3   S    
C19   H59   S    
C93   H13   S    
O18   Zn3   S    
O11   Zn1   S    
C20   C40   S    
C32   C39   A    
C13   C57   A    
C83   O16   A    
C45   C51   A    
C1    O20   A    
C68   C74   A    
C46   N1    S    
C81   O3    A    
C87   C94   A    
C46   C52   A    
C14   H43   S    
C23   C43   S    
C54   C110  A    
C100  H1    S    
C79   O26   A    
C107  H20   S    
C12   H38   S    
C9    C66   S    
C53   H26   S    
C38   C45   A    
C77   O8    A    
C109  C116  A    
C104  H45   S    
C113  C119  A    
C90   H9    S    
C36   C42   A    
C16   H49   S    
C41   C48   A    
C18   H57   S    
C57   H29   S    
O3    Zn3   S    
C15   H46   S    
C102  C108  A    
C109  H22   S    
C67   C73   A    
O2    Zn2   S    
C14   C27   S    
C22   H70   S    
C70   C84   S    
C59   C73   A    
O19   Zn4   S    
O12   Zn8   S    
C25   H75   S    
C95   C102  A    
C60   H78   S    
C47   C53   A    
C18   H55   S    
C42   C49   A    
C105  H18   S    
O24   Zn7   S    
H88   N6    S    
C65   C80   S    
C47   N2    S    
O23   Zn8   S    
C17   C30   S    
C80   O19   A    
C15   H47   S    
O6    Zn6   S    
C6    C55   S    
C35   C41   A    
C97   H17   S    
C108  H21   S    
C91   C97   A    
C85   C92   A    
C17   H53   S    
C71   C83   S    
C69   C81   S    
C27   C34   A    
C106  C113  A    
C64   C71   A    
C9    C115  A    
C51   N6    S    
C62   C69   A    
C15   H44   S    
C52   C88   A    
C92   H11   S    
C67   C79   S    
C60   C67   A    
C23   H72   S    
C33   O10   A    
C99   H32   S    
C32   C73   S    
C3    C115  A    
O13   Zn2   S    
C4    C116  A    
C26   C32   A    
O5    Zn5   S    
C28   C110  A    
C16   C29   S    
C64   H4    S    
C40   C47   A    
C49   N4    S    
C61   C75   A    
C30   C37   A    
C12   C26   S    
C22   H69   S    
C14   H42   S    
C21   H65   S    
O1    Zn1   S    
C13   H36   S    
H77   N1    S    
C86   C93   A    
C54   H27   S    
C13   C30   A    
O17   Zn2   S    
O12   Zn2   S    
C63   C70   A    
C35   C75   S    
C23   H73   S    
H87   N5    S    
O26   Zn1   S    
C64   C76   A    
C82   O4    A    
C43   C50   A    
C51   C58   A    
C61   H89   S    
C7    C44   S    
C12   H40   S    
C4    C11   A    
C59   H67   S    
C93   C100  A    
C16   H48   S    
C23   H71   S    
C86   C119  A    
C25   H76   S    
C19   C39   S    
C111  H24   S    
C39   C46   A    
C21   C41   S    
C18   H54   S    
C94   C101  A    
C105  C112  A    
H85   N4    S    
C3    C8    A    
C81   O14   A    
C20   H63   S    
O22   Zn7   S    
C70   C76   A    
C8    C77   S    
C88   H31   S    
C34   C40   A    
C37   C43   A    
C102  H23   S    
C98   H12   S    
C11   C117  A    
C25   C45   S    
C6    C119  A    
C7    C118  A    
C10   C116  A    
C20   H62   S    
O12   Zn6   S    
C107  C114  A    
C1    O9    A    
C28   C35   A    
O4    Zn4   S    
C48   N3    S    
C36   C74   S    
H81   N2    S    
C66   O24   A    
C24   H37   S    
C50   C57   A    
C6    C112  A    
O10   Zn6   S    
H83   N3    S    
O25   Zn8   S    
O1    Zn5   S    
C79   O18   A    
C66   O7    A    
C44   O22   A    
C104  C111  A    
C63   H3    S    
C17   H51   S    
C4    C90   A    
C90   C96   A    
C19   H58   S    
O8    Zn4   S    
C8    C114  A    
C65   C72   A    
C37   C78   S    
C100  C106  A    
C31   C38   A    
C103  C109  A    
C3    C89   A    
C68   C82   S    
C7    C113  A    
C14   H41   S    
C84   O17   A    
C24   C31   A    
C5    C10   A    
C49   C56   A    
C2    C56   A    
C59   C65   A    
C80   O2    A    
C61   C68   A    
C106  H19   S    
C22   C42   S    
C50   N5    S    
O7    Zn3   S    
H90   N6    S    
C103  H56   S    
C94   H14   S    
C52   H25   S    
C69   C75   A    
C10   C33   S    
H79   N1    S    
H82   N3    S    
C22   H68   S    
C85   C118  A    
O21   Zn8   S    
C44   O11   A    
C97   C104  A    
C33   O21   A    
C25   H74   S    
C34   C72   S    
C111  C117  A    
C83   O5    A    
C26   C88   A    
C16   H50   S    
C87   C120  A    
O12   Zn4   S    
C95   H15   S    
C5    C91   A    
C24   C58   A    
C96   C103  A    
C5    C117  A    
C110  H33   S    
C9    C120  A    
C60   C72   A    
C62   C74   A    
C84   O6    A    
C18   C31   S    
C55   O23   A    
C19   H60   S    
C89   H8    S    
C71   C78   A    
C114  C120  A    
O14   Zn5   S    
C58   H30   S    
C20   H61   S    
C63   C78   A    
C12   H39   S    
