data_mof_unit_7196.cif
_audit_creation_date              2012-12-11T16:28:33-0500
_audit_creation_method            fapswitch 2.2
_symmetry_space_group_name_H-M    P1
_symmetry_Int_Tables_number       1
_space_group_crystal_system       triclinic
_cell_length_a                    16.862757
_cell_length_b                    7.24779
_cell_length_c                    14.951331
_cell_angle_alpha                 90.000253
_cell_angle_beta                  94.49294
_cell_angle_gamma                 90.002212
_cell_volume                      1821.70224952

loop_
_atom_site_label
_atom_site_type_symbol
_atom_type_description
_atom_site_fract_x
_atom_site_fract_y
_atom_site_fract_z
_atom_type_partial_charge
O1    O     O_R   0.663460 0.361760 0.165970 -0.500498
O2    O     O_R   0.336540 0.638240 0.834030 -0.500498
O3    O     O_R   0.836540 0.861760 0.334030 -0.500524
O4    O     O_R   0.163460 0.138240 0.665970 -0.500554
O5    O     O_R   0.827100 0.689870 0.163730 -0.529560
O6    O     O_R   0.172900 0.310130 0.836270 -0.529411
O7    O     O_R   0.672900 0.189870 0.336270 -0.529466
O8    O     O_R   0.327100 0.810130 0.663730 -0.529465
C1    C     C_R   0.854247 0.523350 0.144738 0.768617
C2    C     C_R   0.145756 0.476651 0.855266 0.768585
C3    C     C_R   0.645751 0.023345 0.355259 0.768680
C4    C     C_R   0.354243 0.976656 0.644733 0.768556
O9    O     O_R   0.663490 0.691370 0.155500 -0.548917
O10   O     O_R   0.336510 0.308630 0.844500 -0.548917
O11   O     O_R   0.836510 0.191370 0.344500 -0.548913
O12   O     O_R   0.163490 0.808630 0.655500 -0.548899
O13   O     O_R   0.671770 0.863320 0.325740 -0.517365
O14   O     O_R   0.328230 0.136680 0.674260 -0.517360
O15   O     O_R   0.828230 0.363320 0.174260 -0.517248
O16   O     O_R   0.171770 0.636680 0.825740 -0.517368
C5    C     C_R   0.637859 0.521487 0.131236 0.844284
C6    C     C_R   0.362135 0.478515 0.868771 0.844283
C7    C     C_R   0.862141 0.021493 0.368768 0.844396
C8    C     C_R   0.137881 0.978510 0.631212 0.844308
O17   O     O_3   0.752910 0.528800 0.305860 -0.366064
O18   O     O_3   0.247090 0.471200 0.694140 -0.366032
O19   O     O_3   0.747090 0.028800 0.194140 -0.366006
O20   O     O_3   0.252910 0.971200 0.805860 -0.365996
V1    V     V_3+5 0.749460 0.803010 0.239640 1.625505
V2    V     V_3+5 0.250540 0.196990 0.760360 1.625690
V3    V     V_3+5 0.750540 0.303010 0.260360 1.625699
V4    V     V_3+5 0.249460 0.696990 0.739640 1.625592
C9    C     C_1   0.469167 0.994442 0.530502 0.104638
C10   C     C_1   0.530822 0.005561 0.469484 0.104594
C11   C     C_1   0.030830 0.494437 0.969494 0.104653
C12   C     C_1   0.969175 0.505569 0.030511 0.104646
C13   C     C_R   0.024038 0.963148 0.312543 0.253310
C14   C     C_R   0.976000 0.036423 0.687461 0.253104
C15   C     C_R   0.475970 0.463242 0.187458 0.253203
C16   C     C_R   0.524018 0.536761 0.812548 0.253198
C17   C     C_R   0.101779 0.937513 0.285943 0.255207
C18   C     C_R   0.898293 0.062335 0.714062 0.255180
C19   C     C_R   0.398239 0.437605 0.214059 0.255362
C20   C     C_R   0.601741 0.562567 0.785953 0.255347
C21   C     C_R   0.167151 0.970694 0.347726 0.339297
C22   C     C_R   0.832903 0.029382 0.652286 0.339294
C23   C     C_R   0.332863 0.470734 0.152274 0.339182
C24   C     C_R   0.667125 0.529563 0.847743 0.339275
C25   C     C_R   0.154737 0.017382 0.436367 0.236263
C26   C     C_R   0.845285 0.982755 0.563629 0.236200
C27   C     C_R   0.345272 0.517376 0.063625 0.236325
C28   C     C_R   0.654722 0.482814 0.936380 0.236396
C29   C     C_R   0.078195 0.998638 0.469731 -0.134389
C30   C     C_R   0.921831 0.001401 0.530255 -0.134356
C31   C     C_R   0.421814 0.498632 0.030260 -0.134315
C32   C     C_R   0.578175 0.501433 0.969746 -0.134298
C33   C     C_R   0.010779 0.988252 0.405706 -0.066317
C34   C     C_R   0.989254 0.011637 0.594283 -0.066415
C35   C     C_R   0.489230 0.488251 0.094291 -0.066455
C36   C     C_R   0.510758 0.511765 0.905716 -0.066441
C37   C     C_R   0.067549 0.996472 0.563979 -0.039436
C38   C     C_R   0.932480 0.003513 0.436005 -0.039442
C39   C     C_R   0.432464 0.496509 0.936011 -0.039401
C40   C     C_R   0.567526 0.503498 0.063996 -0.039406
C41   C     C_1   0.416817 0.985518 0.582401 -0.069874
C42   C     C_1   0.583173 0.014485 0.417587 -0.069937
C43   C     C_1   0.083180 0.485506 0.917597 -0.069802
C44   C     C_1   0.916823 0.514498 0.082408 -0.069984
Cl1   Cl    Cl    0.231423 0.146522 0.493533 -0.604540
Cl2   Cl    Cl    0.768549 0.853788 0.506464 -0.604638
Cl3   Cl    Cl    0.268577 0.646459 0.006452 -0.604526
Cl4   Cl    Cl    0.731436 0.353745 0.993520 -0.604434
O21   O     O_3   0.110821 0.888242 0.197799 -0.609672
H1    H     H_    0.166688 0.856002 0.189739 0.394813
O22   O     O_3   0.889296 0.111623 0.802212 -0.609441
H2    H     H_    0.833539 0.145238 0.810110 0.394757
O23   O     O_3   0.389224 0.388319 0.302208 -0.609560
H3    H     H_    0.333347 0.356240 0.310310 0.394783
O24   O     O_3   0.610740 0.611906 0.697808 -0.609604
H4    H     H_    0.666616 0.643978 0.689693 0.394802
Cl5   Cl    Cl    0.734546 0.032792 0.686559 -0.532846
Cl6   Cl    Cl    0.265546 0.967253 0.313552 -0.533140
Cl7   Cl    Cl    0.765524 0.533374 0.813591 -0.533458
Cl8   Cl    Cl    0.234472 0.467236 0.186453 -0.533182
O25   O     O_3   0.960484 0.956129 0.248205 -0.641020
H5    H     H_    0.978542 0.966994 0.187026 0.338627
O26   O     O_3   0.039522 0.043006 0.751840 -0.640826
H6    H     H_    0.021419 0.030039 0.812916 0.338421
O27   O     O_3   0.539506 0.456237 0.251816 -0.640891
H7    H     H_    0.521435 0.468448 0.312940 0.338454
O28   O     O_3   0.460489 0.543576 0.748177 -0.640873
H8    H     H_    0.478582 0.531319 0.687066 0.338456

loop_
_geom_bond_atom_site_label_1
_geom_bond_atom_site_label_2
_ccdc_geom_bond_type
O17   V3    S    
O26   H6    S    
O18   V4    S    
C8    C37   S    
C16   C36   A    
C31   C35   A    
O19   V1    S    
O13   V1    S    
O21   H1    S    
O1    C5    A    
O3    C7    A    
C11   C12   S    
O15   V3    S    
C10   C42   T    
C9    C41   T    
C33   C38   A    
O23   H3    S    
O7    C3    A    
C35   C40   A    
C26   C30   A    
C36   C39   A    
O9    V1    S    
C14   C18   A    
O16   V4    S    
O4    C8    A    
O1    V3    S    
O2    V4    S    
C18   C22   A    
O3    V1    S    
C5    C40   S    
C6    C39   S    
C14   C34   A    
C29   C37   A    
C1    O15   A    
C7    C38   S    
C21   Cl6   S    
C2    O16   A    
C31   C39   A    
O2    C6    A    
C32   C40   A    
O14   V2    S    
C11   C43   T    
C16   C20   A    
C3    C42   S    
C34   C37   A    
O11   C7    A    
O12   C8    A    
C25   Cl1   S    
C27   Cl3   S    
O10   V2    S    
O5    V1    S    
O7    V3    S    
O8    V4    S    
O28   H8    S    
C29   C33   A    
C15   C19   A    
C30   C38   A    
O25   H5    S    
C32   C36   A    
O22   H2    S    
O5    C1    A    
C28   Cl4   S    
C22   Cl5   S    
C21   C25   A    
O8    C4    A    
C15   C35   A    
C9    C10   S    
C18   O22   S    
O9    C5    A    
C23   Cl8   S    
O6    V2    S    
O12   V4    S    
C30   C34   A    
C13   O25   S    
C3    O13   A    
C20   O24   S    
O6    C2    A    
C23   C27   A    
C12   C44   T    
O11   V3    S    
C19   O23   S    
C4    C41   S    
C22   C26   A    
C24   Cl7   S    
C14   O26   S    
O10   C6    A    
O20   V2    S    
C26   Cl2   S    
C1    C44   S    
C2    C43   S    
C25   C29   A    
C27   C31   A    
C16   O28   S    
C13   C17   A    
O4    V2    S    
C17   O21   S    
O24   H4    S    
C28   C32   A    
C24   C28   A    
C4    O14   A    
C17   C21   A    
O27   H7    S    
C19   C23   A    
C15   O27   S    
C13   C33   A    
C20   C24   A    
