data_mof_unit_26109.cif
_audit_creation_date              2012-12-11T15:06:54-0500
_audit_creation_method            fapswitch 2.2
_symmetry_space_group_name_H-M    P1
_symmetry_Int_Tables_number       1
_space_group_crystal_system       triclinic
_cell_length_a                    19.790358
_cell_length_b                    11.358744
_cell_length_c                    18.696347
_cell_angle_alpha                 89.866174
_cell_angle_beta                  90.843741
_cell_angle_gamma                 89.700847
_cell_volume                      4202.29412969

loop_
_atom_site_label
_atom_site_type_symbol
_atom_type_description
_atom_site_fract_x
_atom_site_fract_y
_atom_site_fract_z
_atom_type_partial_charge
C1    C     C_R   0.761155 0.525007 0.639748 0.549187
C2    C     C_R   0.238732 0.524891 0.360365 0.550276
C3    C     C_R   0.261155 0.025007 0.639748 0.549190
C4    C     C_R   0.738732 0.024891 0.360365 0.550272
C5    C     C_3   0.806954 0.139523 0.449355 -0.246613
C6    C     C_3   0.192766 0.140304 0.550303 -0.247256
C7    C     C_3   0.306954 0.639523 0.449355 -0.246613
C8    C     C_3   0.692766 0.640303 0.550303 -0.247256
C9    C     C_3   0.745764 0.061195 0.436221 0.084689
C10   C     C_3   0.254057 0.061370 0.563843 0.084384
C11   C     C_3   0.245763 0.561195 0.436221 0.084692
C12   C     C_3   0.754057 0.561370 0.563843 0.084381
C13   C     C_3   0.758914 0.095099 0.573973 0.034077
C14   C     C_3   0.241144 0.094836 0.425975 0.033948
C15   C     C_3   0.258914 0.595099 0.573973 0.034077
C16   C     C_3   0.741144 0.594836 0.425975 0.033948
C17   C     C_3   0.751498 0.964578 0.561512 -0.265269
C18   C     C_3   0.248912 0.964259 0.438988 -0.267026
C19   C     C_3   0.251497 0.464578 0.561512 -0.265270
C20   C     C_3   0.748912 0.464259 0.438988 -0.267025
C21   C     C_3   0.820730 0.138797 0.530216 -0.227554
C22   C     C_3   0.179188 0.139355 0.469407 -0.227244
C23   C     C_3   0.320730 0.638797 0.530216 -0.227554
C24   C     C_3   0.679188 0.639355 0.469407 -0.227243
C25   C     C_3   0.004371 0.202463 0.458988 -0.230787
C26   C     C_3   0.995695 0.202330 0.541198 -0.230820
C27   C     C_3   0.504371 0.702463 0.458988 -0.230787
C28   C     C_3   0.495695 0.702330 0.541198 -0.230820
C29   C     C_3   0.063557 0.402153 0.475023 -0.219490
C30   C     C_3   0.936393 0.402434 0.524912 -0.220044
C31   C     C_3   0.563557 0.902154 0.475023 -0.219490
C32   C     C_3   0.436393 0.902434 0.524912 -0.220045
C33   C     C_3   0.941484 0.386687 0.443809 -0.262750
C34   C     C_3   0.058560 0.385809 0.556116 -0.262660
C35   C     C_3   0.441484 0.886687 0.443809 -0.262750
C36   C     C_3   0.558560 0.885809 0.556116 -0.262660
C37   C     C_3   0.010211 0.330611 0.430721 0.066505
C38   C     C_3   0.989922 0.330427 0.569314 0.066232
C39   C     C_3   0.510211 0.830611 0.430721 0.066505
C40   C     C_3   0.489922 0.830427 0.569314 0.066232
C41   C     C_3   0.818739 0.026313 0.049267 -0.230483
C42   C     C_3   0.179891 0.036420 0.949388 -0.235662
C43   C     C_3   0.318739 0.526313 0.049267 -0.230482
C44   C     C_3   0.679891 0.536420 0.949389 -0.235662
C45   C     C_R   0.774080 0.122363 0.649387 0.548023
C46   C     C_R   0.225984 0.122190 0.350501 0.547233
C47   C     C_R   0.274080 0.622363 0.649387 0.548024
C48   C     C_R   0.725984 0.622190 0.350501 0.547232
C49   C     C_3   0.822119 0.033383 0.969234 -0.241959
C50   C     C_3   0.175755 0.046810 0.029304 -0.239172
C51   C     C_3   0.322119 0.533383 0.969234 -0.241959
C52   C     C_3   0.675755 0.546810 0.029304 -0.239171
C53   C     C_3   0.688908 0.036217 0.028445 -0.230814
C54   C     C_3   0.306303 0.032039 0.974475 -0.252738
C55   C     C_3   0.188908 0.536217 0.028445 -0.230813
C56   C     C_3   0.806303 0.532038 0.974475 -0.252738
C57   C     C_3   0.747714 0.208585 0.070097 -0.120595
C58   C     C_3   0.256073 0.211907 0.928343 -0.114200
C59   C     C_3   0.247714 0.708585 0.070098 -0.120595
C60   C     C_3   0.756073 0.711907 0.928343 -0.114200
C61   C     C_3   0.748801 0.074611 0.077161 0.057059
C62   C     C_3   0.250767 0.078115 0.922764 0.052809
C63   C     C_3   0.248801 0.574611 0.077161 0.057059
C64   C     C_3   0.750767 0.578115 0.922764 0.052809
C65   C     C_3   0.768762 0.123011 0.941266 0.027837
C66   C     C_3   0.229097 0.135370 0.057457 0.033186
C67   C     C_3   0.268762 0.623011 0.941266 0.027837
C68   C     C_3   0.729097 0.635370 0.057457 0.033186
C69   C     C_3   0.700692 0.064970 0.948746 -0.224872
C70   C     C_3   0.297967 0.075618 0.051837 -0.224370
C71   C     C_3   0.200692 0.564971 0.948746 -0.224872
C72   C     C_3   0.797968 0.575618 0.051837 -0.224370
C73   C     C_3   0.766816 0.233824 0.991209 -0.266960
C74   C     C_3   0.232676 0.244476 0.005038 -0.262033
C75   C     C_3   0.266817 0.733824 0.991209 -0.266960
C76   C     C_3   0.732676 0.744476 0.005038 -0.262033
C77   C     C_3   0.007980 0.486086 0.039012 0.026841
C78   C     C_3   0.000904 0.485251 0.957189 0.027071
C79   C     C_3   0.507980 0.986086 0.039012 0.026841
C80   C     C_3   0.500904 0.985251 0.957189 0.027071
C81   C     C_3   0.055878 0.274227 0.031398 -0.243660
C82   C     C_3   0.930968 0.303892 0.969047 -0.247627
C83   C     C_3   0.555878 0.774227 0.031398 -0.243660
C84   C     C_3   0.430968 0.803891 0.969047 -0.247627
C85   C     C_3   0.936402 0.311100 0.051837 -0.254319
C86   C     C_3   0.052909 0.284442 0.949156 -0.258573
C87   C     C_3   0.436402 0.811100 0.051837 -0.254319
C88   C     C_3   0.552909 0.784442 0.949156 -0.258574
C89   C     C_R   0.969223 0.341631 0.645233 0.542458
C90   C     C_R   0.030844 0.341774 0.354797 0.543751
C91   C     C_R   0.469223 0.841631 0.645233 0.542458
C92   C     C_R   0.530844 0.841774 0.354797 0.543751
C93   C     C_3   0.006065 0.357234 0.070114 0.060026
C94   C     C_3   0.990974 0.356579 0.929557 0.066603
C95   C     C_3   0.506065 0.857234 0.070114 0.060026
C96   C     C_3   0.490975 0.856579 0.929557 0.066603
C97   C     C_R   0.761666 0.530659 0.849448 0.553611
C98   C     C_R   0.238484 0.531136 0.150926 0.556156
C99   C     C_R   0.261666 0.030659 0.849448 0.553611
C100  C     C_R   0.738484 0.031136 0.150926 0.556156
C101  C     C_R   0.783358 0.155177 0.864625 0.546165
C102  C     C_R   0.213502 0.164668 0.134727 0.538151
C103  C     C_R   0.283358 0.655177 0.864625 0.546165
C104  C     C_R   0.713502 0.664668 0.134727 0.538152
C105  C     C_R   0.970854 0.353512 0.852350 0.534296
C106  C     C_R   0.028205 0.354012 0.147681 0.535095
C107  C     C_R   0.470854 0.853512 0.852350 0.534296
C108  C     C_R   0.528205 0.854012 0.147681 0.535095
C109  C     C_3   0.682550 0.127623 0.465907 -0.011809
C110  C     C_3   0.317055 0.127227 0.534051 -0.012400
C111  C     C_3   0.182549 0.627623 0.465907 -0.011810
C112  C     C_3   0.817055 0.627228 0.534051 -0.012400
C113  C     C_3   0.691864 0.150629 0.546552 -0.187907
C114  C     C_3   0.307926 0.149966 0.453331 -0.187590
C115  C     C_3   0.191864 0.650630 0.546552 -0.187910
C116  C     C_3   0.807927 0.649965 0.453331 -0.187587
C117  C     C_3   0.757213 0.944798 0.480475 -0.239504
C118  C     C_3   0.242935 0.944941 0.520045 -0.239515
C119  C     C_3   0.257213 0.444798 0.480475 -0.239506
C120  C     C_3   0.742935 0.444941 0.520045 -0.239513
Cr1   Cr    Cr6+3 0.885690 0.492860 0.745310 0.989516
Cr2   Cr    Cr6+3 0.114310 0.492860 0.254690 0.988667
Cr3   Cr    Cr6+3 0.385690 0.992860 0.745310 0.989515
Cr4   Cr    Cr6+3 0.614310 0.992860 0.254690 0.988667
Cr5   Cr    Cr6+3 0.729880 0.332270 0.748190 0.998410
Cr6   Cr    Cr6+3 0.270120 0.332270 0.251810 0.998461
Cr7   Cr    Cr6+3 0.229880 0.832270 0.748190 0.998410
Cr8   Cr    Cr6+3 0.770120 0.832270 0.251810 0.998461
Cr9   Cr    Cr6+3 0.888120 0.178590 0.753010 1.001554
Cr10  Cr    Cr6+3 0.111880 0.178590 0.246990 1.000810
Cr11  Cr    Cr6+3 0.388120 0.678590 0.753010 1.001554
Cr12  Cr    Cr6+3 0.611880 0.678590 0.246990 1.000809
H1    H     H_    0.640366 0.070793 0.458672 0.139136
H2    H     H_    0.359250 0.070187 0.541833 0.140744
H3    H     H_    0.140366 0.570792 0.458673 0.139135
H4    H     H_    0.859250 0.570188 0.541834 0.140745
H5    H     H_    0.861296 0.072850 0.539612 0.127165
H6    H     H_    0.138966 0.073596 0.460231 0.127754
H7    H     H_    0.361296 0.572850 0.539612 0.127165
H8    H     H_    0.638966 0.573596 0.460231 0.127754
H9    H     H_    0.809992 0.916552 0.471100 0.143461
H10   H     H_    0.190142 0.917568 0.529300 0.142805
H11   H     H_    0.309992 0.416552 0.471100 0.143459
H12   H     H_    0.690142 0.417568 0.529300 0.142807
H13   H     H_    0.791913 0.920072 0.592023 0.186011
H14   H     H_    0.208812 0.919677 0.408576 0.186475
H15   H     H_    0.291913 0.420071 0.592023 0.186012
H16   H     H_    0.708812 0.419678 0.408576 0.186474
H17   H     H_    0.047484 0.149503 0.443583 0.129704
H18   H     H_    0.952296 0.150465 0.556468 0.129905
H19   H     H_    0.547484 0.649503 0.443583 0.129704
H20   H     H_    0.452296 0.650465 0.556468 0.129905
H21   H     H_    0.960782 0.157823 0.433161 0.109199
H22   H     H_    0.039130 0.156581 0.567166 0.109294
H23   H     H_    0.460782 0.657823 0.433161 0.109198
H24   H     H_    0.539130 0.656581 0.567166 0.109294
H25   H     H_    0.615038 0.886926 0.456942 0.099447
H26   H     H_    0.384987 0.886570 0.542902 0.099929
H27   H     H_    0.115038 0.386926 0.456942 0.099447
H28   H     H_    0.884987 0.386571 0.542902 0.099929
H29   H     H_    0.599992 0.828964 0.577081 0.109484
H30   H     H_    0.400155 0.830433 0.422834 0.109432
H31   H     H_    0.099991 0.328964 0.577081 0.109484
H32   H     H_    0.900154 0.330433 0.422834 0.109432
H33   H     H_    0.936769 0.473489 0.416561 0.122836
H34   H     H_    0.063206 0.472400 0.583315 0.122675
H35   H     H_    0.436769 0.973489 0.416562 0.122836
H36   H     H_    0.563206 0.972400 0.583315 0.122675
H37   H     H_    0.949805 0.495718 0.535040 0.128909
H38   H     H_    0.049941 0.495668 0.464845 0.128602
H39   H     H_    0.449805 0.995718 0.535040 0.128909
H40   H     H_    0.549942 0.995668 0.464845 0.128602
H41   H     H_    0.832503 0.935362 0.064902 0.135155
H42   H     H_    0.167318 0.943929 0.936389 0.134256
H43   H     H_    0.332503 0.435362 0.064902 0.135155
H44   H     H_    0.667318 0.443929 0.936389 0.134256
H45   H     H_    0.860045 0.078667 0.073310 0.129056
H46   H     H_    0.140022 0.090006 0.922974 0.134135
H47   H     H_    0.360045 0.578667 0.073310 0.129056
H48   H     H_    0.640022 0.590006 0.922974 0.134135
H49   H     H_    0.874496 0.053254 0.954412 0.124525
H50   H     H_    0.123864 0.070020 0.043302 0.125903
H51   H     H_    0.374496 0.553254 0.954412 0.124525
H52   H     H_    0.623864 0.570020 0.043302 0.125902
H53   H     H_    0.812216 0.945565 0.945492 0.133524
H54   H     H_    0.185096 0.958852 0.054113 0.137429
H55   H     H_    0.312216 0.445565 0.945492 0.133524
H56   H     H_    0.685096 0.458852 0.054113 0.137429
H57   H     H_    0.673762 0.945916 0.038486 0.103069
H58   H     H_    0.302164 0.939124 0.975224 0.104346
H59   H     H_    0.173762 0.445916 0.038486 0.103069
H60   H     H_    0.802164 0.439124 0.975224 0.104346
H61   H     H_    0.696170 0.985271 0.915535 0.165725
H62   H     H_    0.302828 0.001545 0.090287 0.158616
H63   H     H_    0.196170 0.485271 0.915535 0.165725
H64   H     H_    0.802828 0.501545 0.090287 0.158616
H65   H     H_    0.696327 0.245257 0.079415 0.105301
H66   H     H_    0.309589 0.239471 0.922126 0.109472
H67   H     H_    0.196327 0.745258 0.079415 0.105301
H68   H     H_    0.809589 0.739470 0.922126 0.109473
H69   H     H_    0.816856 0.263183 0.995384 0.118282
H70   H     H_    0.184256 0.281860 0.995709 0.108781
H71   H     H_    0.316856 0.763184 0.995384 0.118282
H72   H     H_    0.684256 0.781859 0.995708 0.108782
H73   H     H_    0.731741 0.299379 0.967883 0.106526
H74   H     H_    0.265583 0.310894 0.028324 0.109844
H75   H     H_    0.231741 0.799379 0.967884 0.106526
H76   H     H_    0.765583 0.810894 0.028324 0.109844
H77   H     H_    0.645977 0.091228 0.043800 0.123417
H78   H     H_    0.355707 0.058134 0.954983 0.133257
H79   H     H_    0.145977 0.591228 0.043800 0.123417
H80   H     H_    0.855707 0.558133 0.954983 0.133257
H81   H     H_    0.690461 0.244085 0.558948 0.157093
H82   H     H_    0.308995 0.243427 0.440602 0.158224
H83   H     H_    0.190462 0.744086 0.558947 0.157091
H84   H     H_    0.808996 0.743427 0.440602 0.158226
H85   H     H_    0.663840 0.131460 0.929272 0.161561
H86   H     H_    0.337783 0.140770 0.065177 0.162057
H87   H     H_    0.163840 0.631461 0.929272 0.161561
H88   H     H_    0.837783 0.640770 0.065177 0.162057
H89   H     H_    0.056019 0.522996 0.054306 0.175253
H90   H     H_    0.956296 0.537981 0.942030 0.176361
H91   H     H_    0.556019 0.022997 0.054306 0.175253
H92   H     H_    0.456295 0.037981 0.942030 0.176362
H93   H     H_    0.605461 0.788779 0.055380 0.108006
H94   H     H_    0.388295 0.854161 0.947623 0.100136
H95   H     H_    0.105461 0.288779 0.055380 0.108006
H96   H     H_    0.888295 0.354162 0.947623 0.100135
H97   H     H_    0.598185 0.827979 0.928172 0.164550
H98   H     H_    0.397115 0.871217 0.071871 0.176447
H99   H     H_    0.098184 0.327979 0.928172 0.164550
H100  H     H_    0.897115 0.371217 0.071872 0.176447
H101  H     H_    0.929638 0.223707 0.076767 0.117827
H102  H     H_    0.048371 0.195823 0.924791 0.114176
H103  H     H_    0.429638 0.723707 0.076767 0.117827
H104  H     H_    0.548371 0.695824 0.924791 0.114176
H105  H     H_    0.925828 0.211027 0.953841 0.133641
H106  H     H_    0.041266 0.182821 0.045069 0.128658
H107  H     H_    0.425829 0.711027 0.953841 0.133641
H108  H     H_    0.541266 0.682821 0.045069 0.128658
H109  H     H_    0.648415 0.113533 0.575966 0.087198
H110  H     H_    0.351571 0.112550 0.424189 0.087230
H111  H     H_    0.148415 0.613534 0.575966 0.087199
H112  H     H_    0.851571 0.612549 0.424189 0.087229
H113  H     H_    0.723285 0.874454 0.463050 0.111617
H114  H     H_    0.276763 0.874153 0.538011 0.111780
H115  H     H_    0.223285 0.374454 0.463050 0.111617
H116  H     H_    0.776763 0.374153 0.538011 0.111780
H117  H     H_    0.702649 0.931874 0.581780 0.110372
H118  H     H_    0.297943 0.931196 0.419101 0.109631
H119  H     H_    0.202649 0.431874 0.581780 0.110372
H120  H     H_    0.797943 0.431196 0.419101 0.109631
H121  H     H_    0.851636 0.105074 0.420741 0.112261
H122  H     H_    0.148178 0.106423 0.579022 0.111966
H123  H     H_    0.351636 0.605074 0.420741 0.112261
H124  H     H_    0.648178 0.606423 0.579022 0.111967
H125  H     H_    0.797000 0.229892 0.429693 0.152135
H126  H     H_    0.202558 0.230618 0.569570 0.152245
H127  H     H_    0.297000 0.729893 0.429693 0.152136
H128  H     H_    0.702558 0.730617 0.569571 0.152244
H129  H     H_    0.839550 0.223215 0.549319 0.112636
H130  H     H_    0.160333 0.223860 0.449770 0.113641
H131  H     H_    0.339550 0.723214 0.549319 0.112636
H132  H     H_    0.660333 0.723861 0.449770 0.113641
O1    O     O_R   0.957210 0.449410 0.665480 -0.532462
O2    O     O_R   0.042790 0.449410 0.334520 -0.532817
O3    O     O_R   0.457210 0.949410 0.665480 -0.532462
O4    O     O_R   0.542790 0.949410 0.334520 -0.532816
O5    O     O_R   0.736260 0.212010 0.826560 -0.507664
O6    O     O_R   0.263740 0.212010 0.173440 -0.505718
O7    O     O_R   0.236260 0.712010 0.826560 -0.507664
O8    O     O_R   0.763740 0.712010 0.173440 -0.505718
O9    O     O_R   0.832520 0.095300 0.836000 -0.520106
O10   O     O_R   0.167480 0.095300 0.164000 -0.518755
O11   O     O_R   0.332520 0.595300 0.836000 -0.520106
O12   O     O_R   0.667480 0.595300 0.164000 -0.518756
O13   O     O_R   0.946380 0.253940 0.826940 -0.516201
O14   O     O_R   0.053620 0.253940 0.173060 -0.517000
O15   O     O_R   0.446380 0.753940 0.826940 -0.516201
O16   O     O_R   0.553620 0.753940 0.173060 -0.517000
O17   O     O_3   0.834560 0.334570 0.748840 -0.288527
O18   O     O_3   0.165440 0.334570 0.251160 -0.292264
O19   O     O_3   0.334560 0.834570 0.748840 -0.288528
O20   O     O_3   0.665440 0.834570 0.251160 -0.292264
O21   O     O_R   0.820730 0.541240 0.668250 -0.518787
O22   O     O_R   0.179270 0.541240 0.331750 -0.519046
O23   O     O_R   0.320730 0.041240 0.668250 -0.518785
O24   O     O_R   0.679270 0.041240 0.331750 -0.519048
O25   O     O_R   0.714240 0.455060 0.663710 -0.532586
O26   O     O_R   0.285760 0.455060 0.336290 -0.532540
O27   O     O_R   0.214240 0.955060 0.663710 -0.532587
O28   O     O_R   0.785760 0.955060 0.336290 -0.532539
O29   O     O_R   0.736780 0.204870 0.675910 -0.513132
O30   O     O_R   0.263220 0.204870 0.324090 -0.513269
O31   O     O_R   0.236780 0.704870 0.675910 -0.513132
O32   O     O_R   0.763220 0.704870 0.324090 -0.513269
O33   O     O_R   0.833070 0.087590 0.673490 -0.524747
O34   O     O_R   0.166930 0.087590 0.326510 -0.523745
O35   O     O_R   0.333070 0.587590 0.673490 -0.524746
O36   O     O_R   0.666930 0.587590 0.326510 -0.523746
O37   O     O_R   0.946890 0.246800 0.676300 -0.511675
O38   O     O_R   0.053110 0.246800 0.323700 -0.510259
O39   O     O_R   0.446890 0.746800 0.676300 -0.511675
O40   O     O_R   0.553110 0.746800 0.323700 -0.510259
O41   O     O_R   0.956650 0.457120 0.827980 -0.541245
O42   O     O_R   0.043350 0.457120 0.172020 -0.539156
O43   O     O_R   0.456650 0.957120 0.827980 -0.541245
O44   O     O_R   0.543350 0.957120 0.172020 -0.539156
O45   O     O_R   0.820220 0.548390 0.818890 -0.511262
O46   O     O_R   0.179780 0.548390 0.181110 -0.513085
O47   O     O_R   0.320220 0.048390 0.818890 -0.511262
O48   O     O_R   0.679780 0.048390 0.181110 -0.513085
O49   O     O_R   0.713680 0.462770 0.826210 -0.531271
O50   O     O_R   0.286320 0.462770 0.173790 -0.532157
O51   O     O_R   0.213680 0.962770 0.826210 -0.531271
O52   O     O_R   0.786320 0.962770 0.173790 -0.532157
N1    N     N_3   0.665641 0.237073 0.428517 -0.681398
H133  H     H_    0.623507 0.274775 0.452975 0.206444
H134  H     H_    0.649712 0.221842 0.376044 0.263572
N2    N     N_3   0.333613 0.236651 0.570917 -0.682504
H135  H     H_    0.376259 0.272904 0.546967 0.206509
H136  H     H_    0.348498 0.221986 0.623840 0.264111
N3    N     N_3   0.165640 0.737072 0.428517 -0.681397
H137  H     H_    0.123509 0.774778 0.452977 0.206442
H138  H     H_    0.149706 0.721838 0.376046 0.263573
N4    N     N_3   0.833612 0.736652 0.570916 -0.682508
H139  H     H_    0.876261 0.772901 0.546969 0.206511
H140  H     H_    0.848492 0.721990 0.623842 0.264112
C121  C     C_1   0.790140 0.265556 0.125602 0.146216
N5    N     N_1   0.821833 0.308428 0.170999 -0.322973
C122  C     C_1   0.217577 0.271036 0.869921 0.148572
N6    N     N_1   0.188009 0.315769 0.823292 -0.318645
C123  C     C_1   0.290140 0.765556 0.125602 0.146217
N7    N     N_1   0.321833 0.808428 0.170999 -0.322972
C124  C     C_1   0.717577 0.771036 0.869921 0.148572
N8    N     N_1   0.688009 0.815769 0.823292 -0.318645
N9    N     N_3   0.955376 0.563603 0.068161 -0.702482
H141  H     H_    0.950227 0.554320 0.123281 0.268650
H142  H     H_    0.968925 0.651143 0.058679 0.214274
N10   N     N_3   0.058240 0.543925 0.925001 -0.698586
H143  H     H_    0.062448 0.525059 0.870658 0.267478
H144  H     H_    0.050184 0.634903 0.928795 0.211147
N11   N     N_3   0.455375 0.063603 0.068161 -0.702482
H145  H     H_    0.450227 0.054319 0.123281 0.268650
H146  H     H_    0.468925 0.151143 0.058680 0.214274
N12   N     N_3   0.558240 0.043925 0.925001 -0.698587
H147  H     H_    0.562447 0.025060 0.870658 0.267478
H148  H     H_    0.550184 0.134903 0.928795 0.211146

loop_
_geom_bond_atom_site_label_1
_geom_bond_atom_site_label_2
_ccdc_geom_bond_type
C82   C94   S    
C119  H11   S    
C7    H127  S    
C120  H12   S    
C77   N9    S    
C116  H84   S    
C53   C69   S    
C56   H60   S    
N9    H141  S    
C43   C63   S    
C123  N7    T    
C44   C64   S    
C46   O30   A    
C70   H86   S    
C85   H101  S    
C86   H99   S    
C63   C98   S    
C51   H51   S    
C31   H40   S    
C28   C40   S    
Cr12  O12   S    
C36   H36   S    
C87   H103  S    
C81   H106  S    
C30   C38   S    
C43   H43   S    
C56   C72   S    
C98   O46   A    
C8    H124  S    
N4    H139  S    
C106  O14   A    
C21   H5    S    
C18   C118  S    
C81   C86   S    
C83   C88   S    
C92   O40   A    
C91   O3    A    
C41   C49   S    
C109  H1    S    
N3    H137  S    
C46   O34   A    
N10   H143  S    
C11   C119  S    
Cr1   O1    S    
C18   H14   S    
C26   C38   S    
C14   C114  S    
C73   H69   S    
Cr4   O4    S    
C24   H8    S    
C55   H59   S    
C15   C19   S    
C30   H37   S    
C47   O35   A    
C54   C70   S    
C23   H131  S    
C68   C72   S    
Cr9   O37   S    
C59   C123  S    
C69   H61   S    
C115  H83   S    
C98   O50   A    
C102  O10   A    
C31   H25   S    
C64   C97   S    
C36   H29   S    
C15   C115  S    
C53   C61   S    
Cr6   O50   S    
Cr7   O31   S    
Cr8   O32   S    
Cr1   O41   S    
C57   H65   S    
Cr6   O6    S    
C52   H52   S    
C72   H64   S    
C118  H114  S    
C57   C61   S    
C78   C94   S    
C82   C85   S    
C59   C63   S    
C60   C64   S    
C13   C45   S    
C66   C70   S    
C22   H130  S    
Cr9   O33   S    
C58   C122  S    
C95   C108  S    
C60   H68   S    
C62   C99   S    
C92   O4    A    
C5    C21   S    
C108  O44   A    
C31   C36   S    
C48   O36   A    
C55   C71   S    
C76   H76   S    
N2    H136  S    
Cr6   O30   S    
Cr7   O51   S    
C116  H112  S    
Cr2   O2    S    
C114  H82   S    
C65   C101  S    
C43   C51   S    
Cr11  O19   S    
C67   C103  S    
C3    O27   A    
C37   C90   S    
Cr10  O34   S    
Cr11  O39   S    
C42   H46   S    
C100  O48   A    
C20   H120  S    
C66   C74   S    
C25   H17   S    
C57   C73   S    
C119  H115  S    
C71   H63   S    
C106  O42   A    
C87   C95   S    
C56   C64   S    
C10   C110  S    
C47   O31   A    
C42   C62   S    
C48   O32   A    
C89   O37   A    
C44   C52   S    
C91   O39   A    
Cr7   O7    S    
Cr8   O8    S    
C50   H50   S    
C1    C12   S    
Cr1   O17   S    
C112  H4    S    
C2    C11   S    
Cr4   O20   S    
Cr12  O16   S    
C78   N10   S    
C42   H42   S    
C75   H71   S    
C1    O25   A    
C25   C26   S    
C101  O5    A    
C124  N8    T    
C109  N1    S    
N3    H138  S    
C103  O7    A    
C8    H128  S    
C60   C124  S    
C5    C9    S    
C93   C106  S    
N12   H148  S    
C104  O12   A    
C8    C12   S    
C5    H125  S    
C51   C67   S    
C78   H90   S    
C49   H49   S    
C114  H110  S    
C42   C50   S    
N11   H146  S    
C110  H2    S    
C61   C100  S    
C67   C75   S    
Cr8   O20   S    
C50   H54   S    
C112  C116  S    
C58   C74   S    
C21   H129  S    
C41   H41   S    
C83   H108  S    
C54   H58   S    
C33   H33   S    
C44   H44   S    
Cr5   O17   S    
C79   H91   S    
C68   C76   S    
C13   C17   S    
C14   C22   S    
C99   O51   A    
C103  O11   A    
C19   H119  S    
C7    C23   S    
C17   H117  S    
C8    C24   S    
C89   O1    A    
C40   C91   S    
Cr5   O25   S    
Cr4   O44   S    
C84   H107  S    
C54   H78   S    
C49   H53   S    
Cr1   O45   S    
Cr2   O42   S    
C72   H88   S    
Cr3   O47   S    
C52   H56   S    
C4    C9    S    
C53   H57   S    
C58   C62   S    
C88   C96   S    
C94   C105  S    
Cr9   O9    S    
C12   C112  S    
C44   H48   S    
C1    O21   A    
C14   C46   S    
C77   C78   S    
C3    O23   A    
C43   H47   S    
C86   H102  S    
C69   H85   S    
C110  N2    S    
N10   H144  S    
C74   H74   S    
C6    C22   S    
C82   H105  S    
C9    C117  S    
N1    H134  S    
C14   C18   S    
C73   H73   S    
N9    H142  S    
Cr6   O26   S    
C99   O47   A    
C20   C120  S    
C15   C47   S    
Cr10  O10   S    
Cr12  O36   S    
Cr11  O15   S    
C17   C117  S    
C88   H97   S    
C19   C119  S    
Cr10  O38   S    
C9    C109  S    
Cr11  O35   S    
C16   C116  S    
C100  O52   A    
C75   H75   S    
C27   H23   S    
C117  H9    S    
C25   H21   S    
C26   H18   S    
C74   H70   S    
C107  O43   A    
C11   C111  S    
C29   C34   S    
C19   H15   S    
C41   C61   S    
C80   N12   S    
C45   O33   A    
C7    C11   S    
C122  N6    T    
C104  O8    A    
C79   C95   S    
C80   H92   S    
C90   O38   A    
Cr5   O29   S    
C70   H62   S    
C79   N11   S    
C107  O15   A    
Cr1   O21   S    
Cr2   O18   S    
Cr3   O23   S    
Cr4   O24   S    
Cr12  O20   S    
C32   H39   S    
C39   C92   S    
C41   H45   S    
C27   H19   S    
C102  O6    A    
C7    H123  S    
C68   C104  S    
C111  N3    S    
C17   H13   S    
C6    C10   S    
C117  H113  S    
C87   H98   S    
C54   C62   S    
C22   H6    S    
C6    H126  S    
C2    O26   A    
C82   H96   S    
C65   C69   S    
Cr6   O18   S    
C77   C93   S    
C60   C76   S    
Cr4   O48   S    
C67   C71   S    
C111  H3    S    
C33   C37   S    
C51   H55   S    
Cr3   O3    S    
C53   H77   S    
Cr12  O40   S    
C29   C37   S    
C112  N4    S    
C34   H34   S    
N11   H145  S    
C97   O45   A    
C105  O13   A    
C121  N5    T    
C66   C102  S    
C35   C39   S    
C84   C87   S    
C113  H81   S    
C84   H94   S    
C16   C48   S    
C4    O28   A    
C29   H27   S    
C30   H28   S    
C38   C89   S    
C4    O24   A    
C49   C65   S    
C23   H7    S    
C90   O2    A    
C56   H80   S    
C5    H121  S    
Cr2   O46   S    
C65   C73   S    
C6    H122  S    
Cr3   O43   S    
C84   C96   S    
Cr7   O19   S    
C86   C94   S    
C25   C37   S    
C12   C120  S    
C59   H67   S    
C35   H35   S    
Cr9   O13   S    
C29   H38   S    
C80   C96   S    
C52   C68   S    
C16   C20   S    
C2    O22   A    
C15   C23   S    
C16   C24   S    
C55   C63   S    
C97   O49   A    
C101  O9    A    
C85   H100  S    
C85   C93   S    
C32   H26   S    
C88   H104  S    
C35   H30   S    
C13   C21   S    
C32   C35   S    
C36   C40   S    
C33   H32   S    
Cr5   O49   S    
C34   H31   S    
C27   C39   S    
Cr7   O27   S    
Cr8   O52   S    
Cr5   O5    S    
Cr10  O14   S    
Cr11  O11   S    
C10   C118  S    
C81   C93   S    
Cr8   O28   S    
C83   C95   S    
C24   H132  S    
C20   H16   S    
Cr9   O17   S    
C50   C66   S    
C115  H111  S    
C77   H89   S    
C28   H20   S    
C113  H109  S    
C26   H22   S    
C59   C75   S    
C83   H93   S    
C57   C121  S    
C110  C114  S    
C58   H66   S    
C81   H95   S    
C30   C33   S    
C34   C38   S    
C45   O29   A    
C96   C107  S    
C118  H10   S    
N4    H140  S    
C76   H72   S    
C109  C113  S    
C120  H116  S    
C71   H87   S    
N2    H135  S    
Cr2   O22   S    
Cr10  O18   S    
C3    C10   S    
Cr3   O19   S    
N12   H147  S    
C18   H118  S    
C31   C39   S    
C32   C40   S    
N1    H133  S    
C55   H79   S    
C79   C80   S    
C27   C28   S    
C28   H24   S    
C111  C115  S    
C108  O16   A    
C13   C113  S    
C105  O41   A    
