data_mof_unit_25660.cif
_audit_creation_date              2012-12-10T19:01:53-0500
_audit_creation_method            fapswitch 2.2
_symmetry_space_group_name_H-M    P1
_symmetry_Int_Tables_number       1
_space_group_crystal_system       triclinic
_cell_length_a                    11.677998
_cell_length_b                    10.880335
_cell_length_c                    9.63015
_cell_angle_alpha                 90.094091
_cell_angle_beta                  90.711998
_cell_angle_gamma                 90.350499
_cell_volume                      1223.49279116

loop_
_atom_site_label
_atom_site_type_symbol
_atom_type_description
_atom_site_fract_x
_atom_site_fract_y
_atom_site_fract_z
_atom_type_partial_charge
C1    C     C_R   0.504558 0.262825 0.499016 0.838750
C2    C     C_R   0.503395 0.129405 0.494196 -0.201305
C3    C     C_R   0.530635 0.061205 0.372427 0.340851
C4    C     C_R   0.519970 0.933331 0.375579 -0.180227
C5    C     C_R   0.490853 0.870799 0.497381 -0.210819
C6    C     C_R   0.452955 0.939731 0.609786 0.018215
C7    C     C_3   0.477620 0.933952 0.762166 0.298030
C8    C     C_3   0.490764 0.073476 0.759188 -0.397706
C9    C     C_R   0.599395 0.487682 0.073525 0.187128
C10   C     C_R   0.399657 0.497931 0.070613 0.495189
C11   C     C_R   0.400688 0.480705 0.922252 0.555975
C12   C     C_R   0.284259 0.500240 0.499301 0.801469
C13   C     C_R   0.598785 0.485733 0.928019 0.098738
C14   C     C_3   0.709298 0.551574 0.915412 -0.486436
C15   C     C_3   0.709976 0.561028 0.073657 0.171503
C16   C     C_R   0.497245 0.737374 0.500071 0.821444
C17   C     C_R   0.715748 0.500038 0.500663 0.842680
C18   C     C_1   0.162504 0.500783 0.498096 -0.158350
C19   C     C_1   0.059929 0.501000 0.498824 0.002791
C20   C     C_1   0.940090 0.500856 0.500606 0.019822
C21   C     C_1   0.837514 0.500501 0.501569 -0.131999
C22   C     C_R   0.460672 0.065883 0.608209 0.013959
Cu1   Cu    Cu3+1 0.499990 0.499980 0.640670 1.024298
Cu2   Cu    Cu3+1 0.500010 0.500020 0.359330 1.087798
H1    H     H_    0.700025 0.639673 0.857976 0.250247
H2    H     H_    0.782822 0.511846 0.123385 0.110898
H3    H     H_    0.541220 0.882163 0.284414 0.271774
H4    H     H_    0.557404 0.883670 0.789343 0.142225
H5    H     H_    0.425888 0.124962 0.819095 0.255275
H6    H     H_    0.580557 0.104700 0.777462 0.191934
H7    H     H_    0.777551 0.490490 0.875843 0.176839
N1    N     N_R   0.500710 0.500930 0.147930 -0.221368
N2    N     N_R   0.500710 0.500890 0.852020 -0.221379
O1    O     O_R   0.500000 0.319640 0.618810 -0.565265
O2    O     O_R   0.500010 0.319680 0.381230 -0.504108
O3    O     O_R   0.337190 0.499990 0.618790 -0.534177
O4    O     O_R   0.337200 0.500030 0.381210 -0.531282
O5    O     O_R   0.499990 0.680320 0.618770 -0.569355
O6    O     O_R   0.500000 0.680360 0.381190 -0.554137
O7    O     O_R   0.662800 0.499970 0.618790 -0.597176
O8    O     O_R   0.662810 0.500010 0.381210 -0.540681
S1    S     S_3+6 0.589132 0.126750 0.218958 0.048660
O9    O     O_2   0.682615 0.216650 0.257197 -0.274299
O10   O     O_2   0.638853 0.029491 0.126998 -0.197101
O11   O     O_3   0.485847 0.200430 0.129446 -0.524497
H8    H     H_    0.427079 0.136747 0.108850 0.366974
S2    S     S_3+6 0.699206 0.718501 0.124423 0.029820
O12   O     O_2   0.583871 0.765544 0.080088 -0.252617
O13   O     O_2   0.715242 0.732300 0.278557 -0.294743
O14   O     O_3   0.801012 0.801082 0.044356 -0.469168
H9    H     H_    0.874086 0.761311 0.071124 0.342340
S3    S     S_3+6 0.353680 0.884752 0.854597 0.007334
O15   O     O_2   0.377887 0.890499 0.007984 -0.265314
O16   O     O_2   0.253191 0.965808 0.821140 -0.280972
O17   O     O_3   0.321821 0.739676 0.808395 -0.561382
H10   H     H_    0.281448 0.746474 0.717685 0.347168
O18   O     O_3   0.295911 0.508833 0.135066 -0.592376
C23   C     C_3   0.269777 0.635131 0.146771 -0.225492
H11   H     H_    0.192475 0.644706 0.211597 0.171630
H12   H     H_    0.339989 0.688566 0.197934 0.210654
H13   H     H_    0.249405 0.676056 0.044503 0.207379
O19   O     O_3   0.317066 0.409244 0.855895 -0.556482
C24   C     C_3   0.204480 0.451694 0.874662 -0.196956
H14   H     H_    0.150107 0.413555 0.789602 0.174930
H15   H     H_    0.197978 0.552968 0.867053 0.167860
H16   H     H_    0.167881 0.415341 0.972125 0.204583

loop_
_geom_bond_atom_site_label_1
_geom_bond_atom_site_label_2
_ccdc_geom_bond_type
C2    C22   A    
C8    C22   S    
O17   H10   S    
Cu2   N1    S    
C3    S1    S    
C13   N2    A    
C6    C7    S    
C12   O3    A    
Cu1   O5    S    
C19   C20   S    
S3    O17   S    
C15   S2    S    
C14   H7    S    
Cu1   Cu2   S    
C11   O19   S    
C8    H6    S    
Cu1   O1    S    
C23   H13   S    
C24   H15   S    
C2    C3    A    
C9    C15   S    
C24   H16   S    
C7    C8    S    
S2    O13   D    
C13   C14   S    
C20   C21   T    
Cu2   O8    S    
O18   C23   S    
O19   C24   S    
S1    O10   D    
C8    H5    S    
S3    O16   D    
C7    S3    S    
Cu2   O4    S    
S2    O14   S    
C10   O18   S    
C14   H1    S    
C5    C6    A    
C17   O8    A    
Cu2   O2    S    
C10   C11   A    
C1    O1    A    
C23   H12   S    
Cu1   O7    S    
Cu1   O3    S    
S2    O12   D    
C10   N1    A    
C11   N2    A    
C4    H3    S    
S3    O15   D    
C1    O2    A    
Cu1   N2    S    
C1    C2    S    
S1    O9    D    
C12   C18   S    
C12   O4    A    
C9    C13   A    
C14   C15   S    
C18   C19   T    
C15   H2    S    
C16   O6    A    
C9    N1    A    
O14   H9    S    
C23   H11   S    
O11   H8    S    
C4    C5    A    
Cu2   O6    S    
S1    O11   S    
C17   C21   S    
C7    H4    S    
C3    C4    A    
C16   O5    A    
C24   H14   S    
C5    C16   S    
C17   O7    A    
C6    C22   A    
