data_mof_unit_30911.cif
_audit_creation_date              2012-12-10T19:45:39-0500
_audit_creation_method            fapswitch 2.2
_symmetry_space_group_name_H-M    P1
_symmetry_Int_Tables_number       1
_space_group_crystal_system       triclinic
_cell_length_a                    10.872387
_cell_length_b                    15.017051
_cell_length_c                    15.713318
_cell_angle_alpha                 62.845931
_cell_angle_beta                  112.411552
_cell_angle_gamma                 102.305746
_cell_volume                      2107.95754735

loop_
_atom_site_label
_atom_site_type_symbol
_atom_type_description
_atom_site_fract_x
_atom_site_fract_y
_atom_site_fract_z
_atom_type_partial_charge
C1    C     C_R   0.482045 0.119034 0.313100 0.880387
C2    C     C_R   0.519784 0.880653 0.687153 0.868206
C3    C     C_R   0.867457 0.016512 0.478320 -0.187728
C4    C     C_R   0.135060 0.980612 0.526142 -0.204936
C5    C     C_R   0.900107 0.946972 0.453274 -0.055459
C6    C     C_R   0.102660 0.049358 0.552348 -0.057556
C7    C     C_R   0.465663 0.184591 0.203690 -0.240638
C8    C     C_R   0.542386 0.813263 0.796836 -0.235881
C9    C     C_R   0.310613 0.236098 0.034252 -0.112149
C10   C     C_R   0.714819 0.752705 0.958277 -0.102587
C11   C     C_R   0.372572 0.158657 0.125874 0.288534
C12   C     C_R   0.647096 0.833408 0.873569 0.299994
C13   C     C_R   0.532252 0.279602 0.175047 0.680934
C14   C     C_R   0.475606 0.718589 0.824499 0.684920
C15   C     C_R   0.484029 0.357155 0.075676 -0.063726
C16   C     C_R   0.535875 0.634893 0.915353 -0.048599
C17   C     C_R   0.363517 0.334964 0.009196 -0.095440
C18   C     C_R   0.662420 0.654083 0.978628 -0.114732
C19   C     C_R   0.546393 0.456122 0.040723 -0.004225
C20   C     C_R   0.478287 0.533764 0.945863 0.012575
C21   C     C_R   0.357932 0.506185 0.884061 -0.156968
C22   C     C_R   0.676729 0.479163 0.094626 -0.133936
C23   C     C_R   0.266112 0.992341 0.510453 0.864910
C24   C     C_R   0.734783 0.006776 0.490964 0.855210
C25   C     C_R   0.302882 0.409226 0.914400 0.654041
C26   C     C_R   0.732382 0.575905 0.065428 0.661161
C27   C     C_R   0.764508 0.301408 0.632110 -0.246894
C28   C     C_R   0.235451 0.699183 0.366855 -0.257873
C29   C     C_R   0.711520 0.210392 0.627622 0.579880
C30   C     C_R   0.289336 0.790355 0.370913 0.577909
C31   C     C_R   0.509231 0.290817 0.502571 0.328162
C32   C     C_R   0.489269 0.708591 0.497999 0.350573
C33   C     C_R   0.552222 0.375046 0.527567 -0.118226
C34   C     C_R   0.446855 0.624935 0.472571 -0.145054
C35   C     C_R   0.687598 0.383492 0.581061 0.026673
C36   C     C_R   0.311652 0.616533 0.419194 -0.010019
C37   C     C_R   0.469750 0.454049 0.497499 0.123772
C38   C     C_R   0.529453 0.545652 0.503812 0.108730
C39   C     C_R   0.669404 0.556654 0.535765 -0.091935
C40   C     C_R   0.329949 0.442521 0.468340 -0.111369
C41   C     C_R   0.746681 0.475112 0.580903 -0.041969
C42   C     C_R   0.252388 0.524292 0.421660 -0.056277
C43   C     C_R   0.319966 0.066644 0.803108 -0.161440
C44   C     C_R   0.715700 0.917198 0.205949 -0.168723
C45   C     C_R   0.226491 0.027227 0.735821 0.393613
C46   C     C_R   0.792160 0.963514 0.271653 0.424613
C47   C     C_R   0.202439 0.082051 0.629859 0.036248
C48   C     C_R   0.802627 0.913820 0.375574 0.021278
C49   C     C_R   0.271143 0.173495 0.595926 -0.134400
C50   C     C_R   0.731116 0.823494 0.408449 -0.122267
C51   C     C_R   0.358316 0.212661 0.663060 -0.240005
C52   C     C_R   0.652697 0.781169 0.341812 -0.246642
C53   C     C_R   0.386573 0.159585 0.766081 0.465081
C54   C     C_R   0.644840 0.826011 0.241497 0.424374
C55   C     C_R   0.970696 0.079838 0.512042 0.464263
C56   C     C_R   0.031992 0.917530 0.492363 0.430991
Cu1   Cu    Cu3+1 0.466270 0.918260 0.475690 1.155868
Cu2   Cu    Cu3+1 0.533730 0.081740 0.524310 1.154996
H1    H     H_    0.230956 0.217287 0.976928 0.253922
H2    H     H_    0.801481 0.767706 0.014443 0.262811
H3    H     H_    0.304810 0.555875 0.808905 0.252451
H4    H     H_    0.742126 0.423537 0.158128 0.261327
H5    H     H_    0.853335 0.484128 0.615182 0.191180
H6    H     H_    0.145581 0.514951 0.388413 0.176581
H7    H     H_    0.867679 0.308266 0.676926 0.214473
H8    H     H_    0.132720 0.692797 0.321062 0.220189
H9    H     H_    0.721146 0.625803 0.535854 0.181390
H10   H     H_    0.278240 0.372640 0.471367 0.168923
H11   H     H_    0.340272 0.025317 0.883785 0.225197
H12   H     H_    0.709675 0.952419 0.127303 0.211395
H13   H     H_    0.252877 0.215018 0.515821 0.218863
H14   H     H_    0.740881 0.785008 0.487471 0.218036
H15   H     H_    0.404548 0.285276 0.636015 0.183300
H16   H     H_    0.599657 0.711475 0.367623 0.156147
N1    N     N_R   0.584450 0.204570 0.560790 -0.277589
N2    N     N_R   0.415550 0.795430 0.439210 -0.274902
O1    O     O_R   0.455540 0.022090 0.338120 -0.525821
O2    O     O_R   0.544460 0.977910 0.661880 -0.528389
O3    O     O_R   0.512510 0.160150 0.379180 -0.457836
O4    O     O_R   0.487490 0.839850 0.620820 -0.463251
O5    O     O_R   0.291160 0.930970 0.479480 -0.495008
O6    O     O_R   0.708840 0.069030 0.520520 -0.499130
O7    O     O_R   0.348130 0.069020 0.520540 -0.581080
O8    O     O_R   0.651870 0.930980 0.479460 -0.583413
S1    S     S_3+6 0.505910 0.212989 0.845096 0.068673
O9    O     O_2   0.438289 0.236368 0.899174 -0.260087
O10   O     O_2   0.613684 0.141198 0.920329 -0.210571
O11   O     O_3   0.575429 0.319850 0.776558 -0.528326
H17   H     H_    0.635962 0.346611 0.826022 0.406477
S2    S     S_3+6 0.546053 0.764537 0.163782 0.084399
O12   O     O_2   0.430583 0.826764 0.083464 -0.202398
O13   O     O_2   0.630004 0.749356 0.115268 -0.226098
O14   O     O_3   0.486932 0.651528 0.231622 -0.495801
H18   H     H_    0.408276 0.665294 0.240237 0.368471
S3    S     S_3+6 0.584482 0.675926 0.629580 0.029342
O15   O     O_2   0.659079 0.581525 0.685303 -0.280883
O16   O     O_2   0.683024 0.758331 0.645430 -0.269855
O17   O     O_3   0.470789 0.651721 0.685979 -0.477026
H19   H     H_    0.413976 0.594937 0.673600 0.362093
S4    S     S_3+6 0.405437 0.320394 0.372427 0.042119
O18   O     O_2   0.312521 0.234564 0.359652 -0.267010
O19   O     O_2   0.322583 0.410295 0.319211 -0.263839
O20   O     O_3   0.511316 0.351345 0.308276 -0.442809
H20   H     H_    0.563377 0.411305 0.316595 0.377692
S5    S     S_3+6 0.172581 0.887416 0.288094 0.111500
O21   O     O_2   0.139100 0.894530 0.183208 -0.204445
O22   O     O_2   0.046434 0.853575 0.313769 -0.260443
O23   O     O_3   0.213594 0.002771 0.284135 -0.492969
H21   H     H_    0.160087 0.048139 0.215765 0.382593
S6    S     S_3+6 0.831898 0.115441 0.705551 0.116962
O24   O     O_2   0.949838 0.148824 0.669549 -0.247612
O25   O     O_2   0.879556 0.112670 0.809910 -0.216033
O26   O     O_3   0.788029 0.998225 0.715399 -0.497685
H22   H     H_    0.853431 0.955637 0.778887 0.393098
S7    S     S_3+6 0.147483 0.909076 0.788775 0.049631
O27   O     O_2   0.235748 0.829224 0.815844 -0.240007
O28   O     O_2   0.129608 0.898008 0.883483 -0.202794
O29   O     O_3   0.998053 0.894667 0.708201 -0.565536
H23   H     H_    0.958351 0.830852 0.748233 0.397942
S8    S     S_3+6 0.863979 0.085301 0.220109 0.066462
O30   O     O_2   0.869491 0.107833 0.118039 -0.248112
O31   O     O_2   0.778557 0.159297 0.208496 -0.220271
O32   O     O_3   0.018524 0.097098 0.296155 -0.539509
H24   H     H_    0.051661 0.165493 0.259025 0.409338
S9    S     S_3+6 0.947074 0.212214 0.453538 0.071802
O33   O     O_2   0.981265 0.255571 0.357725 -0.227045
O34   O     O_2   0.806256 0.235268 0.426637 -0.197458
O35   O     O_3   0.044952 0.272139 0.525491 -0.527705
H25   H     H_    0.025307 0.343773 0.483440 0.368411
S10   S     S_3+6 0.055608 0.785933 0.543739 0.066508
O36   O     O_2   0.974421 0.740627 0.470507 -0.252958
O37   O     O_2   0.198024 0.762188 0.576948 -0.212366
O38   O     O_3   0.002769 0.728730 0.644760 -0.488925
H26   H     H_    0.081644 0.729256 0.703039 0.418848
F1    F     F_    0.188790 0.387924 0.849324 -0.631295
F2    F     F_    0.856718 0.593002 0.123318 -0.621574
F3    F     F_    0.349540 0.714013 0.763771 -0.631528
F4    F     F_    0.643304 0.292943 0.245867 -0.601385
S11   S     S_3+6 0.654927 0.942059 0.893484 0.082200
O39   O     O_2   0.616974 0.036017 0.798809 -0.247178
O40   O     O_2   0.558969 0.924074 0.947778 -0.250182
O41   O     O_3   0.809435 0.957761 0.967944 -0.451889
H27   H     H_    0.803442 0.011201 0.986304 0.417034
S12   S     S_3+6 0.381848 0.047220 0.115622 0.083270
O42   O     O_2   0.409164 0.954284 0.212261 -0.261680
O43   O     O_2   0.255791 0.029981 0.039315 -0.207370
O44   O     O_3   0.508739 0.066917 0.072998 -0.458721
H28   H     H_    0.491152 0.017608 0.043845 0.394509

loop_
_geom_bond_atom_site_label_1
_geom_bond_atom_site_label_2
_ccdc_geom_bond_type
O14   H18   S    
C27   C29   A    
C1    O1    A    
C5    C56   A    
C36   C42   A    
S3    O15   D    
C18   C26   A    
C6    C55   A    
O35   H25   S    
Cu1   Cu2   S    
S3    O17   S    
O32   H24   S    
C39   C41   A    
S1    O9    D    
C15   C19   A    
S5    O22   D    
C23   O7    A    
C2    O2    A    
Cu1   N2    S    
C16   C20   A    
C54   S2    S    
C37   C40   A    
C52   H16   S    
Cu2   O6    S    
C38   C39   A    
S11   O41   S    
S7    O27   D    
O23   H21   S    
C50   H14   S    
O29   H23   S    
C24   O6    A    
O44   H28   S    
S6    O24   D    
C3    C55   A    
C43   C53   A    
C19   C20   A    
C44   C46   A    
C49   C51   A    
S9    O35   S    
C50   C52   A    
C31   C33   A    
C44   H12   S    
C11   S12   S    
C21   H3    S    
S8    O32   S    
C55   S9    S    
C52   C54   A    
C48   C50   A    
C43   H11   S    
C1    C7    S    
C4    C56   A    
Cu1   O4    S    
C3    C24   S    
S12   O44   S    
C35   C41   A    
C5    C48   S    
S8    O31   D    
Cu2   N1    S    
C7    C11   A    
C45   C47   A    
S5    O23   S    
C46   C48   A    
C12   S11   S    
C6    C47   S    
S1    O10   D    
Cu1   O1    S    
C29   S6    S    
C19   C22   A    
C26   F2    S    
S12   O43   D    
C21   C25   A    
C4    C23   S    
C27   C35   A    
S4    O20   S    
C33   C37   A    
C51   C53   A    
C32   C34   A    
S10   O37   D    
C37   C38   A    
C27   H7    S    
C22   H4    S    
C30   N2    A    
C45   S7    S    
S2    O13   D    
C14   F3    S    
C8    C12   A    
S7    O29   S    
S4    O19   D    
Cu1   O8    S    
C46   S8    S    
C31   S4    S    
C20   C21   A    
C9    C11   A    
S6    O26   S    
C10   C12   A    
Cu2   O3    S    
C4    C6    A    
C13   C15   A    
C30   S5    S    
C22   C26   A    
O38   H26   S    
C1    O3    A    
C14   C16   A    
S10   O38   S    
C41   H5    S    
C42   H6    S    
C31   N1    A    
S8    O30   D    
S2    O14   S    
O26   H22   S    
S1    O11   S    
C9    C17   A    
C15   C17   A    
S7    O28   D    
C10   H2    S    
C8    C14   A    
C23   O5    A    
C34   C38   A    
C39   H9    S    
C2    C8    S    
C51   H15   S    
S12   O42   D    
C3    C5    A    
C32   N2    A    
S11   O39   D    
S3    O16   D    
C29   N1    A    
C47   C49   A    
S5    O21   D    
C17   C25   A    
C13   F4    S    
C28   C30   A    
S10   O36   D    
C24   O8    A    
C43   C45   A    
Cu2   O7    S    
S11   O40   D    
S2    O12   D    
S9    O33   D    
C49   H13   S    
C10   C18   A    
C40   C42   A    
S4    O18   D    
C33   C35   A    
C34   C36   A    
C25   F1    S    
Cu1   O5    S    
S6    O25   D    
C2    O4    A    
Cu2   O2    S    
C44   C54   A    
C7    C13   A    
C32   S3    S    
O11   H17   S    
C28   C36   A    
C16   C18   A    
O17   H19   S    
C40   H10   S    
C28   H8    S    
O20   H20   S    
S9    O34   D    
O41   H27   S    
C53   S1    S    
C9    H1    S    
C56   S10   S    
