data_mof_unit_6184.cif
_audit_creation_date              2013-03-05T16:37:23-0500
_audit_creation_method            fapswitch 2.2
_symmetry_space_group_name_H-M    P1
_symmetry_Int_Tables_number       1
_space_group_crystal_system       triclinic
_cell_length_a                    18.699247
_cell_length_b                    18.532923
_cell_length_c                    18.87626
_cell_angle_alpha                 109.403966
_cell_angle_beta                  109.461908
_cell_angle_gamma                 108.880026
_cell_volume                      5076.68247903

loop_
_atom_site_label
_atom_site_type_symbol
_atom_site_description
_atom_site_fract_x
_atom_site_fract_y
_atom_site_fract_z
_atom_type_partial_charge
O1    O     O_R   0.408620 0.551720 0.460350 -0.619140
O2    O     O_R   0.409320 0.448300 0.357580 -0.576500
C1    C     C_R   0.379303 0.499322 0.380946 0.940859
O3    O     O_R   0.591270 0.643330 0.551380 -0.607765
O4    O     O_R   0.591970 0.539910 0.448620 -0.632453
C2    C     C_R   0.621359 0.620375 0.501493 0.862541
Zn1   Zn    Zn3+2 0.499530 0.569060 0.568620 0.958939
Zn2   Zn    Zn3+2 0.500470 0.430940 0.431380 1.007018
O5    O     O_R   0.590680 0.551700 0.642420 -0.613878
O6    O     O_R   0.591380 0.448280 0.539650 -0.633620
O7    O     O_R   0.408030 0.460090 0.551380 -0.649256
O8    O     O_R   0.408730 0.356670 0.448620 -0.586279
C3    C     C_R   0.616765 0.496332 0.619008 0.916457
C4    C     C_R   0.378211 0.379893 0.498297 0.910681
H1    H     H_    0.821883 0.806505 0.895925 0.132143
C5    C     C_R   0.810076 0.862459 0.812055 -0.139995
H2    H     H_    0.822613 0.923884 0.860109 0.123678
C6    C     C_R   0.794376 0.849312 0.729814 -0.158644
H3    H     H_    0.795275 0.901304 0.715279 0.108620
C7    C     C_R   0.777657 0.769540 0.666860 0.132126
C8    C     C_R   0.778804 0.704090 0.688176 -0.114754
H4    H     H_    0.768201 0.643037 0.641397 0.099056
C9    C     C_R   0.794226 0.717491 0.770389 -0.131386
H5    H     H_    0.794197 0.666639 0.786120 0.139785
C10   C     C_R   0.809745 0.796422 0.832265 -0.113902
C11   C     C_R   0.825863 0.816877 0.575893 -0.252655
H6    H     H_    0.884261 0.870699 0.635133 0.154990
C12   C     C_R   0.813494 0.809909 0.496319 -0.059125
C13   C     C_R   0.736469 0.742306 0.418572 0.018723
C14   C     C_R   0.675270 0.680107 0.423031 -0.247862
H7    H     H_    0.616381 0.626467 0.364130 0.147679
C15   C     C_R   0.688209 0.686809 0.502571 -0.065548
C16   C     C_R   0.762824 0.756873 0.580395 -0.007466
C17   C     C_R   0.637654 0.724216 0.278254 -0.142246
H8    H     H_    0.590580 0.724098 0.299576 0.131008
C18   C     C_R   0.618565 0.715117 0.196575 -0.150476
H9    H     H_    0.557392 0.708151 0.155642 0.129378
C19   C     C_R   0.678263 0.714803 0.167662 -0.128267
H10   H     H_    0.663385 0.707654 0.104381 0.124320
C20   C     C_R   0.757113 0.723583 0.220408 -0.116777
H11   H     H_    0.803340 0.723236 0.197995 0.140869
C21   C     C_R   0.776440 0.733011 0.302215 -0.106759
H12   H     H_    0.837806 0.740498 0.342558 0.105419
C22   C     C_R   0.717228 0.733941 0.332236 0.128514
H13   H     H_    0.549201 0.892631 0.601618 0.116285
C23   C     C_R   0.429732 0.775590 0.546787 -0.187003
H14   H     H_    0.422037 0.798731 0.603049 0.125139
C24   C     C_R   0.366982 0.693399 0.474818 -0.098691
H15   H     H_    0.310955 0.653501 0.475875 0.127770
C25   C     C_R   0.377094 0.662725 0.402121 0.141332
C26   C     C_R   0.448873 0.716032 0.400791 -0.226034
H16   H     H_    0.456009 0.692476 0.344110 0.122930
C27   C     C_R   0.511343 0.799376 0.472349 0.085489
C28   C     C_R   0.501884 0.828388 0.545860 -0.152806
C29   C     C_R   0.249204 0.574261 0.258724 -0.248909
H17   H     H_    0.249635 0.634881 0.265151 0.157666
C30   C     C_R   0.186148 0.495040 0.184408 -0.118408
C31   C     C_R   0.182063 0.414940 0.174322 -0.140308
C32   C     C_R   0.245197 0.415867 0.240481 0.268253
C33   C     C_R   0.310006 0.497036 0.315752 -0.199456
C34   C     C_R   0.310601 0.576152 0.325566 -0.034454
C35   C     C_R   0.044930 0.272837 0.100118 -0.072385
H18   H     H_    0.043341 0.290455 0.160104 0.106995
C36   C     C_R   0.979706 0.192279 0.026803 -0.140899
H19   H     H_    0.928026 0.148223 0.030251 0.120202
C37   C     C_R   0.981531 0.168286 0.949233 -0.099918
H20   H     H_    0.931312 0.105670 0.892650 0.113913
C38   C     C_R   0.048532 0.224874 0.944860 -0.123550
H21   H     H_    0.050347 0.205453 0.885032 0.138323
C39   C     C_R   0.113246 0.306125 0.017688 -0.113557
H22   H     H_    0.164878 0.349503 0.013599 0.108478
C40   C     C_R   0.111918 0.330367 0.095871 0.185875
H23   H     H_    0.155931 0.554754 0.436161 0.125472
C41   C     C_R   0.230920 0.528579 0.529039 -0.147403
H24   H     H_    0.260355 0.593659 0.582737 0.117452
C42   C     C_R   0.251578 0.466425 0.542432 -0.106624
H25   H     H_    0.296427 0.483748 0.606891 0.127195
C43   C     C_R   0.214113 0.382181 0.472814 0.104400
C44   C     C_R   0.153679 0.360130 0.390379 -0.105691
H26   H     H_    0.122291 0.294669 0.336463 0.162692
C45   C     C_R   0.133515 0.422543 0.377133 -0.144930
H27   H     H_    0.087676 0.405578 0.313296 0.128859
C46   C     C_R   0.172011 0.506663 0.446426 -0.122644
C47   C     C_R   0.170906 0.248409 0.484721 -0.264825
H28   H     H_    0.111186 0.249290 0.477504 0.158733
C48   C     C_R   0.185351 0.182012 0.494433 -0.085720
C49   C     C_R   0.262317 0.179542 0.503386 0.000146
C50   C     C_R   0.325142 0.246394 0.505148 -0.257579
H29   H     H_    0.384850 0.245741 0.511879 0.148608
C51   C     C_R   0.311345 0.313684 0.497372 -0.048312
C52   C     C_R   0.233703 0.315147 0.486587 0.007673
C53   C     C_R   0.349916 0.123848 0.578355 -0.148395
H30   H     H_    0.394483 0.190033 0.631862 0.115992
C54   C     C_R   0.364893 0.055347 0.581069 -0.142050
H31   H     H_    0.420741 0.068788 0.636235 0.120325
C55   C     C_R   0.307975 0.969580 0.512531 -0.126509
H32   H     H_    0.319734 0.916654 0.514658 0.125141
C56   C     C_R   0.236110 0.952194 0.441052 -0.131402
H33   H     H_    0.192526 0.885855 0.387769 0.139496
C57   C     C_R   0.220731 0.020447 0.438188 -0.112180
H34   H     H_    0.165212 0.006291 0.382182 0.101004
C58   C     C_R   0.277355 0.106759 0.507077 0.141618
C59   C     C_2   0.743294 0.494341 0.820742 -0.179086
C60   C     C_2   0.819897 0.510215 0.824470 -0.375539
H35   H     H_    0.727933 0.477722 0.865792 0.167501
H36   H     H_    0.839325 0.536330 0.786224 0.150757
C61   C     C_2   0.680800 0.504299 0.758597 -0.181152
C62   C     C_2   0.675946 0.485990 0.681843 -0.362437
H37   H     H_    0.637417 0.524421 0.775032 0.167689
H38   H     H_    0.712608 0.456862 0.661806 0.156429
O9    O     O_R   0.051990 0.908360 0.460320 -0.619408
O10   O     O_R   0.949210 0.908400 0.357560 -0.622019
C63   C     C_R   0.999461 0.877834 0.381261 0.868995
O11   O     O_R   0.959770 0.908340 0.551360 -0.619038
O12   O     O_R   0.856990 0.908380 0.448600 -0.620938
C64   C     C_R   0.879825 0.877721 0.497995 0.863959
Zn3   Zn    Zn3+2 0.068630 0.999950 0.568590 0.969808
Zn4   Zn    Zn3+2 0.931370 1.000000 0.431370 0.934710
O13   O     O_R   0.050790 0.091560 0.642400 -0.610809
O14   O     O_R   0.948010 0.091600 0.539640 -0.644343
O15   O     O_R   0.143010 0.091580 0.551350 -0.602930
O16   O     O_R   0.040230 0.091620 0.448600 -0.628175
C65   C     C_R   0.001223 0.122549 0.619024 0.870408
C66   C     C_R   0.120017 0.118120 0.497695 0.875429
O17   O     O_R   0.055540 0.460120 0.912140 -0.628297
O18   O     O_R   0.952100 0.356700 0.912170 -0.607097
C67   C     C_R   0.002256 0.379822 0.882220 0.872088
O19   O     O_R   0.145980 0.551740 0.094190 -0.626020
O20   O     O_R   0.042530 0.448320 0.094220 -0.623652
C68   C     C_R   0.121983 0.497561 0.120218 0.899714
Zn5   Zn    Zn3+2 0.072290 0.569090 0.003150 0.953480
Zn6   Zn    Zn3+2 0.934150 0.430980 0.003190 0.954020
O21   O     O_R   0.054350 0.643370 0.094170 -0.610869
O22   O     O_R   0.950900 0.539950 0.094200 -0.631042
O23   O     O_R   0.963910 0.551750 0.912120 -0.622933
O24   O     O_R   0.860470 0.448330 0.912150 -0.610423
C69   C     C_R   0.001454 0.620486 0.121325 0.862531
C70   C     C_R   0.883873 0.502440 0.885395 0.921975
H39   H     H_    0.993717 0.677033 0.579276 0.122508
C71   C     C_R   0.071514 0.751912 0.540776 -0.147760
H40   H     H_    0.129559 0.788879 0.603436 0.117846
C72   C     C_R   0.073189 0.767327 0.473539 -0.090718
H41   H     H_    0.133072 0.815900 0.484688 0.129656
C73   C     C_R   0.997668 0.720629 0.392502 0.105964
C74   C     C_R   0.922070 0.654827 0.378315 -0.199244
H42   H     H_    0.864154 0.615943 0.315335 0.135450
C75   C     C_R   0.920468 0.639867 0.445787 -0.125138
H43   H     H_    0.861515 0.590257 0.434965 0.135183
C76   C     C_R   0.995011 0.688712 0.527105 -0.103096
C77   C     C_R   0.996263 0.673481 0.253784 -0.246155
H44   H     H_    0.993306 0.614547 0.255227 0.158749
C78   C     C_R   0.000741 0.687088 0.186555 -0.078450
C79   C     C_R   0.007581 0.764555 0.184937 -0.000774
C80   C     C_R   0.006009 0.825608 0.250011 -0.274248
H45   H     H_    0.009206 0.884778 0.249012 0.155756
C81   C     C_R   0.001669 0.812011 0.317101 -0.088682
C82   C     C_R   0.999120 0.736630 0.321023 -0.016032
C83   C     C_R   0.087536 0.862310 0.141329 -0.150730
H46   H     H_    0.135843 0.907850 0.208715 0.129643
C84   C     C_R   0.096920 0.881486 0.078269 -0.130190
H47   H     H_    0.151750 0.941473 0.097027 0.146031
C85   C     C_R   0.035903 0.822966 0.991027 -0.124657
H48   H     H_    0.043458 0.837465 0.942123 0.134319
C86   C     C_R   0.965156 0.745601 0.966886 -0.118955
H49   H     H_    0.918753 0.700049 0.899448 0.127630
C87   C     C_R   0.954691 0.726692 0.029698 -0.108749
H50   H     H_    0.898869 0.667012 0.010034 0.102285
C88   C     C_R   0.016660 0.784307 0.117442 0.126230
H51   H     H_    0.395072 0.314131 0.793481 0.117725
C89   C     C_R   0.308153 0.288396 0.844448 -0.134974
H52   H     H_    0.353008 0.287402 0.897590 0.132397
C90   C     C_R   0.226722 0.275085 0.834843 -0.144432
H53   H     H_    0.209175 0.263873 0.880932 0.127307
C91   C     C_R   0.167993 0.275569 0.765578 0.132293
C92   C     C_R   0.192253 0.290811 0.706869 -0.132128
H54   H     H_    0.148125 0.292390 0.653656 0.108811
C93   C     C_R   0.274234 0.305246 0.717431 -0.124117
H55   H     H_    0.293341 0.318190 0.672914 0.138199
C94   C     C_R   0.331873 0.303432 0.785763 -0.115841
C95   C     C_R   0.079751 0.324161 0.820152 -0.264734
H56   H     H_    0.140190 0.379337 0.876133 0.154207
C96   C     C_R   0.000029 0.314273 0.813353 -0.072407
C97   C     C_R   0.920889 0.243650 0.740883 0.000290
C98   C     C_R   0.923712 0.184037 0.675777 -0.265104
H57   H     H_    0.863563 0.130773 0.618746 0.150811
C99   C     C_R   0.003107 0.191784 0.684136 -0.076897
C100  C     C_R   0.082289 0.262671 0.756235 -0.003082
C101  C     C_R   0.776317 0.153698 0.721417 -0.138402
H58   H     H_    0.795552 0.105730 0.726933 0.114460
C102  C     C_R   0.692795 0.138266 0.705647 -0.136931
H59   H     H_    0.648176 0.078980 0.699364 0.118640
C103  C     C_R   0.666622 0.198945 0.697199 -0.114483
H60   H     H_    0.601754 0.186699 0.684458 0.120433
C104  C     C_R   0.723937 0.275079 0.704448 -0.116207
H61   H     H_    0.703033 0.321265 0.696623 0.145895
C105  C     C_R   0.807763 0.291052 0.720724 -0.122250
H62   H     H_    0.851178 0.349674 0.725011 0.104668
C106  C     C_R   0.834556 0.230496 0.729553 0.133212
C107  C     C_R   0.585091 0.856685 0.469384 0.108826
C108  C     C_R   0.669947 0.899999 0.538726 -0.151727
C109  C     C_R   0.739508 0.954381 0.535831 -0.135560
C110  C     C_R   0.724750 0.967061 0.464381 -0.064231
C111  C     C_R   0.640617 0.924104 0.395054 -0.143648
C112  C     C_R   0.570924 0.868858 0.397266 -0.179982
H63   H     H_    0.682300 0.890661 0.594341 0.122196
H64   H     H_    0.804875 0.985872 0.588771 0.111687
H65   H     H_    0.778376 0.009687 0.462227 0.156074
H66   H     H_    0.629402 0.933556 0.339562 0.127639
H67   H     H_    0.505913 0.836447 0.343233 0.127852
N1    N     N_R   0.243713 0.334847 0.230703 0.211387
O25   O     O_R   0.242676 0.283325 0.163359 -0.390865
O26   O     O_R   0.243694 0.312408 0.289056 -0.424828

loop_
_geom_bond_atom_site_label_1
_geom_bond_atom_site_label_2
_geom_bond_distance
_ccdc_geom_bond_type
O23   C70   1.278649 A    
C104  C105  1.399083 A    
C49   C50   1.385959 A    
O21   C69   1.277408 A    
O18   C67   1.279477 A    
C77   C82   1.382326 A    
C109  C110  1.398200 A    
C2    C15   1.431534 S    
C75   H43   1.082345 S    
C57   H34   1.082755 S    
C41   C46   1.398237 A    
C111  C112  1.396251 A    
O22   C69   1.280664 A    
C60   H36   1.086546 S    
C45   H27   1.082215 S    
C51   C52   1.407929 A    
C83   C88   1.406540 A    
C92   C93   1.398882 A    
C27   C28   1.405421 A    
C95   H56   1.085297 S    
Zn1   O7    2.016910 S    
C12   C13   1.414176 A    
C11   H6    1.085397 S    
C102  H59   1.082424 S    
C41   C42   1.398698 A    
C18   H9    1.082288 S    
C75   C76   1.397478 A    
C42   C43   1.403826 A    
C6    H3    1.082729 S    
Zn5   O23   2.013493 S    
Zn3   O13   2.009848 S    
C14   H7    1.085489 S    
O7    C4    1.275051 A    
H23   C46   1.082462 S    
Zn6   O24   2.007730 S    
H1    C10   1.082592 S    
C5    H2    1.083123 S    
C37   C38   1.397291 A    
O12   C64   1.272111 A    
C108  H63   1.081855 S    
C107  C112  1.405945 A    
C98   H57   1.080232 S    
C101  C102  1.397909 A    
C17   H8    1.082703 S    
Zn4   O16   2.021778 S    
O5    C3    1.285460 A    
C91   C92   1.404899 A    
C4    C51   1.430957 S    
O15   C66   1.276807 A    
C35   C36   1.398453 A    
C12   C64   1.434390 S    
C74   C75   1.398063 A    
C96   C97   1.407916 A    
O9    C63   1.270651 A    
C95   C96   1.397298 A    
C108  C109  1.395072 A    
C93   C94   1.397284 A    
C55   C56   1.397448 A    
C112  H67   1.083069 S    
C9    H5    1.078003 S    
C69   C78   1.432331 S    
C39   H22   1.083030 S    
C47   C52   1.383279 A    
O18   Zn6   2.017784 S    
C14   C15   1.393839 A    
C80   C81   1.393267 A    
C32   N1    1.440468 S    
C53   C58   1.404946 A    
O20   Zn6   2.013493 S    
C1    C33   1.436165 S    
C20   C21   1.397750 A    
C104  H61   1.081361 S    
C107  C108  1.403188 A    
C79   C80   1.382782 A    
C8    H4    1.083303 S    
C83   C84   1.397814 A    
C61   H37   1.086290 S    
C87   H50   1.082847 S    
C21   C22   1.404033 A    
C3    C62   1.442880 S    
C57   C58   1.405377 A    
O10   C63   1.279349 A    
C45   C46   1.396730 A    
C90   C91   1.404627 A    
C74   H42   1.083156 S    
C85   C86   1.396466 A    
C42   H25   1.083103 S    
C8    C9    1.397323 A    
C19   H10   1.082281 S    
C23   C24   1.395966 A    
C97   C106  1.480515 S    
C39   C40   1.404121 A    
C41   H24   1.082300 S    
C26   H16   1.084262 S    
C27   C107  1.475115 S    
C30   C68   1.419524 S    
C87   C88   1.404057 A    
C17   C22   1.406754 A    
C47   H28   1.085265 S    
O24   C70   1.285302 A    
C110  C111  1.395229 A    
C44   C45   1.397940 A    
Zn3   O15   2.016037 S    
C48   C49   1.409851 A    
C38   H21   1.081420 S    
O3    Zn1   2.021092 S    
C31   C32   1.394192 A    
H39   C76   1.082297 S    
C101  H58   1.083510 S    
C26   C27   1.403367 A    
C103  C104  1.397693 A    
C97   C98   1.382937 A    
C13   C14   1.385781 A    
C95   C100  1.384255 A    
C91   C100  1.480634 S    
O10   Zn4   2.009725 S    
C49   C58   1.482650 S    
O17   Zn5   2.013631 S    
C11   C16   1.383689 A    
C92   H54   1.083305 S    
C101  C106  1.405538 A    
Zn2   O8    2.021097 S    
O12   Zn4   2.015784 S    
C55   H32   1.082567 S    
C23   C28   1.396713 A    
C35   H18   1.082903 S    
C53   C54   1.398739 A    
C25   C26   1.399624 A    
C35   C40   1.404154 A    
C77   C78   1.396730 A    
C59   H35   1.086313 S    
C71   H40   1.082267 S    
C54   C55   1.397965 A    
C24   C25   1.402187 A    
C36   C37   1.397628 A    
C80   H45   1.085596 S    
C93   H55   1.081590 S    
Zn6   O22   2.013630 S    
C7    C16   1.482400 S    
O3    C2    1.275190 A    
C20   H11   1.082458 S    
C50   C51   1.395670 A    
H13   C28   1.083159 S    
N1    O25   1.301211 A    
N1    O26   1.300270 A    
C110  H65   1.080327 S    
C29   C30   1.386618 A    
C79   C88   1.483173 S    
C48   C66   1.435552 S    
C83   H46   1.083467 S    
C72   C73   1.404675 A    
C21   H12   1.077201 S    
C61   C62   1.337258 D    
O16   C66   1.275932 A    
O19   Zn5   2.007815 S    
C90   H53   1.083485 S    
O20   C68   1.272833 A    
C5    C10   1.396540 A    
Zn1   O5    2.004932 S    
C23   H14   1.082419 S    
C86   H49   1.077916 S    
C102  C103  1.397466 A    
C7    C8    1.403234 A    
O1    Zn1   2.016161 S    
C56   C57   1.398620 A    
Zn2   O6    2.016161 S    
O2    Zn2   2.004929 S    
C47   C48   1.397429 A    
C105  H62   1.083028 S    
Zn5   O21   2.017656 S    
O6    C3    1.276139 A    
O19   C68   1.278303 A    
O4    Zn2   2.016905 S    
O11   C64   1.280320 A    
O14   C65   1.276905 A    
C71   C72   1.398227 A    
O13   C65   1.274363 A    
C43   C52   1.480140 S    
C85   H48   1.082366 S    
C111  H66   1.082212 S    
C11   C12   1.395228 A    
O11   Zn3   2.021692 S    
C98   C99   1.393018 A    
O9    Zn3   2.020969 S    
C89   C94   1.397854 A    
C73   C74   1.404383 A    
C103  H60   1.082522 S    
C65   C99   1.432587 S    
C86   C87   1.397558 A    
O2    C1    1.278705 A    
C99   C100  1.407402 A    
C13   C22   1.488184 S    
C15   C16   1.408927 A    
C19   C20   1.396629 A    
C43   C44   1.404363 A    
C31   C40   1.484258 S    
C30   C31   1.405318 A    
O4    C2    1.279506 A    
C62   H38   1.086773 S    
C89   C90   1.398407 A    
C67   C96   1.431514 S    
C24   H15   1.080326 S    
C29   C34   1.374985 A    
C36   H19   1.082289 S    
C18   C19   1.397189 A    
C53   H30   1.083310 S    
C17   C18   1.398055 A    
C60   C70   1.442002 S    
C37   H20   1.082640 S    
C109  H64   1.081745 S    
C6    C7    1.407672 A    
C9    C10   1.397289 A    
C54   H31   1.082429 S    
C84   H47   1.082317 S    
Zn4   O14   2.021051 S    
C105  C106  1.403856 A    
C29   H17   1.086224 S    
C44   H26   1.082956 S    
O8    C4    1.279695 A    
C32   C33   1.415248 A    
C81   C82   1.409748 A    
C50   H29   1.085401 S    
C5    C6    1.397914 A    
C56   H33   1.082150 S    
C89   H52   1.082468 S    
C59   C60   1.337794 D    
O17   C67   1.278009 A    
C25   C34   1.476336 S    
C72   H41   1.083167 S    
C33   C34   1.411340 A    
C59   C61   1.464816 S    
C78   C79   1.411170 A    
C63   C81   1.428595 S    
O1    C1    1.277064 A    
C73   C82   1.481292 S    
C38   C39   1.399433 A    
C71   C76   1.397766 A    
H51   C94   1.082383 S    
C84   C85   1.396554 A    
C77   H44   1.085547 S    
