data_mof_unit_19927.cif
_audit_creation_date              2012-12-10T18:45:04-0500
_audit_creation_method            fapswitch 2.2
_symmetry_space_group_name_H-M    P1
_symmetry_Int_Tables_number       1
_space_group_crystal_system       triclinic
_cell_length_a                    10.771814
_cell_length_b                    9.820673
_cell_length_c                    10.609137
_cell_angle_alpha                 86.334006
_cell_angle_beta                  89.435259
_cell_angle_gamma                 88.364705
_cell_volume                      1119.51411852

loop_
_atom_site_label
_atom_site_type_symbol
_atom_type_description
_atom_site_fract_x
_atom_site_fract_y
_atom_site_fract_z
_atom_type_partial_charge
C1    C     C_R   0.259252 0.502402 0.505539 0.890357
C2    C     C_R   0.739911 0.498741 0.492912 0.863536
C3    C     C_R   0.933049 0.618210 0.445071 0.192316
C4    C     C_R   0.055392 0.630707 0.481128 0.198941
C5    C     C_R   0.580612 0.064779 0.574024 -0.159193
C6    C     C_R   0.419221 0.080480 0.426453 -0.097029
C7    C     C_R   0.580478 0.920414 0.574923 0.170433
C8    C     C_R   0.418532 0.936210 0.426156 0.114013
C9    C     C_R   0.517816 0.504446 0.260351 0.903727
C10   C     C_R   0.498123 0.494939 0.741737 0.921621
C11   C     C_R   0.499735 0.764147 0.076019 0.171444
C12   C     C_R   0.340745 0.673150 0.893618 0.176209
C13   C     C_R   0.411455 0.857636 0.017466 0.169322
C14   C     C_R   0.326151 0.809052 0.930371 0.205160
C15   C     C_R   0.441671 0.590626 0.941246 -0.049543
C16   C     C_R   0.496495 0.624447 0.051010 -0.041798
C17   C     C_R   0.550491 0.516150 0.126875 -0.167314
C18   C     C_R   0.498543 0.482836 0.878267 -0.158184
C19   C     C_R   0.604834 0.402457 0.070978 0.185773
C20   C     C_R   0.581729 0.386987 0.942522 0.175830
C21   C     C_R   0.065693 0.384532 0.536199 -0.238283
C22   C     C_R   0.938797 0.380648 0.528117 -0.247603
C23   C     C_R   0.872405 0.497420 0.483523 -0.076122
C24   C     C_R   0.125461 0.508395 0.511845 -0.092482
H1    H     H_    0.116677 0.290988 0.564450 0.174465
H2    H     H_    0.892929 0.286606 0.556386 0.168074
H3    H     H_    0.645094 0.114108 0.632615 0.134779
H4    H     H_    0.355021 0.142842 0.368210 0.146026
N1    N     N_R   0.500000 0.857200 0.500000 -0.085451
N2    N     N_R   0.500000 0.142810 0.500000 -0.089883
O1    O     O_R   0.316770 0.614620 0.499990 -0.604661
O2    O     O_R   0.683230 0.614620 0.500010 -0.593302
O3    O     O_R   0.316800 0.385290 0.500000 -0.623112
O4    O     O_R   0.683200 0.385290 0.500000 -0.640036
O5    O     O_R   0.500010 0.614690 0.316770 -0.623568
O6    O     O_R   0.499990 0.614690 0.683230 -0.586441
O7    O     O_R   0.500040 0.385360 0.316770 -0.604689
O8    O     O_R   0.499960 0.385360 0.683230 -0.621349
Zn1   Zn    Zn3+2 0.500000 0.653120 0.500000 0.954923
Zn2   Zn    Zn3+2 0.500000 0.346880 0.500000 0.933635
C25   C     C_3   0.693765 0.306324 0.145621 -0.873909
H5    H     H_    0.785253 0.302357 0.096733 0.230821
H6    H     H_    0.713735 0.341093 0.240517 0.240747
H7    H     H_    0.655094 0.202583 0.156718 0.244643
C26   C     C_3   0.644225 0.271350 0.874509 -0.885949
H8    H     H_    0.704199 0.201517 0.934577 0.234012
H9    H     H_    0.572538 0.206235 0.837148 0.246848
H10   H     H_    0.703376 0.313761 0.796007 0.239945
C27   C     C_3   0.613274 0.815566 0.138377 -0.884907
H11   H     H_    0.650826 0.903907 0.081084 0.234001
H12   H     H_    0.592170 0.846182 0.235133 0.251950
H13   H     H_    0.688654 0.736629 0.140832 0.232611
C28   C     C_3   0.242208 0.612011 0.816023 -0.880268
H14   H     H_    0.150064 0.623549 0.862414 0.237961
H15   H     H_    0.239454 0.664830 0.721537 0.254495
H16   H     H_    0.258379 0.501111 0.806174 0.217321
C29   C     C_3   0.406130 0.006157 0.049053 -0.935812
H17   H     H_    0.472776 0.030437 0.122583 0.250506
H18   H     H_    0.425543 0.072321 0.962878 0.254431
H19   H     H_    0.312705 0.032948 0.086552 0.235864
C30   C     C_3   0.224274 0.900589 0.870130 -0.909533
H20   H     H_    0.132022 0.859951 0.897123 0.238453
H21   H     H_    0.224684 0.007407 0.897178 0.246644
H22   H     H_    0.234661 0.904196 0.765743 0.243071
C31   C     C_3   0.870630 0.732108 0.363363 -0.889520
H23   H     H_    0.839710 0.817363 0.420972 0.251341
H24   H     H_    0.934843 0.770571 0.287610 0.230807
H25   H     H_    0.790755 0.693678 0.313786 0.239665
C32   C     C_3   0.099057 0.774921 0.492556 -0.867122
H26   H     H_    0.183987 0.785061 0.547254 0.263724
H27   H     H_    0.108343 0.826700 0.397524 0.250548
H28   H     H_    0.027713 0.833025 0.545137 0.219017
N3    N     N_3   0.663431 0.840283 0.655737 -0.387038
H29   H     H_    0.754017 0.869860 0.634041 0.153039
H30   H     H_    0.644199 0.863792 0.748811 0.170755
N4    N     N_3   0.330373 0.872524 0.351052 -0.429391
H31   H     H_    0.272902 0.946277 0.303878 0.145383
H32   H     H_    0.378416 0.823204 0.281393 0.234303

loop_
_geom_bond_atom_site_label_1
_geom_bond_atom_site_label_2
_ccdc_geom_bond_type
C15   C18   A    
C7    N1    A    
C30   H22   S    
C25   H6    S    
N3    H29   S    
C3    C23   A    
C19   C20   A    
C8    N4    S    
C1    O3    A    
C7    N3    S    
C28   H14   S    
O4    Zn2   S    
C8    N1    A    
N4    H32   S    
O7    Zn2   S    
C4    C24   A    
C29   H18   S    
C13   C29   S    
C15   C16   A    
C1    O1    A    
C2    O2    A    
C25   H5    S    
O2    Zn1   S    
C32   H27   S    
C5    H3    S    
C6    H4    S    
C16   C17   A    
C31   H24   S    
C12   C28   S    
C2    O4    A    
C26   H9    S    
C13   C14   A    
N3    H30   S    
C3    C31   S    
C4    C32   S    
C28   H15   S    
O3    Zn2   S    
N4    H31   S    
C5    C7    A    
C29   H19   S    
C6    C8    A    
C26   H10   S    
C27   H12   S    
C26   H8    S    
C14   C30   S    
O6    Zn1   S    
C32   H28   S    
O5    Zn1   S    
C11   C27   S    
C11   C16   A    
C12   C15   A    
C31   H25   S    
N1    Zn1   S    
C9    O7    A    
N2    Zn2   S    
C9    C17   S    
C6    N2    A    
C12   C14   A    
C27   H11   S    
C25   H7    S    
C3    C4    A    
C5    N2    A    
C28   H16   S    
C21   H1    S    
C30   H21   S    
C20   C26   S    
C27   H13   S    
C10   O8    A    
C30   H20   S    
O8    Zn2   S    
C11   C13   A    
C29   H17   S    
C10   C18   S    
C17   C19   A    
O1    Zn1   S    
C18   C20   A    
C32   H26   S    
C1    C24   S    
C31   H23   S    
C22   H2    S    
C21   C24   A    
C2    C23   S    
C9    O5    A    
C22   C23   A    
C10   O6    A    
C21   C22   A    
C19   C25   S    
