data_mof_unit_55566.cif
_audit_creation_date              2012-12-11T15:28:35-0500
_audit_creation_method            fapswitch 2.2
_symmetry_space_group_name_H-M    P1
_symmetry_Int_Tables_number       1
_space_group_crystal_system       triclinic
_cell_length_a                    6.94466
_cell_length_b                    19.619422
_cell_length_c                    23.388529
_cell_angle_alpha                 96.179259
_cell_angle_beta                  91.097286
_cell_angle_gamma                 88.718593
_cell_volume                      3166.93569764

loop_
_atom_site_label
_atom_site_type_symbol
_atom_type_description
_atom_site_fract_x
_atom_site_fract_y
_atom_site_fract_z
_atom_type_partial_charge
O1    O     O_R   0.617180 0.809390 0.808140 -0.521031
O2    O     O_R   0.382820 0.190610 0.191860 -0.525174
O3    O     O_R   0.293300 0.672410 0.795490 -0.535314
O4    O     O_R   0.706700 0.327590 0.204510 -0.535430
O5    O     O_R   0.117220 0.690610 0.691850 -0.524082
O6    O     O_R   0.882780 0.309390 0.308150 -0.519536
C1    C     C_R   0.464792 0.647899 0.805381 0.698599
C2    C     C_R   0.535198 0.352009 0.194512 0.698213
O7    O     O_R   0.287840 0.807750 0.814460 -0.527162
O8    O     O_R   0.712160 0.192250 0.185540 -0.525084
O9    O     O_R   0.111720 0.826910 0.710960 -0.539965
O10   O     O_R   0.888280 0.173090 0.289040 -0.531532
C3    C     C_R   0.456421 0.830610 0.833321 0.713016
C4    C     C_R   0.543611 0.169015 0.166939 0.707058
O11   O     O_R   0.622680 0.673080 0.789040 -0.533074
O12   O     O_R   0.377320 0.326920 0.210960 -0.532508
O13   O     O_3   0.448820 0.756130 0.716020 -0.361001
O14   O     O_3   0.551180 0.243870 0.283980 -0.352605
V1    V     V_3+5 0.176220 0.748860 0.756300 1.401561
V2    V     V_3+5 0.823780 0.251140 0.243700 1.418466
O15   O     O_R   0.781670 0.827580 0.704500 -0.533944
O16   O     O_R   0.218330 0.172420 0.295500 -0.538743
C5    C     C_R   0.948673 0.851714 0.693957 0.716010
C6    C     C_R   0.052141 0.147583 0.305190 0.709903
O17   O     O_R   0.787130 0.692240 0.685530 -0.523571
O18   O     O_R   0.212870 0.307760 0.314470 -0.525435
C7    C     C_R   0.955987 0.668495 0.667275 0.735722
C8    C     C_R   0.043873 0.330713 0.333275 0.717168
V3    V     V_3+5 0.675510 0.751130 0.743690 1.413258
V4    V     V_3+5 0.324490 0.248870 0.256310 1.412309
O19   O     O_3   0.952780 0.743870 0.783980 -0.358642
O20   O     O_3   0.047220 0.256130 0.216020 -0.357763
C9    C     C_1   0.966049 0.615214 0.616058 -0.208731
C10   C     C_1   0.033264 0.382206 0.385690 -0.235392
C11   C     C_1   0.977298 0.571254 0.573526 -0.016715
C12   C     C_1   0.021470 0.425166 0.428876 -0.013713
C13   C     C_1   0.992556 0.519668 0.522791 -0.016294
C14   C     C_1   0.005910 0.476351 0.479885 -0.008621
C15   C     C_R   0.954488 0.914634 0.663861 -0.106646
C16   C     C_R   0.056280 0.084620 0.335287 -0.103001
C17   C     C_R   0.937493 0.038665 0.667919 -0.196921
C18   C     C_R   0.188711 0.970154 0.340219 -0.203037
C19   C     C_R   0.945611 0.979496 0.696272 0.058172
C20   C     C_R   0.151423 0.025528 0.308809 0.068316
C21   C     C_R   0.968393 0.910520 0.602976 -0.084021
C22   C     C_R   0.983133 0.084418 0.391715 -0.101962
C23   C     C_R   0.986016 0.971888 0.574932 0.035640
C24   C     C_R   0.041800 0.030574 0.426142 0.019684
C25   C     C_R   0.952522 0.035963 0.607875 0.053349
C26   C     C_R   0.143711 0.972723 0.398717 0.054516
C27   C     C_R   0.037071 0.972225 0.515576 0.045642
C28   C     C_R   0.008456 0.032440 0.487005 0.036418
C29   C     C_R   0.972201 0.094300 0.521552 -0.213555
C30   C     C_R   0.144524 0.917977 0.487002 -0.207408
C31   C     C_R   0.944052 0.096867 0.580613 -0.013040
C32   C     C_R   0.200875 0.918004 0.430238 -0.016025
H1    H     H_    0.925246 0.087599 0.693961 0.134948
H2    H     H_    0.256627 0.924695 0.318376 0.133839
H3    H     H_    0.981011 0.142724 0.504320 0.141793
H4    H     H_    0.206337 0.878413 0.510410 0.140227
C33   C     C_R   0.484438 0.585785 0.835498 -0.044506
C34   C     C_R   0.515581 0.414047 0.164305 -0.044898
C35   C     C_R   0.583737 0.466622 0.832911 -0.164059
C36   C     C_R   0.416578 0.533213 0.166829 -0.163920
C37   C     C_R   0.548638 0.524781 0.804871 -0.170115
C38   C     C_R   0.451675 0.475095 0.194906 -0.168956
C39   C     C_R   0.456317 0.588403 0.895085 -0.214827
C40   C     C_R   0.543494 0.411346 0.104691 -0.215065
C41   C     C_R   0.495681 0.529997 0.925187 0.086355
C42   C     C_R   0.504223 0.469739 0.074557 0.086636
C43   C     C_R   0.559537 0.468760 0.892508 0.141517
C44   C     C_R   0.440548 0.531009 0.107226 0.140702
C45   C     C_R   0.477186 0.530325 0.986336 0.057392
C46   C     C_R   0.522678 0.469394 0.013400 0.057411
C47   C     C_R   0.584313 0.410154 0.978383 -0.187173
C48   C     C_R   0.415604 0.589574 0.021348 -0.186985
C49   C     C_R   0.601754 0.410025 0.919370 -0.201906
C50   C     C_R   0.398302 0.589729 0.080357 -0.201699
H5    H     H_    0.650504 0.363242 0.894419 0.123402
H6    H     H_    0.349660 0.636530 0.105302 0.123399
H7    H     H_    0.590041 0.362609 0.083230 0.095540
H8    H     H_    0.409544 0.637107 0.916549 0.095554
H9    H     H_    0.427487 0.477573 0.240727 0.104707
H10   H     H_    0.573035 0.522364 0.759065 0.104217
H11   H     H_    0.633347 0.419965 0.807976 0.108968
H12   H     H_    0.367172 0.579904 0.191745 0.112033
H13   H     H_    0.621296 0.362564 0.995247 0.123865
H14   H     H_    0.378632 0.637170 0.004498 0.123848
C51   C     C_1   0.466583 0.882099 0.885757 -0.214573
C52   C     C_1   0.533163 0.116603 0.115134 -0.223157
C53   C     C_1   0.477451 0.925210 0.928878 -0.012629
C54   C     C_1   0.521577 0.072797 0.072516 -0.010379
C55   C     C_1   0.492627 0.976917 0.979552 -0.007866
C56   C     C_1   0.506028 0.020742 0.022108 -0.004876
C57   C     C_R   0.901511 0.164903 0.612241 0.100453
C58   C     C_R   0.042529 0.215485 0.618177 -0.144736
C59   C     C_R   0.000383 0.280195 0.646882 -0.115012
C60   C     C_R   0.817197 0.294881 0.669411 -0.090726
C61   C     C_R   0.675722 0.244898 0.663208 -0.127633
C62   C     C_R   0.717374 0.180090 0.634634 -0.132784
H15   H     H_    0.184720 0.204697 0.600727 0.108016
H16   H     H_    0.109622 0.318993 0.651571 0.107980
H17   H     H_    0.784745 0.345028 0.691555 0.100191
H18   H     H_    0.533658 0.256422 0.680406 0.107003
H19   H     H_    0.606401 0.141856 0.629736 0.111137
C63   C     C_R   0.329473 0.861175 0.406134 0.084455
C64   C     C_R   0.520856 0.874143 0.392832 -0.138313
C65   C     C_R   0.641387 0.820710 0.369425 -0.110909
C66   C     C_R   0.572063 0.754041 0.359499 -0.110025
C67   C     C_R   0.382523 0.740654 0.373373 -0.139602
C68   C     C_R   0.261559 0.793968 0.396878 -0.143787
H20   H     H_    0.576186 0.925540 0.400485 0.110804
H21   H     H_    0.788598 0.830962 0.359183 0.115148
H22   H     H_    0.665654 0.712676 0.341519 0.105567
H23   H     H_    0.329495 0.688939 0.366041 0.111508
H24   H     H_    0.114940 0.783088 0.407396 0.124412
C69   C     C_R   0.822661 0.133302 0.409325 0.084425
C70   C     C_R   0.638523 0.108164 0.417775 -0.093877
C71   C     C_R   0.486251 0.153393 0.434272 -0.119545
C72   C     C_R   0.516107 0.223970 0.442292 -0.093115
C73   C     C_R   0.698812 0.249460 0.434267 -0.082446
C74   C     C_R   0.851797 0.204444 0.417909 -0.120744
H25   H     H_    0.612991 0.053610 0.411493 0.104905
H26   H     H_    0.345165 0.133773 0.440956 0.113569
H27   H     H_    0.397811 0.258869 0.454948 0.097703
H28   H     H_    0.722002 0.304111 0.440944 0.109464
H29   H     H_    0.993429 0.224737 0.412833 0.069751
C75   C     C_R   0.930323 0.843636 0.569179 0.079094
C76   C     C_R   0.754688 0.834007 0.538996 -0.101935
C77   C     C_R   0.718472 0.771701 0.506201 -0.121201
C78   C     C_R   0.859983 0.719756 0.501403 -0.102334
C79   C     C_R   0.035463 0.729172 0.531171 -0.128534
C80   C     C_R   0.068060 0.789859 0.566685 -0.168589
H30   H     H_    0.645664 0.874541 0.541207 0.107915
H31   H     H_    0.581176 0.763944 0.484204 0.134835
H32   H     H_    0.833348 0.672111 0.474873 0.113051
H33   H     H_    0.145687 0.689161 0.527189 0.121298
H34   H     H_    0.203998 0.796383 0.589908 0.116603
C81   C     C_3   0.206793 0.018675 0.245825 -0.370858
C82   C     C_3   0.027626 0.010282 0.206392 -0.315163
C83   C     C_3   0.080312 0.009058 0.143261 -0.742820
H35   H     H_    0.142852 0.058744 0.135417 0.233483
H36   H     H_    0.185828 0.966861 0.131037 0.228439
H37   H     H_    0.948802 0.000853 0.115838 0.219921
H38   H     H_    0.956464 0.961539 0.212812 0.195508
H39   H     H_    0.922598 0.053073 0.216962 0.192983
H40   H     H_    0.290391 0.063486 0.236318 0.184850
H41   H     H_    0.303655 0.973237 0.235637 0.167020
C84   C     C_3   0.941509 0.988293 0.761439 -0.362903
C85   C     C_3   0.737861 0.007071 0.782835 -0.305702
C86   C     C_3   0.738637 0.025493 0.847853 -0.753602
H42   H     H_    0.796889 0.981857 0.869885 0.236153
H43   H     H_    0.828298 0.071143 0.859988 0.225901
H44   H     H_    0.589290 0.037687 0.862331 0.220672
H45   H     H_    0.678858 0.051717 0.762174 0.194423
H46   H     H_    0.641820 0.962909 0.771361 0.194600
H47   H     H_    0.993535 0.941438 0.780118 0.164751
H48   H     H_    0.042553 0.029467 0.777658 0.173798

loop_
_geom_bond_atom_site_label_1
_geom_bond_atom_site_label_2
_ccdc_geom_bond_type
C35   C37   A    
C55   C56   T    
O6    C8    A    
C69   C70   A    
O13   V3    S    
C45   C46   A    
C29   C31   A    
C57   C58   A    
O4    C2    A    
V1    O19   S    
C75   C76   A    
C18   H2    S    
C59   C60   A    
C29   H3    S    
C23   C25   A    
C30   H4    S    
C71   H26   S    
C7    C9    S    
C16   C22   A    
O9    V1    S    
C62   H19   S    
C40   H7    S    
C11   C13   S    
C48   C50   A    
O3    C1    A    
C83   H36   S    
C9    C11   T    
C50   H6    S    
C86   H44   S    
C63   C64   A    
C21   C75   S    
O12   V4    S    
C60   H17   S    
C65   C66   A    
C64   H20   S    
C21   C23   A    
C17   C25   A    
C74   H29   S    
C41   C43   A    
O7    C3    A    
C70   C71   A    
C4    C52   S    
C44   C50   A    
O13   V1    S    
C38   H9    S    
O5    C7    A    
O7    V1    S    
C1    C33   S    
C77   H31   S    
O8    V2    S    
C79   C80   A    
C42   C46   A    
C64   C65   A    
O3    V1    S    
C68   H24   S    
O14   V4    S    
C51   C53   T    
C84   H48   S    
C48   H14   S    
C10   C12   T    
C59   H16   S    
C19   C84   S    
C15   C21   A    
C24   C26   A    
C61   H18   S    
C8    C10   S    
C80   H34   S    
C2    O12   A    
C85   H46   S    
C58   H15   S    
C35   H11   S    
C86   H43   S    
C17   C19   A    
C18   C20   A    
C36   H12   S    
O11   V3    S    
C22   C24   A    
C63   C68   A    
C49   H5    S    
O17   V3    S    
C30   C32   A    
C81   H41   S    
C46   C47   A    
C34   C38   A    
C27   C28   A    
C82   C83   S    
C31   C57   S    
C78   H32   S    
O8    C4    A    
C83   H37   S    
C82   H39   S    
C72   H27   S    
C37   H10   S    
C15   C19   A    
C1    O11   A    
C79   H33   S    
C25   C31   A    
O15   V3    S    
C26   C32   A    
C67   C68   A    
C22   C69   S    
C39   C41   A    
C36   C38   A    
C65   H21   S    
C69   C74   A    
C75   C80   A    
C13   C14   T    
C53   C55   S    
C33   C39   A    
C52   C54   T    
C61   C62   A    
C16   C20   A    
C86   H42   S    
C81   H40   S    
C58   C59   A    
O10   V2    S    
O1    V3    S    
C28   C29   A    
C71   C72   A    
C41   C45   A    
C47   C49   A    
C32   C63   S    
C73   C74   A    
C66   H22   S    
C18   C26   A    
C47   H13   S    
C35   C43   A    
O18   V4    S    
C20   C81   S    
C85   H45   S    
O15   C5    A    
C45   C48   A    
O16   C6    A    
O1    C3    A    
C78   C79   A    
C43   C49   A    
C72   C73   A    
C76   C77   A    
V2    O20   S    
O16   V4    S    
C3    C51   S    
C57   C62   A    
C82   H38   S    
C23   C27   A    
C81   C82   S    
O5    V1    S    
O17   C7    A    
O6    V2    S    
O10   C6    A    
O18   C8    A    
C34   C40   A    
O2    V4    S    
C27   C30   A    
C12   C14   S    
C77   C78   A    
C17   H1    S    
C73   H28   S    
V3    O19   S    
C84   C85   S    
V4    O20   S    
C54   C56   S    
C5    C15   S    
O9    C5    A    
C6    C16   S    
O14   V2    S    
C70   H25   S    
C36   C44   A    
O2    C4    A    
C76   H30   S    
O4    V2    S    
C33   C37   A    
C24   C28   A    
C39   H8    S    
C40   C42   A    
C60   C61   A    
C66   C67   A    
C85   C86   S    
C42   C44   A    
C83   H35   S    
C84   H47   S    
C67   H23   S    
C2    C34   S    
