data_mof_unit_16401.cif
_audit_creation_date              2012-12-10T18:49:59-0500
_audit_creation_method            fapswitch 2.2
_symmetry_space_group_name_H-M    P1
_symmetry_Int_Tables_number       1
_space_group_crystal_system       triclinic
_cell_length_a                    10.761395
_cell_length_b                    9.975539
_cell_length_c                    11.061205
_cell_angle_alpha                 89.995257
_cell_angle_beta                  95.899113
_cell_angle_gamma                 89.980503
_cell_volume                      1181.14005931

loop_
_atom_site_label
_atom_site_type_symbol
_atom_type_description
_atom_site_fract_x
_atom_site_fract_y
_atom_site_fract_z
_atom_type_partial_charge
C1    C     C_R   0.261605 0.500016 0.511616 0.994588
C2    C     C_3   0.639201 0.499544 0.946431 0.090085
C3    C     C_R   0.063658 0.377558 0.519262 0.306609
C4    C     C_R   0.063517 0.622458 0.518859 0.306205
C5    C     C_R   0.936925 0.377354 0.484525 0.304797
C6    C     C_R   0.936803 0.622509 0.484062 0.305050
C7    C     C_R   0.871462 0.499924 0.478510 -0.292994
C8    C     C_R   0.128969 0.500029 0.523964 -0.302767
C9    C     C_R   0.586416 0.071463 0.574640 0.270034
C10   C     C_R   0.586471 0.928449 0.574593 0.270128
C11   C     C_R   0.412073 0.928587 0.427327 0.229557
C12   C     C_R   0.412077 0.071489 0.427323 0.229710
C13   C     C_R   0.493920 0.500013 0.257303 0.982760
C14   C     C_R   0.738539 0.499976 0.489152 1.014387
C15   C     C_R   0.499867 0.500005 0.742127 0.996897
C16   C     C_3   0.421922 0.637257 0.061895 0.132838
C17   C     C_3   0.421287 0.363245 0.061902 0.133522
C18   C     C_3   0.422015 0.632713 0.916969 0.615687
C19   C     C_3   0.421012 0.368091 0.916942 0.614985
C20   C     C_3   0.634443 0.499554 0.090710 0.592704
C21   C     C_3   0.491696 0.500029 0.119968 -0.225219
C22   C     C_3   0.496642 0.500058 0.878426 -0.343501
N1    N     N_R   0.499970 0.857200 0.499970 -0.105812
N2    N     N_R   0.499970 0.142800 0.499970 -0.105731
O1    O     O_R   0.316750 0.614620 0.499990 -0.595692
O2    O     O_R   0.316750 0.385380 0.499990 -0.595856
O3    O     O_R   0.499970 0.614670 0.314790 -0.627092
O4    O     O_R   0.499970 0.385330 0.314790 -0.626951
O5    O     O_R   0.683220 0.614710 0.500010 -0.604644
O6    O     O_R   0.683220 0.385290 0.500010 -0.604401
O7    O     O_R   0.500010 0.614660 0.685200 -0.574159
O8    O     O_R   0.500010 0.385340 0.685200 -0.574513
Zn1   Zn    Zn3+2 0.499980 0.653120 0.500000 1.024952
Zn2   Zn    Zn3+2 0.499980 0.346880 0.500000 1.024926
C23   C     C_3   0.484321 0.775191 0.108338 -0.630046
H1    H     H_    0.574422 0.796728 0.074347 0.271180
H2    H     H_    0.425382 0.861381 0.073937 0.237003
H3    H     H_    0.497929 0.795250 0.205813 0.264753
C24   C     C_3   0.483446 0.225009 0.107974 -0.631326
H4    H     H_    0.573201 0.203063 0.073448 0.270747
H5    H     H_    0.497607 0.204958 0.205440 0.265144
H6    H     H_    0.424109 0.139053 0.073865 0.237058
C25   C     C_3   0.313098 0.857969 0.345506 -0.772733
H7    H     H_    0.328534 0.751189 0.343114 0.274545
H8    H     H_    0.219172 0.878759 0.373234 0.296284
H9    H     H_    0.314126 0.892520 0.251050 0.187341
C26   C     C_3   0.313032 0.142200 0.345594 -0.773065
H10   H     H_    0.328605 0.248930 0.343059 0.274537
H11   H     H_    0.313816 0.107563 0.251142 0.187453
H12   H     H_    0.219162 0.121668 0.373557 0.296260
C27   C     C_3   0.285775 0.651528 0.100573 -0.737431
H13   H     H_    0.250928 0.756152 0.094091 0.259168
H14   H     H_    0.211998 0.600670 0.043036 0.268481
H15   H     H_    0.278620 0.615900 0.193920 0.195512
C28   C     C_3   0.285264 0.349342 0.101100 -0.736791
H16   H     H_    0.250225 0.244816 0.094776 0.258964
H17   H     H_    0.278535 0.384989 0.194509 0.194989
H18   H     H_    0.211232 0.400322 0.043949 0.268103
Cl1   Cl    Cl    0.268492 0.647052 0.834842 -0.454365
Cl2   Cl    Cl    0.267158 0.355750 0.835272 -0.456724
Cl3   Cl    Cl    0.473640 0.791257 0.855694 -0.545876
Cl4   Cl    Cl    0.471023 0.209056 0.855197 -0.542994
Cl5   Cl    Cl    0.726117 0.631359 0.169052 -0.544815
Cl6   Cl    Cl    0.725595 0.367213 0.168986 -0.544433
C29   C     C_3   0.718520 0.619771 0.906528 -0.698680
H19   H     H_    0.688823 0.718465 0.935945 0.273137
H20   H     H_    0.817422 0.611804 0.946479 0.274231
H21   H     H_    0.722422 0.619189 0.807371 0.206763
C30   C     C_3   0.717771 0.378779 0.906386 -0.699994
H22   H     H_    0.722266 0.379966 0.807324 0.206930
H23   H     H_    0.816575 0.385577 0.946825 0.274750
H24   H     H_    0.686999 0.280237 0.935004 0.272469
Cl7   Cl    Cl    0.132842 0.224414 0.572689 -0.389190
Cl8   Cl    Cl    0.132455 0.775784 0.571901 -0.389918
Cl9   Cl    Cl    0.867908 0.223016 0.433943 -0.437532
Cl10  Cl    Cl    0.867654 0.776602 0.432797 -0.437548
C31   C     C_3   0.682613 0.142255 0.659943 -0.705368
H25   H     H_    0.669720 0.249381 0.657734 0.270045
H26   H     H_    0.675808 0.111414 0.755101 0.243449
H27   H     H_    0.778072 0.119166 0.637085 0.264476
C32   C     C_3   0.683044 0.857567 0.659543 -0.703927
H28   H     H_    0.669791 0.750472 0.657936 0.269947
H29   H     H_    0.778296 0.880151 0.635878 0.264611
H30   H     H_    0.677219 0.888865 0.754729 0.243331

loop_
_geom_bond_atom_site_label_1
_geom_bond_atom_site_label_2
_ccdc_geom_bond_type
C28   H16   S    
C20   Cl6   S    
C16   C21   S    
C1    C8    S    
C23   H1    S    
C16   C27   S    
C4    C8    A    
C2    C29   S    
C32   H28   S    
C15   O8    A    
C26   H11   S    
C31   H25   S    
O3    Zn1   S    
C23   H2    S    
C16   C23   S    
C19   Cl4   S    
O5    Zn1   S    
C7    C14   S    
C17   C24   S    
C30   H23   S    
O2    Zn2   S    
C15   C22   S    
N1    Zn1   S    
C2    C22   S    
O7    Zn1   S    
C13   O4    A    
C11   C25   S    
C24   H6    S    
C2    C30   S    
C9    C10   A    
C17   C28   S    
C4    Cl8   S    
O4    Zn2   S    
C1    O1    A    
C14   O6    A    
C12   C26   S    
C32   H29   S    
C26   H12   S    
C31   H26   S    
O6    Zn2   S    
C2    C20   S    
C27   H13   S    
C19   C22   S    
C4    C6    A    
C3    C8    A    
C24   H4    S    
C5    C7    A    
C29   H20   S    
N2    Zn2   S    
C27   H14   S    
O8    Zn2   S    
C5    Cl9   S    
C30   H24   S    
C25   H7    S    
C26   H10   S    
C29   H21   S    
C23   H3    S    
C13   C21   S    
C18   Cl3   S    
C9    C31   S    
C6    Cl10  S    
C25   H8    S    
C28   H17   S    
C1    O2    A    
C19   Cl2   S    
C14   O5    A    
C32   H30   S    
C31   H27   S    
C18   C22   S    
C3    C5    A    
C11   C12   A    
C9    N2    A    
C15   O7    A    
C6    C7    A    
C10   N1    A    
C12   N2    A    
C10   C32   S    
C27   H15   S    
C20   Cl5   S    
C11   N1    A    
C17   C19   S    
C30   H22   S    
C3    Cl7   S    
C25   H9    S    
C17   C21   S    
C18   Cl1   S    
C20   C21   S    
C24   H5    S    
C16   C18   S    
C29   H19   S    
C28   H18   S    
C13   O3    A    
O1    Zn1   S    
