data_mof_unit_29156.cif
_audit_creation_date              2012-12-10T17:42:36-0500
_audit_creation_method            fapswitch 2.2
_symmetry_space_group_name_H-M    P1
_symmetry_Int_Tables_number       1
_space_group_crystal_system       triclinic
_cell_length_a                    9.929873
_cell_length_b                    10.734846
_cell_length_c                    13.268475
_cell_angle_alpha                 93.263858
_cell_angle_beta                  70.163996
_cell_angle_gamma                 90.810922
_cell_volume                      1328.2663343

loop_
_atom_site_label
_atom_site_type_symbol
_atom_type_description
_atom_site_fract_x
_atom_site_fract_y
_atom_site_fract_z
_atom_type_partial_charge
C1    C     C_R   0.504620 0.738891 0.490915 0.895610
C2    C     C_R   0.448029 0.521259 0.975999 0.026381
C3    C     C_R   0.472450 0.466689 0.871835 0.068768
C4    C     C_R   0.555186 0.503790 0.023074 0.078249
C5    C     C_R   0.690546 0.451135 0.961282 0.175955
C6    C     C_R   0.710956 0.398163 0.859305 -0.238618
C7    C     C_R   0.599262 0.397352 0.819174 -0.175834
C8    C     C_R   0.524991 0.521539 0.132897 -0.248460
C9    C     C_R   0.767468 0.466201 0.116163 -0.196325
C10   C     C_R   0.372124 0.486851 0.820176 -0.119060
C11   C     C_R   0.307552 0.876055 0.411834 -0.134216
C12   C     C_R   0.420956 0.490413 0.703003 0.866413
C13   C     C_R   0.180493 0.932073 0.415006 -0.114389
C14   C     C_R   0.140199 0.046660 0.470315 -0.171747
C15   C     C_R   0.232643 0.109698 0.514326 -0.151527
C16   C     C_R   0.369454 0.059406 0.501669 0.096636
C17   C     C_R   0.395991 0.934724 0.464605 0.083785
C18   C     C_R   0.506906 0.871970 0.485443 -0.139583
C19   C     C_R   0.604435 0.936602 0.523197 -0.253797
C20   C     C_R   0.594504 0.063689 0.540970 -0.000616
C21   C     C_R   0.481444 0.127488 0.523934 -0.192107
C22   C     C_R   0.797491 0.677985 0.625717 -0.139606
C23   C     C_R   0.493664 0.260779 0.510054 0.870633
C24   C     C_R   0.834879 0.780144 0.676782 -0.247350
C25   C     C_R   0.971159 0.789308 0.678380 -0.195254
C26   C     C_R   0.071183 0.693271 0.633194 0.000586
C27   C     C_R   0.043074 0.591887 0.564535 0.098574
C28   C     C_R   0.898517 0.589188 0.562758 0.163436
C29   C     C_R   0.954722 0.414597 0.440256 -0.101269
C30   C     C_R   0.097420 0.414525 0.440299 -0.127032
C31   C     C_R   0.579452 0.501143 0.296479 0.869825
C32   C     C_R   0.798437 0.440070 0.006602 -0.206033
C33   C     C_R   0.627802 0.500171 0.180018 -0.061253
C34   C     C_R   0.234895 0.530926 0.880151 -0.206165
C35   C     C_R   0.209046 0.584694 0.982366 -0.180774
C36   C     C_R   0.318489 0.591435 0.026339 0.013448
H1    H     H_    0.335519 0.786763 0.368046 0.169106
H2    H     H_    0.111102 0.884726 0.377673 0.155130
H3    H     H_    0.038249 0.087661 0.477717 0.158722
H4    H     H_    0.192193 0.194875 0.561622 0.170167
H5    H     H_    0.922492 0.344560 0.391198 0.144809
H6    H     H_    0.686805 0.673058 0.638559 0.221820
H7    H     H_    0.755468 0.850077 0.719875 0.166236
H8    H     H_    0.994059 0.868794 0.724497 0.155793
H9    H     H_    0.809777 0.349765 0.813562 0.154712
H10   H     H_    0.903345 0.403580 0.958910 0.138336
H11   H     H_    0.416346 0.538746 0.184378 0.173783
H12   H     H_    0.153073 0.538459 0.843777 0.162042
H13   H     H_    0.107962 0.632626 0.022442 0.152959
H14   H     H_    0.687878 0.887816 0.540956 0.174710
N1    N     N_R   0.856860 0.501200 0.500990 -0.118956
N2    N     N_R   0.142450 0.501280 0.501020 -0.121970
O1    O     O_R   0.385310 0.683220 0.500000 -0.626960
O2    O     O_R   0.614640 0.683250 0.500010 -0.641553
O3    O     O_R   0.328400 0.499950 0.653610 -0.617216
O4    O     O_R   0.557730 0.499970 0.653620 -0.639579
O5    O     O_R   0.385360 0.316750 0.499990 -0.630405
O6    O     O_R   0.614690 0.316780 0.500000 -0.606943
O7    O     O_R   0.442270 0.500030 0.346380 -0.622049
O8    O     O_R   0.671600 0.500050 0.346390 -0.613502
Zn1   Zn    Zn3+2 0.346880 0.499980 0.499990 0.937527
Zn2   Zn    Zn3+2 0.653120 0.500020 0.500010 0.940576
H15   H     H_    0.848670 0.450306 0.151723 0.158523
C37   C     C_1   0.698604 0.123704 0.581699 0.170260
N3    N     N_1   0.782262 0.170823 0.614250 -0.248457
C38   C     C_1   0.182991 0.709702 0.678212 0.269645
N4    N     N_1   0.267732 0.734003 0.718404 -0.226312
H16   H     H_    0.172126 0.344561 0.391269 0.153780
C39   C     C_1   0.301404 0.687082 0.110825 0.126493
N5    N     N_1   0.287310 0.764587 0.177858 -0.233170
H17   H     H_    0.613678 0.342726 0.745388 0.184659

loop_
_geom_bond_atom_site_label_1
_geom_bond_atom_site_label_2
_ccdc_geom_bond_type
C31   O8    A    
C35   H13   S    
C23   O6    A    
C2    C4    A    
C1    O2    A    
C31   C33   S    
C16   C21   A    
O6    Zn2   S    
C29   C30   A    
C30   H16   S    
C6    H9    S    
C19   C20   A    
C4    C8    A    
O4    Zn2   S    
C37   N3    T    
C5    C32   A    
C2    C3    A    
C1    C18   S    
C8    H11   S    
C10   C34   A    
C3    C10   A    
C22   C28   A    
C13   C14   A    
C20   C21   A    
C9    C33   A    
C20   C37   S    
C11   C13   A    
C19   H14   S    
C13   H2    S    
C22   H6    S    
N1    Zn2   S    
C10   C12   S    
C23   O5    A    
C5    C6    A    
O3    Zn1   S    
C25   H8    S    
C39   N5    T    
C12   O4    A    
C17   C18   A    
C6    C7    A    
C3    C7    A    
N2    Zn1   S    
C21   C23   S    
C7    H17   S    
C36   C39   S    
C24   H7    S    
C28   N1    A    
C22   C24   A    
C15   H4    S    
O7    Zn1   S    
C12   O3    A    
C34   H12   S    
C2    C36   A    
C15   C16   A    
C26   C38   S    
C38   N4    T    
C24   C25   A    
C27   N2    A    
O1    Zn1   S    
O8    Zn2   S    
C34   C35   A    
C29   N1    A    
C31   O7    A    
C27   C28   A    
C11   H1    S    
C18   C19   A    
C1    O1    A    
C14   C15   A    
C4    C5    A    
C26   C27   A    
C30   N2    A    
O2    Zn2   S    
C9    C32   A    
C29   H5    S    
C25   C26   A    
C9    H15   S    
C32   H10   S    
C11   C17   A    
O5    Zn1   S    
C16   C17   A    
C14   H3    S    
C8    C33   A    
C35   C36   A    
