data_mof_unit_29409.cif
_audit_creation_date              2012-12-10T18:43:11-0500
_audit_creation_method            fapswitch 2.2
_symmetry_space_group_name_H-M    P1
_symmetry_Int_Tables_number       1
_space_group_crystal_system       triclinic
_cell_length_a                    10.689579
_cell_length_b                    9.85767
_cell_length_c                    10.687416
_cell_angle_alpha                 89.990687
_cell_angle_beta                  90.021045
_cell_angle_gamma                 87.840177
_cell_volume                      1125.37928742

loop_
_atom_site_label
_atom_site_type_symbol
_atom_type_description
_atom_site_fract_x
_atom_site_fract_y
_atom_site_fract_z
_atom_type_partial_charge
C1    C     C_R   0.259960 0.503212 0.501919 0.836908
C2    C     C_R   0.937096 0.453500 0.391092 0.100999
C3    C     C_R   0.872257 0.492686 0.501163 -0.148535
C4    C     C_R   0.126648 0.512202 0.497261 -0.118632
C5    C     C_R   0.931568 0.544791 0.607747 0.082367
C6    C     C_R   0.059890 0.565560 0.601211 0.064454
C7    C     C_R   0.433309 0.074610 0.587255 0.472506
C8    C     C_R   0.568740 0.068818 0.414635 0.426032
C9    C     C_R   0.435129 0.930861 0.588596 0.439753
C10   C     C_R   0.567825 0.925270 0.413647 0.474807
C11   C     C_3   0.276889 0.412984 0.871584 -0.453473
C12   C     C_R   0.739580 0.497485 0.499702 0.886957
C13   C     C_3   0.212557 0.283846 0.908407 -0.727114
C14   C     C_3   0.478679 0.252204 0.089537 -0.349728
C15   C     C_3   0.387726 0.167140 0.164335 -0.752292
C16   C     C_3   0.138601 0.457337 0.265048 -0.454577
C17   C     C_3   0.134015 0.595363 0.199987 -0.782191
C18   C     C_3   0.868977 0.395018 0.278527 -0.397150
C19   C     C_3   0.888112 0.240594 0.274330 -0.704439
C20   C     C_3   0.859283 0.565428 0.730568 -0.368408
C21   C     C_3   0.812681 0.712422 0.752128 -0.724939
C22   C     C_3   0.120581 0.661805 0.692895 -0.383067
C23   C     C_R   0.490622 0.500130 0.262004 0.800199
C24   C     C_3   0.106071 0.807922 0.645172 -0.659683
C25   C     C_R   0.499944 0.499257 0.737617 0.771298
C26   C     C_2   0.406416 0.427632 0.929176 0.085402
C27   C     C_2   0.429364 0.395945 0.060747 0.007266
C28   C     C_2   0.498853 0.491839 0.870213 0.476595
C29   C     C_2   0.445573 0.505334 0.134624 0.463301
C30   C     C_R   0.066928 0.466463 0.388497 0.138467
F1    F     F_    0.607009 0.521483 0.930229 -0.690921
F2    F     F_    0.414267 0.632009 0.089917 -0.637574
F3    F     F_    0.365509 0.145092 0.674050 -0.623472
F4    F     F_    0.637598 0.133360 0.329052 -0.644471
F5    F     F_    0.374545 0.865836 0.680635 -0.617222
F6    F     F_    0.636203 0.854804 0.327016 -0.579170
H1    H     H_    0.276162 0.193602 0.894490 0.313053
H2    H     H_    0.570590 0.255409 0.137207 0.264234
H3    H     H_    0.035813 0.634052 0.188236 0.258216
H4    H     H_    0.186276 0.669761 0.255600 0.278386
H5    H     H_    0.177097 0.585921 0.106059 0.272041
H6    H     H_    0.237343 0.424260 0.278905 0.195515
H7    H     H_    0.102196 0.380533 0.200916 0.210596
H8    H     H_    0.833587 0.199205 0.195548 0.278887
H9    H     H_    0.987863 0.209328 0.261025 0.215297
H10   H     H_    0.856440 0.195601 0.363544 0.300389
H11   H     H_    0.767015 0.419336 0.279787 0.224686
H12   H     H_    0.180866 0.291046 0.006905 0.227033
H13   H     H_    0.900313 0.440632 0.189604 0.214391
H14   H     H_    0.782269 0.762000 0.663468 0.258806
H15   H     H_    0.731872 0.714397 0.817333 0.298812
H16   H     H_    0.886436 0.772581 0.795874 0.235782
H17   H     H_    0.777435 0.499504 0.733130 0.210927
H18   H     H_    0.916694 0.529015 0.811304 0.200470
H19   H     H_    0.163424 0.821264 0.559817 0.271883
H20   H     H_    0.007309 0.834722 0.621063 0.228417
H21   H     H_    0.136802 0.879180 0.718461 0.278178
H22   H     H_    0.079948 0.656107 0.787724 0.194526
H23   H     H_    0.128248 0.272298 0.849114 0.245041
H24   H     H_    0.221289 0.636743 0.707052 0.226863
H25   H     H_    0.216731 0.500860 0.901919 0.197070
H26   H     H_    0.280205 0.414807 0.768090 0.222289
H27   H     H_    0.353849 0.219114 0.250235 0.250997
H28   H     H_    0.305988 0.140496 0.107570 0.234156
H29   H     H_    0.435681 0.069751 0.191138 0.280087
H30   H     H_    0.498765 0.197141 0.000502 0.230445
N1    N     N_R   0.500000 0.857200 0.500000 -0.242096
N2    N     N_R   0.500000 0.142810 0.500000 -0.227653
O1    O     O_R   0.316770 0.614620 0.499990 -0.604415
O2    O     O_R   0.683230 0.614620 0.500010 -0.575133
O3    O     O_R   0.316800 0.385290 0.500000 -0.594401
O4    O     O_R   0.683200 0.385290 0.500000 -0.590247
O5    O     O_R   0.500000 0.614630 0.319080 -0.508011
O6    O     O_R   0.500000 0.614630 0.680920 -0.552521
O7    O     O_R   0.500030 0.385300 0.319080 -0.621755
O8    O     O_R   0.499970 0.385300 0.680920 -0.590553
Zn1   Zn    Zn3+2 0.500000 0.653120 0.500000 1.060505
Zn2   Zn    Zn3+2 0.500000 0.346880 0.500000 1.018552

loop_
_geom_bond_atom_site_label_1
_geom_bond_atom_site_label_2
_ccdc_geom_bond_type
C22   H22   S    
C13   H12   S    
O4    Zn2   S    
C15   H28   S    
C9    N1    A    
C11   H25   S    
C13   H23   S    
C14   C27   S    
C24   H20   S    
C7    F3    S    
C25   O6    A    
O1    Zn1   S    
C21   H16   S    
N1    Zn1   S    
C15   H27   S    
C2    C30   A    
C11   H26   S    
C18   H11   S    
C25   O8    A    
C19   H9    S    
C2    C3    A    
C14   H30   S    
C19   H10   S    
C4    C30   A    
C5    C20   S    
C8    F4    S    
C10   N1    A    
C19   H8    S    
C24   H19   S    
C22   H24   S    
C11   C13   S    
C16   H7    S    
C26   C27   S    
C1    O3    A    
C27   C29   D    
C13   H1    S    
C23   O5    A    
C23   C29   S    
O2    Zn1   S    
C4    C6    A    
C21   H14   S    
O8    Zn2   S    
C8    N2    A    
C29   F2    S    
C22   C24   S    
C28   F1    S    
N2    Zn2   S    
C5    C6    A    
C12   O4    A    
O7    Zn2   S    
C17   H5    S    
C1    C4    S    
C2    C18   S    
C8    C10   A    
C16   C30   S    
C14   H2    S    
C6    C22   S    
C16   C17   S    
C16   H6    S    
C21   H15   S    
C20   C21   S    
O5    Zn1   S    
C20   H18   S    
C18   C19   S    
C17   H3    S    
C7    C9    A    
C12   O2    A    
C14   C15   S    
C20   H17   S    
C9    F5    S    
C10   F6    S    
C3    C12   S    
C11   C26   S    
C3    C5    A    
C7    N2    A    
C26   C28   D    
O6    Zn1   S    
O3    Zn2   S    
C1    O1    A    
C18   H13   S    
C23   O7    A    
C24   H21   S    
C25   C28   S    
C17   H4    S    
C15   H29   S    
