data_mof_unit_25376.cif
_audit_creation_date              2013-03-05T15:56:35-0500
_audit_creation_method            fapswitch 2.2
_symmetry_space_group_name_H-M    P1
_symmetry_Int_Tables_number       1
_space_group_crystal_system       triclinic
_cell_length_a                    7.001834
_cell_length_b                    14.838906
_cell_length_c                    15.857391
_cell_angle_alpha                 90.63435
_cell_angle_beta                  89.937644
_cell_angle_gamma                 89.126059
_cell_volume                      1647.28196767

loop_
_atom_site_label
_atom_site_type_symbol
_atom_site_description
_atom_site_fract_x
_atom_site_fract_y
_atom_site_fract_z
_atom_type_partial_charge
O1    O     O_R   0.361600 0.167310 0.164620 -0.558898
O2    O     O_R   0.638400 0.832690 0.835380 -0.563806
O3    O     O_R   0.691080 0.157570 0.338750 -0.599761
O4    O     O_R   0.308920 0.842430 0.661250 -0.621976
O5    O     O_R   0.861410 0.336420 0.339360 -0.596261
O6    O     O_R   0.138590 0.663580 0.660640 -0.597553
C1    C     C_R   0.521482 0.136462 0.368877 0.933892
C2    C     C_R   0.477341 0.864695 0.633084 0.903832
O7    O     O_R   0.691320 0.156280 0.165240 -0.581532
O8    O     O_R   0.308680 0.843720 0.834760 -0.585731
O9    O     O_R   0.861640 0.335130 0.164600 -0.604422
O10   O     O_R   0.138360 0.664870 0.835400 -0.593300
C3    C     C_R   0.523093 0.136171 0.134343 1.029071
C4    C     C_R   0.477058 0.864413 0.865178 1.008428
O11   O     O_R   0.361370 0.168600 0.339370 -0.618195
O12   O     O_R   0.638630 0.831400 0.660630 -0.609354
O13   O     O_3   0.527990 0.310540 0.251980 -0.298571
O14   O     O_3   0.472010 0.689460 0.748020 -0.274044
V1    V     V_3+5 0.802830 0.240980 0.251990 1.181180
V2    V     V_3+5 0.197170 0.759020 0.748010 1.178120
O15   O     O_R   0.191360 0.346160 0.165220 -0.590743
O16   O     O_R   0.808640 0.653840 0.834780 -0.586970
C5    C     C_R   0.023451 0.368658 0.136600 1.020122
C6    C     C_R   0.977566 0.629460 0.861527 1.036610
O17   O     O_R   0.191130 0.347440 0.338740 -0.630974
O18   O     O_R   0.808870 0.652560 0.661260 -0.587631
C7    C     C_R   0.022635 0.370300 0.367338 0.954770
C8    C     C_R   0.978554 0.637285 0.628643 1.001206
V3    V     V_3+5 0.302840 0.262750 0.251990 1.172245
V4    V     V_3+5 0.697160 0.737250 0.748010 1.201839
O19   O     O_3   0.027820 0.193180 0.251990 -0.269450
O20   O     O_3   0.972180 0.806820 0.748010 -0.297105
C9    C     C_3   0.838329 0.468251 0.490029 -0.351158
C10   C     C_3   0.177578 0.550417 0.503277 -0.292148
C11   C     C_3   0.965240 0.473141 0.569281 0.423284
C12   C     C_3   0.051203 0.544219 0.423426 0.426041
H1    H     H_    0.691636 0.446775 0.486579 0.194846
H2    H     H_    0.314659 0.586098 0.507536 0.160336
C13   C     C_3   0.995981 0.572878 0.556171 -0.281714
C14   C     C_3   0.018242 0.442728 0.436524 -0.296338
C15   C     C_3   0.873887 0.569504 0.476040 0.049312
C16   C     C_3   0.145372 0.448204 0.517884 0.037331
C17   C     C_R   0.838792 0.495683 0.943966 0.174632
C18   C     C_R   0.172943 0.492955 0.044895 0.219502
C19   C     C_R   0.855248 0.438110 0.014257 -0.177079
C20   C     C_R   0.149870 0.555574 0.979672 -0.188222
H3    H     H_    0.742629 0.392041 0.028481 0.133311
H4    H     H_    0.263532 0.602538 0.967771 0.147134
C21   C     C_R   0.018209 0.435430 0.065791 -0.168541
C22   C     C_R   0.986418 0.559069 0.928984 -0.201951
C23   C     C_R   0.670531 0.027792 0.472437 -0.264012
C24   C     C_R   0.323648 0.972667 0.532022 -0.240203
H5    H     H_    0.801051 0.036139 0.439482 0.139752
H6    H     H_    0.187319 0.948785 0.552619 0.131413
C25   C     C_R   0.662713 0.977081 0.547501 0.184300
C26   C     C_R   0.333265 0.050697 0.482222 0.210630
C27   C     C_R   0.488833 0.936538 0.568305 -0.174659
C28   C     C_R   0.506638 0.070087 0.440246 -0.185920
C29   C     C_R   0.651795 0.000239 0.056603 -0.214955
C30   C     C_R   0.349767 0.001494 0.941751 -0.230761
H7    H     H_    0.766522 0.997444 0.102353 0.184647
H8    H     H_    0.235448 0.004300 0.895832 0.175551
C31   C     C_R   0.640156 0.931402 0.995011 0.397066
C32   C     C_R   0.361604 0.070496 0.003267 0.411835
C33   C     C_R   0.487993 0.932094 0.935786 -0.335526
C34   C     C_R   0.512907 0.069295 0.062979 -0.343203
N1    N     N_R   0.911662 0.437508 0.650881 0.209112
O21   O     O_R   0.733288 0.442046 0.672897 -0.484829
O22   O     O_R   0.040234 0.429745 0.709452 -0.481983
N2    N     N_R   0.097213 0.585929 0.343643 0.203497
O23   O     O_R   0.240282 0.640485 0.339001 -0.471766
O24   O     O_R   0.981103 0.578185 0.280168 -0.477536
C35   C     C_3   0.712320 0.635639 0.454637 -0.377501
C36   C     C_3   0.783390 0.730444 0.435665 -0.277381
C37   C     C_3   0.622062 0.789001 0.400332 -0.799893
H9    H     H_    0.570856 0.760360 0.339570 0.286014
H10   H     H_    0.500912 0.793186 0.445508 0.251172
H11   H     H_    0.675007 0.857810 0.388638 0.241296
H12   H     H_    0.838658 0.762187 0.494404 0.175626
H13   H     H_    0.900518 0.727664 0.388625 0.256474
H14   H     H_    0.633146 0.608068 0.400029 0.219869
H15   H     H_    0.613619 0.639933 0.509285 0.187563
C38   C     C_3   0.312868 0.392876 0.554429 -0.422998
C39   C     C_3   0.417515 0.336539 0.487482 -0.214256
C40   C     C_3   0.593252 0.286393 0.521344 -0.995289
H16   H     H_    0.705555 0.282993 0.472310 0.272950
H17   H     H_    0.650642 0.319379 0.578323 0.316889
H18   H     H_    0.562553 0.216166 0.537462 0.247426
H19   H     H_    0.319817 0.286666 0.463190 0.217400
H20   H     H_    0.457361 0.379436 0.433637 0.219557
H21   H     H_    0.414088 0.440217 0.584526 0.236206
H22   H     H_    0.261949 0.348922 0.605108 0.233248
C41   C     C_3   0.666308 0.489043 0.885305 -0.391666
C42   C     C_3   0.559013 0.398975 0.886218 -0.336447
C43   C     C_3   0.395327 0.398232 0.822810 -0.662124
H23   H     H_    0.296693 0.456195 0.834839 0.257170
H24   H     H_    0.449687 0.401681 0.757406 0.281503
H25   H     H_    0.314141 0.334936 0.829127 0.254776
H26   H     H_    0.659711 0.342333 0.871388 0.240539
H27   H     H_    0.493970 0.387575 0.948660 0.215115
H28   H     H_    0.565086 0.545280 0.900290 0.192422
H29   H     H_    0.717061 0.497526 0.819856 0.263876
C44   C     C_3   0.368275 0.490283 0.086583 -0.524386
C45   C     C_3   0.369566 0.539332 0.171622 -0.175588
C46   C     C_3   0.573645 0.551633 0.202807 -0.738008
H30   H     H_    0.642035 0.485247 0.215701 0.262316
H31   H     H_    0.659925 0.587801 0.155451 0.268142
H32   H     H_    0.571481 0.592403 0.261547 0.266082
H33   H     H_    0.300326 0.606851 0.165262 0.248592
H34   H     H_    0.290024 0.500039 0.218729 0.238281
H35   H     H_    0.425227 0.420587 0.091793 0.226892
H36   H     H_    0.473235 0.523980 0.045469 0.195330
C47   C     C_3   0.821694 0.982817 0.612227 -0.451359
C48   C     C_3   0.751647 0.025170 0.696874 -0.222419
C49   C     C_3   0.912804 0.037250 0.760828 -0.814648
H37   H     H_    0.013806 0.978973 0.759336 0.268443
H38   H     H_    0.991848 0.099720 0.748330 0.248184
H39   H     H_    0.851641 0.043544 0.825347 0.259997
H40   H     H_    0.682103 0.091710 0.685368 0.185036
H41   H     H_    0.642454 0.983130 0.726956 0.179955
H42   H     H_    0.894554 0.916884 0.620862 0.216915
H43   H     H_    0.930365 0.026341 0.588857 0.194906
C50   C     C_3   0.173670 0.118481 0.494253 -0.426947
C51   C     C_3   0.172078 0.157136 0.584956 -0.318302
C52   C     C_3   0.997101 0.216724 0.600885 -0.896154
H44   H     H_    0.993025 0.272334 0.554942 0.260582
H45   H     H_    0.865677 0.177315 0.593759 0.272916
H46   H     H_    0.001645 0.245321 0.665798 0.288370
H47   H     H_    0.177573 0.102542 0.631889 0.207782
H48   H     H_    0.299664 0.196769 0.597890 0.222572
H49   H     H_    0.162849 0.172472 0.448593 0.205828
H50   H     H_    0.044563 0.083380 0.481789 0.171496
N3    N     N_R   0.778589 0.858999 0.996743 0.236116
O25   O     O_R   0.722629 0.775752 0.995678 -0.421592
O26   O     O_R   0.956780 0.875761 0.013127 -0.395092
N4    N     N_R   0.224617 0.143532 0.000947 0.232462
O27   O     O_R   0.281977 0.226500 0.004395 -0.453200
O28   O     O_R   0.047505 0.127951 0.981487 -0.415105

loop_
_geom_bond_atom_site_label_1
_geom_bond_atom_site_label_2
_geom_bond_distance
_ccdc_geom_bond_type
C18   C21   1.430364 A    
V4    O20   2.198744 S    
C32   N4    1.437067 S    
C41   C42   1.543337 S    
C50   H50   1.067719 S    
O13   V3    1.738457 S    
C35   C36   1.532197 S    
C43   H23   1.109545 S    
C10   C16   1.556623 S    
O4    C2    1.308928 A    
V1    O19   1.717767 S    
C31   C33   1.421016 A    
C48   C49   1.529219 S    
C43   H25   1.110675 S    
C50   C51   1.542535 S    
C13   C15   1.533028 S    
C23   C25   1.416696 A    
C40   H16   1.105456 S    
C38   H22   1.102919 S    
C46   H31   1.111182 S    
O9    V1    2.025081 S    
C31   N3    1.436498 S    
C44   H35   1.106712 S    
O3    C1    1.322841 A    
C29   C34   1.404652 A    
C45   H33   1.111999 S    
C9    C11   1.541647 S    
C5    C21   1.505820 S    
O12   V4    2.016522 S    
C49   H37   1.108773 S    
C30   H8    1.083322 S    
C11   C16   1.539088 S    
O7    C3    1.313496 A    
C17   C41   1.528920 S    
O5    C7    1.318104 A    
O7    V1    2.018821 S    
O6    C8    1.294415 A    
C47   H43   1.073819 S    
C18   C20   1.405795 A    
C49   H38   1.106513 S    
C52   H46   1.109701 S    
O3    V1    2.025307 S    
N2    O23   1.300062 A    
O14   V4    1.738459 S    
C11   N1    1.454222 S    
C1    C28   1.513020 S    
C10   C12   1.548255 S    
C48   H40   1.111232 S    
C24   H6    1.075007 S    
C40   H17   1.102022 S    
C2    O12   1.303493 A    
C36   H13   1.107990 S    
O17   V3    2.003212 S    
C12   C15   1.534574 S    
C39   H20   1.108601 S    
C35   H14   1.106652 S    
C45   C46   1.525510 S    
C18   C44   1.519879 S    
C12   N2    1.452580 S    
O11   V3    2.016524 S    
C3    C34   1.499330 S    
C19   H3    1.076788 S    
C6    C22   1.504006 S    
C46   H32   1.105025 S    
C20   H4    1.083581 S    
C29   H7    1.083626 S    
C9    C14   1.557627 S    
C36   C37   1.525502 S    
N1    O21   1.297016 A    
C26   C50   1.502608 S    
C12   C14   1.543338 S    
C39   C40   1.529211 S    
N4    O28   1.301751 A    
O8    C4    1.313734 A    
C41   H28   1.110118 S    
N4    O27   1.301412 A    
C1    O11   1.301139 A    
C25   C47   1.517649 S    
C8    C13   1.490243 S    
O15   V3    2.011221 S    
C9    H1    1.081322 S    
C10   C13   1.552390 S    
C44   H36   1.110214 S    
C23   H5    1.061820 S    
C32   C34   1.421682 A    
C11   C13   1.515377 S    
C37   H9    1.110804 S    
C2    C27   1.491599 S    
C17   C19   1.415592 A    
C42   H27   1.105234 S    
C38   C39   1.524040 S    
C19   C21   1.404525 A    
C7    C14   1.527253 S    
C49   H39   1.111115 S    
O10   V2    2.025083 S    
O1    V3    2.007984 S    
C51   H48   1.095330 S    
C23   C28   1.399198 A    
C37   H10   1.110276 S    
C30   C33   1.404788 A    
O18   V4    2.003211 S    
C36   H12   1.111694 S    
O15   C5    1.300831 A    
N3    O25   1.301564 A    
O16   C6    1.304302 A    
O1    C3    1.304063 A    
C39   H19   1.083384 S    
C35   H15   1.108486 S    
O6    V2    2.017162 S    
C52   H45   1.103048 S    
C47   C48   1.551690 S    
V2    O20   1.717767 S    
C40   H18   1.100039 S    
O10   C6    1.318006 A    
O16   V4    2.011224 S    
C50   H49   1.087632 S    
C10   H2    1.104991 S    
C29   C31   1.408740 A    
C16   C38   1.538813 S    
C14   C16   1.570310 S    
C41   H29   1.105764 S    
C43   H24   1.106359 S    
C17   C22   1.429557 A    
O5    V1    2.017162 S    
O17   C7    1.302229 A    
C38   H21   1.109982 S    
C46   H30   1.109870 S    
C20   C22   1.399880 A    
O18   C8    1.310848 A    
O2    V4    2.007987 S    
C30   C32   1.409778 A    
C9    C15   1.545098 S    
C25   C27   1.406734 A    
V3    O19   2.198746 S    
C45   H34   1.107615 S    
C52   H44   1.106873 S    
O8    V2    2.018821 S    
C42   H26   1.111792 S    
O9    C5    1.322607 A    
O13   V1    2.169813 S    
C4    C33   1.498586 S    
C26   C28   1.418665 A    
C51   H47   1.106383 S    
O14   V2    2.169814 S    
C42   C43   1.525561 S    
O2    C4    1.303363 A    
C37   H11   1.109021 S    
C24   C27   1.394822 A    
C15   C35   1.527207 S    
O4    V2    2.025305 S    
C47   H42   1.106401 S    
C44   C45   1.525371 S    
N3    O26   1.301833 A    
N2    O24   1.299759 A    
N1    O22   1.298992 A    
C48   H41   1.105258 S    
C24   C26   1.411144 A    
C51   C52   1.519218 S    
