data_mof_unit_34032.cif
_audit_creation_date              2012-12-10T18:01:42-0500
_audit_creation_method            fapswitch 2.2
_symmetry_space_group_name_H-M    P1
_symmetry_Int_Tables_number       1
_space_group_crystal_system       triclinic
_cell_length_a                    10.81016
_cell_length_b                    9.520133
_cell_length_c                    19.392169
_cell_angle_alpha                 90.032142
_cell_angle_beta                  90.630287
_cell_angle_gamma                 90.17349
_cell_volume                      1995.59854755

loop_
_atom_site_label
_atom_site_type_symbol
_atom_type_description
_atom_site_fract_x
_atom_site_fract_y
_atom_site_fract_z
_atom_type_partial_charge
C1    C     C_R   0.262191 0.499852 0.499927 0.943485
C2    C     C_R   0.737813 0.500153 0.500093 0.946983
C3    C     C_R   0.489534 0.501399 0.929970 0.452221
C4    C     C_R   0.489714 0.502022 0.069864 0.452100
C5    C     C_R   0.499624 0.500013 0.367444 0.924780
C6    C     C_R   0.499715 0.500099 0.632544 0.924770
C7    C     C_R   0.062907 0.391232 0.466889 0.522604
C8    C     C_R   0.937104 0.608843 0.533122 0.520665
C9    C     C_R   0.934877 0.391405 0.466929 0.505378
C10   C     C_R   0.065146 0.608583 0.533154 0.507711
C11   C     C_R   0.871596 0.500271 0.500014 -0.485077
C12   C     C_R   0.128416 0.499751 0.500030 -0.492030
C13   C     C_R   0.422683 0.073940 0.456993 0.586653
C14   C     C_R   0.576886 0.925975 0.543267 0.584642
C15   C     C_R   0.577449 0.074669 0.542960 0.573961
C16   C     C_R   0.422874 0.925260 0.456859 0.571075
C17   C     C_R   0.544837 0.615791 0.255062 0.495936
C18   C     C_R   0.544718 0.386037 0.745843 0.493405
C19   C     C_R   0.447826 0.615437 0.744004 0.503549
C20   C     C_R   0.447940 0.385736 0.254932 0.502877
C21   C     C_R   0.546995 0.614821 0.183035 0.343267
C22   C     C_R   0.547047 0.388068 0.817852 0.333034
C23   C     C_R   0.439791 0.613661 0.815847 0.339469
C24   C     C_R   0.439695 0.388520 0.183044 0.330604
C25   C     C_R   0.491829 0.502058 0.146108 -0.336466
C26   C     C_R   0.491921 0.500938 0.853760 -0.336079
C27   C     C_R   0.497832 0.500295 0.291516 -0.423097
C28   C     C_R   0.497648 0.500576 0.708432 -0.424949
Cu1   Cu    Cu3+1 0.500000 0.640660 0.500000 1.174595
Cu2   Cu    Cu3+1 0.500000 0.359340 0.500000 1.162197
N1    N     N_R   0.500000 0.852070 0.500000 -0.356453
N2    N     N_R   0.500000 0.147930 0.500000 -0.370342
N3    N     N_R   0.489579 0.379345 0.034274 -0.189073
N4    N     N_R   0.489669 0.624131 0.965545 -0.188508
N5    N     N_R   0.488844 0.379038 0.965743 -0.190555
N6    N     N_R   0.489126 0.624433 0.034095 -0.189920
O1    O     O_R   0.319640 0.618740 0.500000 -0.506641
O2    O     O_R   0.680360 0.381260 0.500000 -0.509072
O3    O     O_R   0.680360 0.618740 0.500000 -0.521207
O4    O     O_R   0.319640 0.381260 0.500000 -0.525509
O5    O     O_R   0.499980 0.618820 0.400140 -0.514282
O6    O     O_R   0.500020 0.381180 0.599860 -0.525472
O7    O     O_R   0.500020 0.618820 0.599860 -0.494341
O8    O     O_R   0.499980 0.381180 0.400140 -0.505017
F1    F     F_    0.122447 0.287352 0.432760 -0.520882
F2    F     F_    0.877540 0.712871 0.567136 -0.526328
F3    F     F_    0.872992 0.287367 0.433036 -0.569782
F4    F     F_    0.127050 0.712503 0.567132 -0.560245
F5    F     F_    0.593015 0.728387 0.289174 -0.600366
F6    F     F_    0.592865 0.273322 0.712774 -0.562252
F7    F     F_    0.402359 0.728068 0.709099 -0.585400
F8    F     F_    0.402518 0.272315 0.288788 -0.550358
O9    O     O_3   0.598374 0.728918 0.149459 -0.521560
C29   C     C_3   0.720428 0.697045 0.128669 0.086834
H1    H     H_    0.736494 0.752557 0.079165 0.181704
H2    H     H_    0.735970 0.583074 0.118219 0.104231
C30   C     C_3   0.814692 0.750420 0.182211 -0.284478
H3    H     H_    0.794196 0.861618 0.195226 0.269474
H4    H     H_    0.807895 0.686436 0.229906 0.243147
C31   C     C_3   0.946571 0.741062 0.155311 -0.913328
H5    H     H_    0.969255 0.630858 0.141798 0.247309
H6    H     H_    0.012599 0.777786 0.195768 0.287264
H7    H     H_    0.957322 0.808406 0.108984 0.256616
O10   O     O_3   0.598262 0.274584 0.852352 -0.521949
C32   C     C_3   0.720225 0.307403 0.874740 0.084688
H8    H     H_    0.736532 0.251013 0.924148 0.181668
H9    H     H_    0.735260 0.421316 0.885978 0.106040
C33   C     C_3   0.814691 0.256361 0.822060 -0.265643
H10   H     H_    0.794074 0.145571 0.807766 0.276802
H11   H     H_    0.808271 0.322061 0.774842 0.247454
C34   C     C_3   0.946414 0.265247 0.850922 -0.929783
H12   H     H_    0.968933 0.374802 0.866266 0.247207
H13   H     H_    0.012707 0.231272 0.810928 0.282838
H14   H     H_    0.956936 0.195445 0.896485 0.258345
O11   O     O_3   0.385379 0.726798 0.848455 -0.521027
C35   C     C_3   0.261477 0.693694 0.865475 0.071530
H15   H     H_    0.240748 0.748090 0.914705 0.181631
H16   H     H_    0.245015 0.579407 0.874856 0.105749
C36   C     C_3   0.172315 0.747577 0.809555 -0.269910
H17   H     H_    0.193526 0.859441 0.798118 0.268718
H18   H     H_    0.184105 0.685270 0.761649 0.255565
C37   C     C_3   0.037916 0.735633 0.832163 -0.895270
H19   H     H_    0.014176 0.624495 0.843305 0.246303
H20   H     H_    0.975921 0.774066 0.790261 0.298729
H21   H     H_    0.022358 0.800204 0.878989 0.251861
O12   O     O_3   0.385303 0.275327 0.149482 -0.520853
C38   C     C_3   0.261553 0.307897 0.130775 0.070190
H22   H     H_    0.240750 0.252840 0.081439 0.181299
H23   H     H_    0.245567 0.422023 0.120835 0.107742
C39   C     C_3   0.172043 0.254541 0.185691 -0.251129
H24   H     H_    0.193064 0.143018 0.197938 0.275594
H25   H     H_    0.183658 0.317814 0.233479 0.259058
C40   C     C_3   0.037799 0.265286 0.161117 -0.912396
H26   H     H_    0.014413 0.375954 0.148740 0.246328
H27   H     H_    0.975463 0.227971 0.202438 0.293377
H28   H     H_    0.022348 0.199143 0.114584 0.253381
F9    F     F_    0.344808 0.143141 0.413829 -0.479723
F10   F     F_    0.653298 0.856624 0.587259 -0.510141
F11   F     F_    0.656145 0.144652 0.585703 -0.518292
F12   F     F_    0.345332 0.855167 0.413458 -0.549455

loop_
_geom_bond_atom_site_label_1
_geom_bond_atom_site_label_2
_ccdc_geom_bond_type
C21   O9    S    
C38   H22   S    
C4    N6    A    
C40   H26   S    
C13   N2    A    
C35   C36   S    
C14   N1    A    
C4    C25   S    
C39   H24   S    
C15   N2    A    
O9    C29   S    
C16   N1    A    
C31   H7    S    
C7    F1    S    
C35   H16   S    
C8    C11   A    
C30   H4    S    
Cu2   O2    S    
C31   H6    S    
C23   C26   A    
C5    O5    A    
C1    O4    A    
C4    N3    A    
C6    O6    A    
C2    O3    A    
C6    C28   S    
C20   C24   A    
C33   H10   S    
C32   H9    S    
C1    O1    A    
C40   H27   S    
C5    C27   S    
Cu1   O7    S    
Cu2   O8    S    
C1    C12   S    
C2    C11   S    
C14   F10   S    
C7    C12   A    
C29   H2    S    
C17   C27   A    
C18   C28   A    
C24   C25   A    
C17   F5    S    
C34   H13   S    
O12   C38   S    
C16   F12   S    
C30   C31   S    
C3    N4    A    
C17   C21   A    
C31   H5    S    
C19   C23   A    
O11   C35   S    
Cu1   Cu2   S    
C36   C37   S    
C2    O2    A    
C39   H25   S    
C3    N5    A    
Cu1   N1    S    
C32   C33   S    
Cu1   O3    S    
Cu2   O4    S    
C35   H15   S    
C19   C28   A    
C9    C11   A    
C10   C12   A    
C8    C10   A    
C5    O8    A    
C9    F3    S    
C40   H28   S    
C37   H20   S    
C6    O7    A    
C38   H23   S    
C10   F4    S    
C38   C39   S    
C23   O11   S    
C18   F6    S    
C39   C40   S    
C36   H18   S    
C7    C9    A    
C21   C25   A    
C29   H1    S    
Cu1   O5    S    
C18   C22   A    
C3    C26   S    
C15   F11   S    
C34   H14   S    
C20   C27   A    
C37   H21   S    
O10   C32   S    
C34   H12   S    
C20   F8    S    
Cu2   N2    S    
C30   H3    S    
C33   C34   S    
N3    N5    A    
N4    N6    A    
C32   H8    S    
C13   F9    S    
C8    F2    S    
C22   O10   S    
C36   H17   S    
C19   F7    S    
C33   H11   S    
C37   H19   S    
C22   C26   A    
C13   C16   A    
Cu1   O1    S    
C14   C15   A    
Cu2   O6    S    
C24   O12   S    
C29   C30   S    
