data_mof_unit_22782.cif
_audit_creation_date              2012-12-10T21:10:45-0500
_audit_creation_method            fapswitch 2.2
_symmetry_space_group_name_H-M    P1
_symmetry_Int_Tables_number       1
_space_group_crystal_system       triclinic
_cell_length_a                    17.47499
_cell_length_b                    16.7864
_cell_length_c                    10.61875
_cell_angle_alpha                 88.973574
_cell_angle_beta                  91.534804
_cell_angle_gamma                 89.154323
_cell_volume                      3112.94813426

loop_
_atom_site_label
_atom_site_type_symbol
_atom_type_description
_atom_site_fract_x
_atom_site_fract_y
_atom_site_fract_z
_atom_type_partial_charge
C1    C     C_R   0.353087 0.500498 0.502244 0.860267
C2    C     C_R   0.115127 0.502917 0.559983 0.165953
C3    C     C_1   0.966901 0.499712 0.566114 -0.072322
C4    C     C_1   0.034803 0.501658 0.567527 -0.073465
C5    C     C_R   0.446767 0.833438 0.422059 0.080943
C6    C     C_R   0.540972 0.829713 0.596736 0.076739
C7    C     C_R   0.452597 0.749045 0.418541 -0.039062
C8    C     C_R   0.543464 0.745467 0.587456 -0.020417
C9    C     C_R   0.491702 0.874500 0.512729 0.006423
C10   C     C_1   0.487864 0.962501 0.518829 -0.076729
C11   C     C_1   0.486163 0.035372 0.522568 -0.033454
C12   C     C_R   0.646840 0.499631 0.501637 0.855591
C13   C     C_R   0.512374 0.500899 0.261333 0.897102
C14   C     C_R   0.491166 0.499396 0.740658 0.894329
C15   C     C_R   0.429753 0.169171 0.465351 -0.253833
C16   C     C_R   0.551877 0.161856 0.567906 -0.299124
C17   C     C_R   0.437986 0.252687 0.446788 0.263180
C18   C     C_R   0.559678 0.245325 0.551633 0.261540
C19   C     C_R   0.487405 0.122967 0.523904 0.081564
C20   C     C_R   0.531624 0.651502 0.109655 -0.122008
C21   C     C_R   0.449536 0.643184 0.883277 -0.121099
C22   C     C_R   0.505659 0.721340 0.048591 -0.187526
C23   C     C_R   0.729313 0.499292 0.516914 -0.020038
C24   C     C_R   0.461774 0.716957 0.937937 -0.165384
C25   C     C_R   0.481938 0.572436 0.938612 0.057607
C26   C     C_R   0.514199 0.575918 0.059778 0.078308
C27   C     C_R   0.527467 0.503705 0.127405 -0.244871
C28   C     C_R   0.482961 0.498477 0.876697 -0.211106
C29   C     C_R   0.531844 0.430711 0.065077 0.118554
C30   C     C_R   0.496836 0.426106 0.945392 0.156485
C31   C     C_R   0.842900 0.558445 0.606555 -0.170059
C32   C     C_R   0.150608 0.573356 0.524034 -0.164650
C33   C     C_R   0.764152 0.559491 0.587123 -0.199687
C34   C     C_R   0.270895 0.501227 0.518554 -0.034474
C35   C     C_R   0.228711 0.572668 0.503644 -0.204427
C36   C     C_3   0.577251 0.360700 0.125516 -0.365449
C37   C     C_3   0.638567 0.328230 0.039573 -0.934524
C38   C     C_3   0.467910 0.345935 0.898699 -0.361539
C39   C     C_3   0.382671 0.349805 0.861827 -0.860530
C40   C     C_3   0.379575 0.292848 0.357243 -0.368554
C41   C     C_3   0.371112 0.250464 0.230970 -0.947263
C42   C     C_3   0.641171 0.273319 0.565588 -0.355526
C43   C     C_3   0.659081 0.310484 0.692589 -0.834541
C44   C     C_3   0.393517 0.881094 0.332042 -0.395383
C45   C     C_R   0.773508 0.438367 0.465643 -0.218858
C46   C     C_3   0.343603 0.832341 0.242445 -0.915735
C47   C     C_3   0.588949 0.873276 0.694891 -0.392596
C48   C     C_3   0.641723 0.820971 0.779984 -0.917024
C49   C     C_R   0.234627 0.430942 0.556022 -0.218956
C50   C     C_R   0.852309 0.437412 0.485231 -0.159378
C51   C     C_R   0.156670 0.431860 0.576460 -0.162252
C52   C     C_R   0.886447 0.497390 0.555622 0.162283
H1    H     H_    0.380074 0.139209 0.427174 0.153883
H2    H     H_    0.266434 0.375553 0.570589 0.149230
H3    H     H_    0.886690 0.390981 0.443780 0.132559
H4    H     H_    0.128642 0.377155 0.603168 0.131949
H5    H     H_    0.612166 0.292639 0.963899 0.254758
H6    H     H_    0.671648 0.377640 0.997683 0.273574
H7    H     H_    0.678661 0.288368 0.094880 0.252496
H8    H     H_    0.608840 0.379955 0.211680 0.216074
H9    H     H_    0.538709 0.312341 0.154825 0.207745
H10   H     H_    0.348905 0.370318 0.942619 0.251489
H11   H     H_    0.371369 0.390823 0.780170 0.265226
H12   H     H_    0.599043 0.125936 0.607500 0.146529
H13   H     H_    0.363092 0.289573 0.835358 0.243612
H14   H     H_    0.501732 0.323403 0.819832 0.229143
H15   H     H_    0.473715 0.299190 0.973367 0.200664
H16   H     H_    0.428077 0.235768 0.193093 0.261360
H17   H     H_    0.337896 0.195010 0.241059 0.258852
H18   H     H_    0.339626 0.289924 0.161604 0.260619
H19   H     H_    0.323041 0.295280 0.402423 0.190969
H20   H     H_    0.395799 0.353339 0.331636 0.275900
H21   H     H_    0.718476 0.333108 0.693993 0.249129
H22   H     H_    0.619780 0.360440 0.712099 0.290047
H23   H     H_    0.566557 0.657296 0.194559 0.156990
H24   H     H_    0.654828 0.264245 0.767827 0.231330
H25   H     H_    0.681986 0.222172 0.558265 0.166241
H26   H     H_    0.656458 0.309565 0.483198 0.211355
H27   H     H_    0.869819 0.605422 0.659741 0.134152
H28   H     H_    0.117749 0.628191 0.509752 0.133054
H29   H     H_    0.379680 0.797210 0.178603 0.265513
H30   H     H_    0.306111 0.792098 0.296476 0.258637
H31   H     H_    0.306528 0.873304 0.183583 0.256213
H32   H     H_    0.354576 0.918331 0.388499 0.214634
H33   H     H_    0.428549 0.921861 0.274368 0.212839
H34   H     H_    0.413955 0.641971 0.798365 0.153779
H35   H     H_    0.607866 0.778547 0.836401 0.270876
H36   H     H_    0.683616 0.787950 0.722931 0.256619
H37   H     H_    0.674058 0.859247 0.846258 0.256218
H38   H     H_    0.625191 0.917136 0.645516 0.214210
H39   H     H_    0.549773 0.906913 0.756114 0.212374
H40   H     H_    0.418846 0.715506 0.352039 0.162508
H41   H     H_    0.579227 0.709172 0.650742 0.160660
H42   H     H_    0.518190 0.778705 0.088643 0.146010
H43   H     H_    0.438656 0.770793 0.892907 0.144054
H44   H     H_    0.730441 0.606707 0.627868 0.146838
H45   H     H_    0.255862 0.627543 0.475472 0.151664
H46   H     H_    0.747524 0.392881 0.408499 0.131373
N1    N     N_R   0.500000 0.707230 0.500000 -0.134961
N2    N     N_R   0.500000 0.292770 0.500000 -0.125770
O1    O     O_R   0.389110 0.566570 0.499990 -0.618666
O2    O     O_R   0.610890 0.566570 0.500010 -0.623032
O3    O     O_R   0.389090 0.433480 0.499980 -0.647404
O4    O     O_R   0.610910 0.433480 0.500020 -0.624801
O5    O     O_R   0.500000 0.566560 0.316760 -0.618737
O6    O     O_R   0.500000 0.566560 0.683240 -0.624325
O7    O     O_R   0.499970 0.433470 0.316760 -0.641275
O8    O     O_R   0.500030 0.433470 0.683240 -0.615239
Zn1   Zn    Zn3+2 0.500000 0.588860 0.500000 0.923934
Zn2   Zn    Zn3+2 0.500000 0.411140 0.500000 0.911306

loop_
_geom_bond_atom_site_label_1
_geom_bond_atom_site_label_2
_ccdc_geom_bond_type
C43   H21   S    
N2    Zn2   S    
C23   C45   A    
C40   H19   S    
C27   C29   A    
C22   H42   S    
C31   C52   A    
C13   O7    A    
C6    C9    A    
C25   C28   A    
C15   C19   A    
C12   C23   S    
C11   C19   S    
C26   C27   A    
C7    N1    A    
O3    Zn2   S    
C15   H1    S    
C36   C37   S    
C8    N1    A    
C12   O4    A    
C45   H46   S    
C18   C42   S    
C38   C39   S    
O1    Zn1   S    
C49   H2    S    
N1    Zn1   S    
C30   C38   S    
C2    C32   A    
C34   C35   A    
O5    Zn1   S    
C46   H30   S    
C38   H14   S    
C49   C51   A    
C50   C52   A    
C48   H36   S    
C9    C10   S    
C1    O3    A    
C37   H6    S    
C43   H22   S    
C14   O8    A    
C39   H13   S    
C18   N2    A    
C44   C46   S    
C1    C34   S    
C41   H16   S    
C6    C47   S    
C32   C35   A    
C13   O5    A    
C2    C51   A    
C24   H43   S    
C5    C7    A    
C6    C8    A    
C44   H32   S    
C25   C26   A    
C20   H23   S    
C17   C40   S    
C2    C4    S    
C12   O2    A    
C29   C30   A    
C32   H28   S    
C46   H29   S    
C47   C48   S    
C29   C36   S    
C31   C33   A    
C48   H35   S    
C37   H7    S    
C44   H33   S    
C40   C41   S    
C5    C44   S    
C20   C22   A    
C42   H26   S    
C48   H37   S    
C47   H38   S    
C22   C24   A    
C42   C43   S    
C36   H9    S    
C33   H44   S    
C1    O1    A    
C41   H17   S    
C43   H24   S    
C15   C17   A    
C39   H10   S    
C21   C25   A    
C21   H34   S    
C34   C49   A    
C40   H20   S    
C47   H39   S    
C8    H41   S    
C51   H4    S    
C5    C9    A    
C36   H8    S    
C23   C33   A    
C3    C52   S    
C31   H27   S    
C39   H11   S    
C50   H3    S    
C28   C30   A    
O4    Zn2   S    
C20   C26   A    
C45   C50   A    
C16   C19   A    
C7    H40   S    
O7    Zn2   S    
O8    Zn2   S    
C17   N2    A    
C10   C11   T    
C46   H31   S    
C14   O6    A    
C38   H15   S    
C42   H25   S    
C16   C18   A    
C21   C24   A    
C13   C27   S    
O2    Zn1   S    
C16   H12   S    
C14   C28   S    
C35   H45   S    
C37   H5    S    
C3    C4    T    
C41   H18   S    
O6    Zn1   S    
