data_mof_unit_31917.cif
_audit_creation_date              2013-03-05T15:50:48-0500
_audit_creation_method            fapswitch 2.2
_symmetry_space_group_name_H-M    P1
_symmetry_Int_Tables_number       1
_space_group_crystal_system       triclinic
_cell_length_a                    14.267623
_cell_length_b                    14.808385
_cell_length_c                    33.218635
_cell_angle_alpha                 98.127631
_cell_angle_beta                  90.116185
_cell_angle_gamma                 118.741487
_cell_volume                      6072.10315013

loop_
_atom_site_label
_atom_site_type_symbol
_atom_site_description
_atom_site_fract_x
_atom_site_fract_y
_atom_site_fract_z
_atom_type_partial_charge
O1    O     O_R   0.318160 0.824460 0.443680 -0.509092
O2    O     O_R   0.525040 0.857250 0.449830 -0.492586
C1    C     C_R   0.617327 0.909916 0.437080 0.578955
O3    O     O_R   0.684760 0.998800 0.456360 -0.485990
O4    O     O_R   0.647540 0.166310 0.470260 -0.509278
C2    C     C_R   0.594265 0.205454 0.456506 0.579933
O5    O     O_R   0.500960 0.181750 0.467450 -0.448664
O6    O     O_R   0.331100 0.981120 0.457080 -0.498146
C3    C     C_R   0.298090 0.893855 0.433867 0.546420
O7    O     O_R   0.315560 0.821140 0.532010 -0.508639
O8    O     O_R   0.522630 0.854180 0.531710 -0.498690
C4    C     C_R   0.613483 0.905521 0.551859 0.555826
O9    O     O_R   0.682160 0.995480 0.544690 -0.505503
O10   O     O_R   0.645130 0.163230 0.552140 -0.493887
C5    C     C_R   0.563177 0.152649 0.572146 0.552316
O11   O     O_R   0.498360 0.178430 0.555780 -0.478948
O12   O     O_R   0.328690 0.978040 0.538950 -0.517688
C6    C     C_R   0.290745 0.887958 0.549291 0.537665
Cr1   Cr    Cr6+3 0.424820 0.846020 0.489780 1.052442
Cr2   Cr    Cr6+3 0.657880 0.078580 0.505700 1.066758
Cr3   Cr    Cr6+3 0.417280 0.075360 0.504550 1.082744
O13   O     O_3   0.499990 0.999990 0.500010 -0.288192
C7    C     C_R   0.726895 0.429502 0.100533 -0.030809
C8    C     C_R   0.627097 0.387082 0.116926 -0.100646
C9    C     C_R   0.612334 0.345102 0.152913 0.036743
C10   C     C_R   0.700656 0.345696 0.172908 -0.032735
C11   C     C_R   0.800090 0.381690 0.154948 0.037035
C12   C     C_R   0.811650 0.423450 0.118814 -0.125863
C13   C     C_R   0.656640 0.231196 0.225964 -0.011058
C14   C     C_R   0.641376 0.216154 0.266730 0.089139
C15   C     C_R   0.669927 0.304741 0.297214 0.002927
C16   C     C_R   0.710104 0.404080 0.286424 -0.120976
C17   C     C_R   0.722394 0.416950 0.245898 -0.086017
C18   C     C_R   0.695384 0.330752 0.215682 0.050500
C19   C     C_R   0.592848 0.322050 0.362928 -0.066420
C20   C     C_R   0.578129 0.305353 0.403485 0.206444
C21   C     C_R   0.710067 0.244909 0.399352 -0.144867
C22   C     C_R   0.725322 0.263896 0.359571 -0.088503
C23   C     C_R   0.662743 0.297114 0.340631 0.016582
C24   C     C_R   0.631930 0.259060 0.420910 0.006386
H1    H     H_    0.560607 0.389057 0.102040 0.204101
H2    H     H_    0.888009 0.454223 0.105438 0.187494
H3    H     H_    0.781791 0.247298 0.342773 0.151399
H4    H     H_    0.634190 0.165238 0.201847 0.167624
H5    H     H_    0.732268 0.471894 0.309562 0.137924
H6    H     H_    0.751864 0.494030 0.237921 0.135750
H7    H     H_    0.548519 0.352647 0.348407 0.163755
H8    H     H_    0.754159 0.211520 0.411993 0.160520
H9    H     H_    0.286890 0.808969 0.168121 0.181615
H10   H     H_    0.196233 0.724772 0.299896 0.133451
H11   H     H_    0.220658 0.724017 0.372845 0.150219
C25   C     C_R   0.259337 0.885069 0.391400 -0.005408
C26   C     C_R   0.272374 0.975535 0.377350 -0.107953
C27   C     C_R   0.264510 0.978739 0.335550 0.079581
C28   C     C_R   0.237176 0.887298 0.307388 0.015466
C29   C     C_R   0.218000 0.795374 0.321374 -0.143314
C30   C     C_R   0.230117 0.794418 0.363017 -0.129724
C31   C     C_R   0.231022 0.832147 0.157383 -0.120850
C32   C     C_R   0.197548 0.809416 0.115742 0.043281
C33   C     C_R   0.085348 0.890498 0.130630 -0.145121
C34   C     C_R   0.119598 0.914107 0.172254 0.056581
C35   C     C_R   0.189945 0.880560 0.185661 -0.004173
C36   C     C_1   0.211018 0.883771 0.228355 0.083724
C37   C     C_1   0.224255 0.884934 0.264243 0.080354
C38   C     C_R   0.119120 0.833890 0.102546 -0.017530
H12   H     H_    0.297112 0.046812 0.398808 0.180190
H13   H     H_    0.025965 0.910011 0.120520 0.177362
H14   H     H_    0.818845 0.004991 0.191005 0.212811
C39   C     C_R   0.636056 0.880120 0.394754 -0.029259
C40   C     C_R   0.547700 0.835307 0.365699 -0.156796
C41   C     C_R   0.562260 0.831771 0.324387 -0.150006
C42   C     C_R   0.665087 0.871305 0.311084 0.010305
C43   C     C_R   0.755049 0.909342 0.339204 0.204763
C44   C     C_R   0.740859 0.913988 0.381573 0.030959
C45   C     C_R   0.762676 0.933717 0.171205 -0.082806
C46   C     C_R   0.773355 0.922529 0.129217 0.025297
C47   C     C_R   0.608922 0.753382 0.120327 0.011780
C48   C     C_R   0.598937 0.766610 0.162861 0.035242
C49   C     C_R   0.680679 0.854166 0.188179 -0.034329
C50   C     C_1   0.679476 0.864947 0.231805 0.102916
C51   C     C_1   0.675186 0.869310 0.268075 0.116804
C52   C     C_R   0.703865 0.825822 0.104157 -0.043255
H15   H     H_    0.467147 0.809670 0.374949 0.151362
H16   H     H_    0.492880 0.800745 0.302702 0.147464
H17   H     H_    0.741163 0.192042 0.617470 0.183122
C53   C     C_R   0.581386 0.173130 0.617255 -0.009041
C54   C     C_R   0.499461 0.167458 0.641717 -0.122706
C55   C     C_R   0.513249 0.177069 0.684032 -0.133986
C56   C     C_R   0.609744 0.194145 0.702841 -0.001628
C57   C     C_R   0.694194 0.201726 0.678697 0.042709
C58   C     C_R   0.677944 0.189388 0.636095 -0.123204
C59   C     C_R   0.691498 0.241362 0.856103 0.076816
C60   C     C_R   0.711158 0.291143 0.897742 0.022939
C61   C     C_R   0.639281 0.400687 0.879216 -0.086740
C62   C     C_R   0.623258 0.354675 0.838781 -0.087529
C63   C     C_R   0.650149 0.276657 0.826714 0.023084
C64   C     C_1   0.635246 0.237799 0.783512 0.075335
C65   C     C_1   0.623131 0.214284 0.746864 0.048103
C66   C     C_R   0.684541 0.371555 0.908881 0.005432
H18   H     H_    0.424304 0.154659 0.628086 0.136034
H19   H     H_    0.591161 0.381765 0.816525 0.135669
H20   H     H_    0.621137 0.463782 0.887071 0.158715
H21   H     H_    0.448766 0.172859 0.702267 0.131394
C67   C     C_R   0.082797 0.761592 0.911453 -0.041046
C68   C     C_R   0.153280 0.868574 0.910155 0.183672
C69   C     C_R   0.197932 0.900147 0.873456 0.208253
C70   C     C_R   0.171639 0.824078 0.838526 -0.051168
C71   C     C_R   0.106866 0.718377 0.840561 -0.160912
C72   C     C_R   0.062395 0.685911 0.876538 0.013761
C73   C     C_R   0.260100 0.818751 0.774904 -0.079711
C74   C     C_R   0.265966 0.825931 0.733612 -0.110525
C75   C     C_R   0.207572 0.864913 0.714839 0.014465
C76   C     C_R   0.149726 0.903822 0.738628 -0.096609
C77   C     C_R   0.144951 0.897716 0.780092 -0.060919
C78   C     C_R   0.197577 0.852403 0.797996 0.070084
C79   C     C_R   0.216102 0.948038 0.653550 -0.108084
C80   C     C_R   0.231201 0.951285 0.612238 -0.120109
C81   C     C_R   0.215824 0.779281 0.603550 -0.104098
C82   C     C_R   0.199630 0.775590 0.644645 -0.097737
C83   C     C_R   0.205707 0.862282 0.670387 0.025672
C84   C     C_R   0.238241 0.869817 0.587588 0.018333
H22   H     H_    0.187592 0.706869 0.656716 0.152855
H23   H     H_    0.313907 0.798489 0.716114 0.152905
H24   H     H_    0.300787 0.783387 0.788523 0.139127
H25   H     H_    0.104173 0.934208 0.724848 0.150244
H26   H     H_    0.095136 0.922529 0.797690 0.147662
H27   H     H_    0.219796 0.015388 0.672716 0.125232
H28   H     H_    0.245934 0.021093 0.600447 0.136889
H29   H     H_    0.086880 0.660904 0.813205 0.162823
H30   H     H_    0.218794 0.714372 0.585125 0.159744
C85   C     C_R   0.655840 0.750307 0.914297 0.000957
C86   C     C_R   0.563957 0.665699 0.891085 0.032528
C87   C     C_R   0.541383 0.672810 0.850717 -0.116348
C88   C     C_R   0.603212 0.764586 0.834641 -0.002687
C89   C     C_R   0.684031 0.851785 0.859607 -0.077586
C90   C     C_R   0.710029 0.844798 0.898819 -0.097681
C91   C     C_R   0.589573 0.853817 0.778561 -0.109215
C92   C     C_R   0.599926 0.867842 0.737915 -0.059597
C93   C     C_R   0.612612 0.796248 0.709232 0.108780
C94   C     C_R   0.610509 0.708235 0.721131 -0.021925
C95   C     C_R   0.600134 0.694201 0.761862 -0.086486
C96   C     C_R   0.592100 0.768229 0.790970 0.023387
C97   C     C_R   0.540326 0.746590 0.636533 0.174383
C98   C     C_R   0.544822 0.772338 0.597542 -0.106528
C99   C     C_R   0.715975 0.927702 0.617156 -0.123036
C100  C     C_R   0.716912 0.900827 0.656035 0.174736
C101  C     C_R   0.625023 0.813060 0.666542 -0.021094
C102  C     C_R   0.628448 0.866044 0.588387 -0.062645
H31   H     H_    0.777926 0.912489 0.916080 0.181339
H32   H     H_    0.599570 0.935180 0.728857 0.131377
H33   H     H_    0.582611 0.911171 0.800577 0.156427
H34   H     H_    0.475499 0.607005 0.831687 0.157913
H35   H     H_    0.619165 0.651985 0.699061 0.136129
H36   H     H_    0.603640 0.628433 0.770998 0.116461
H37   H     H_    0.477101 0.723059 0.575415 0.183196
H38   H     H_    0.732642 0.923455 0.847762 0.164352
H39   H     H_    0.782039 0.998530 0.609737 0.188477
O14   O     O_R   0.828710 0.851830 0.052170 -0.472748
O15   O     O_R   0.005980 0.823990 0.047210 -0.485440
C103  C     C_R   0.054223 0.782352 0.063150 0.584325
O16   O     O_R   0.031900 0.688850 0.050170 -0.481826
O17   O     O_R   0.830940 0.518420 0.048680 -0.499870
C104  C     C_R   0.742610 0.484324 0.065463 0.558767
O18   O     O_R   0.668160 0.499860 0.053480 -0.495233
O19   O     O_R   0.689170 0.693840 0.050110 -0.473815
C105  C     C_R   0.740078 0.790586 0.065639 0.566171
O20   O     O_R   0.803860 0.812940 0.962540 -0.503751
O21   O     O_R   0.982950 0.787950 0.964120 -0.465567
C106  C     C_R   0.022051 0.731840 0.947508 0.583395
O22   O     O_R   0.007050 0.649970 0.960540 -0.449975
O23   O     O_R   0.807910 0.482370 0.965590 -0.481472
C107  C     C_R   0.711443 0.435921 0.949735 0.581804
O24   O     O_R   0.643310 0.460980 0.963840 -0.488286
O25   O     O_R   0.666140 0.657800 0.967020 -0.461263
C108  C     C_R   0.708984 0.740599 0.950728 0.553625
Cr4   Cr    Cr6+3 0.903360 0.812540 0.006510 1.138835
Cr5   Cr    Cr6+3 0.914630 0.587050 0.006280 1.115787
Cr6   Cr    Cr6+3 0.673560 0.582680 0.008540 1.114481
O26   O     O_3   0.830520 0.660760 0.007110 -0.299776
N1    N     N_R   0.509094 0.335331 0.426252 0.091677
O27   O     O_R   0.429038 0.335689 0.407575 -0.277153
O28   O     O_R   0.535543 0.377475 0.464505 -0.286075
C109  C     C_2   0.894728 0.381063 0.173791 0.588121
O29   O     O_2   0.883436 0.323392 0.198491 -0.496366
O30   O     O_R   0.997491 0.445459 0.162509 -0.688222
H40   H     H_    0.055148 0.437802 0.177105 0.356020
C110  C     C_2   0.243255 0.757291 0.087165 0.615964
O31   O     O_2   0.254337 0.773640 0.051945 -0.437814
O32   O     O_R   0.274815 0.690081 0.100711 -0.647877
H41   H     H_    0.301355 0.656657 0.078163 0.382660
C111  C     C_2   0.075740 0.968042 0.201132 0.615212
O33   O     O_2   0.988951 0.961024 0.192456 -0.493716
O34   O     O_R   0.133669 0.027982 0.237986 -0.644771
H42   H     H_    0.095063 0.060497 0.254814 0.384993
C112  C     C_2   0.290930 0.079854 0.322494 0.624767
O35   O     O_2   0.273333 0.143013 0.344261 -0.448636
O36   O     O_R   0.339250 0.104794 0.286124 -0.634666
H43   H     H_    0.355268 0.176679 0.281181 0.367007
C113  C     C_2   0.856018 0.014354 0.112886 0.613457
O37   O     O_2   0.838109 0.032568 0.079786 -0.463950
O38   O     O_R   0.952249 0.083282 0.136305 -0.654153
H44   H     H_    0.001332 0.143655 0.122174 0.356146
N2    N     N_R   0.859489 0.940891 0.324719 0.107019
O39   O     O_R   0.896303 0.007613 0.299460 -0.304501
O40   O     O_R   0.915898 0.899005 0.335203 -0.290338
C114  C     C_2   0.835169 0.956607 0.411711 0.630313
O41   O     O_2   0.828590 0.915731 0.441871 -0.488880
O42   O     O_R   0.931307 0.043678 0.405747 -0.619491
H45   H     H_    0.989426 0.064999 0.428313 0.355921
C115  C     C_2   0.502777 0.690569 0.180865 0.620491
O43   O     O_2   0.513290 0.651344 0.209378 -0.497729
O44   O     O_R   0.400293 0.664385 0.165214 -0.641149
H46   H     H_    0.341384 0.612139 0.179946 0.353021
C116  C     C_2   0.521448 0.663011 0.093053 0.634399
O45   O     O_2   0.490323 0.676360 0.061218 -0.477265
O46   O     O_R   0.476620 0.562792 0.103245 -0.644392
H47   H     H_    0.418661 0.508119 0.082046 0.350661
C117  C     C_2   0.760442 0.261477 0.929359 0.612210
O47   O     O_2   0.834510 0.243998 0.921580 -0.468142
O48   O     O_R   0.722826 0.254780 0.968266 -0.659651
H48   H     H_    0.763254 0.234908 0.987176 0.356893
C118  C     C_2   0.709053 0.150592 0.843627 0.600820
O49   O     O_2   0.677925 0.080565 0.864144 -0.495762
O50   O     O_R   0.760252 0.144642 0.808346 -0.632632
H49   H     H_    0.768057 0.079540 0.803267 0.348942
C119  C     C_2   0.800717 0.224539 0.696447 0.608352
O51   O     O_2   0.811303 0.208604 0.730823 -0.429532
O52   O     O_R   0.889763 0.263934 0.673403 -0.672932
H50   H     H_    0.957826 0.276949 0.688683 0.376935
N3    N     N_R   0.182301 0.944264 0.946527 0.114963
O53   O     O_R   0.234130 0.938587 0.977481 -0.270616
O54   O     O_R   0.139562 0.004950 0.951549 -0.257236
C120  C     C_2   0.988522 0.573080 0.875207 0.592294
O55   O     O_2   0.907806 0.528714 0.851611 -0.529747
O56   O     O_R   0.013732 0.516534 0.899355 -0.621672
H51   H     H_    0.957837 0.439926 0.895171 0.358568
C121  C     C_2   0.591292 0.107548 0.275914 0.594162
O57   O     O_2   0.595427 0.038948 0.251998 -0.535951
O58   O     O_R   0.536458 0.082267 0.311005 -0.683817
H52   H     H_    0.505139 0.005722 0.313314 0.332259
N4    N     N_R   0.271408 0.008057 0.871717 0.102663
O59   O     O_R   0.248713 0.080720 0.886535 -0.239389
O60   O     O_R   0.358695 0.033566 0.853076 -0.313406
C122  C     C_2   0.488812 0.570943 0.907737 0.590232
O61   O     O_2   0.446650 0.485730 0.885723 -0.507567
O62   O     O_R   0.460662 0.579740 0.947831 -0.621420
H53   H     H_    0.407701 0.509865 0.955426 0.358920
N5    N     N_R   0.810407 0.963623 0.684396 0.092180
O63   O     O_R   0.882030 0.055819 0.678067 -0.305860
O64   O     O_R   0.832504 0.924081 0.713214 -0.332111
N6    N     N_R   0.445809 0.656659 0.645660 0.072714
O65   O     O_R   0.397792 0.573186 0.618203 -0.304138
O66   O     O_R   0.398158 0.663032 0.678454 -0.357561
C123  C     C_2   0.505096 0.306889 0.169613 0.595178
O67   O     O_2   0.474705 0.241366 0.192183 -0.500778
O68   O     O_R   0.437270 0.344602 0.158602 -0.656234
H54   H     H_    0.366529 0.312591 0.171565 0.362872

loop_
_geom_bond_atom_site_label_1
_geom_bond_atom_site_label_2
_geom_bond_distance
_ccdc_geom_bond_type
C31   C35   1.398473 A    
O23   C107  1.276336 A    
C122  O62   1.398394 S    
O19   C105  1.278644 A    
C8    H1    1.083610 S    
C113  O38   1.398393 S    
C106  O22   1.265814 A    
C67   C68   1.417836 A    
C62   C63   1.392340 A    
C20   N1    1.437984 S    
C98   C102  1.403624 A    
C19   H7    1.083592 S    
O50   H49   1.013699 S    
C99   C102  1.399411 A    
C11   C109  1.491765 S    
C90   H31   1.083224 S    
H17   C58   1.083033 S    
C92   C93   1.401516 A    
N6    O65   1.301336 A    
O4    Cr2   1.926539 S    
C3    C25   1.479329 S    
C47   C48   1.415760 A    
C122  O61   1.223197 D    
H14   C45   1.084875 S    
C97   C101  1.413023 A    
C43   N2    1.437765 S    
C93   C101  1.470652 S    
C10   C11   1.420866 A    
C35   C36   1.438595 S    
C97   N6    1.439682 S    
O24   Cr6   2.032651 S    
C1    C39   1.477332 S    
C21   C22   1.385674 A    
C76   C77   1.392720 A    
C21   C24   1.408938 A    
C53   C58   1.408005 A    
C109  O30   1.399329 S    
C115  O43   1.223026 D    
C99   C100  1.406022 A    
O4    C2    1.272694 A    
O25   C108  1.279873 A    
C116  O46   1.398669 S    
C95   H36   1.083278 S    
N6    O66   1.301320 A    
C76   H25   1.082911 S    
C69   C70   1.406504 A    
C97   C98   1.394106 A    
C100  N5    1.444275 S    
C59   C63   1.418745 A    
C99   H39   1.082842 S    
C71   C72   1.390745 A    
C85   C86   1.423375 A    
N4    O59   1.300346 A    
C43   C44   1.419088 A    
C12   H2    1.083403 S    
C80   C84   1.404839 A    
C81   C82   1.389320 A    
O52   H50   1.013982 S    
O17   Cr5   1.920138 S    
C123  O68   1.399373 S    
C73   H24   1.083611 S    
C73   C74   1.390280 A    
C86   C122  1.483056 S    
Cr4   O26   1.974476 S    
O58   H52   1.013909 S    
C33   H13   1.084350 S    
N1    O28   1.301514 A    
O42   H45   1.013891 S    
Cr5   O26   1.970704 S    
C79   H27   1.082861 S    
C47   C52   1.429205 A    
C62   H19   1.084609 S    
O56   H51   1.013488 S    
C32   C110  1.483811 S    
C40   C41   1.385812 A    
H11   C30   1.082949 S    
C120  O55   1.222836 D    
C60   C66   1.417729 A    
C42   C51   1.433808 S    
O9    Cr2   2.042224 S    
C94   H35   1.083139 S    
O62   H53   1.013882 S    
C119  O52   1.399219 S    
C55   C56   1.402434 A    
C91   C92   1.392344 A    
C113  O37   1.223130 D    
O44   H46   1.013840 S    
C57   C58   1.405254 A    
Cr3   O13   1.969980 S    
O68   H54   1.013996 S    
C68   N3    1.433976 S    
C17   H6    1.083648 S    
C34   C35   1.411646 A    
C87   H34   1.084107 S    
O23   Cr5   1.917712 S    
C38   C103  1.478348 S    
N5    O63   1.301040 A    
O48   H48   1.013870 S    
N5    O64   1.301349 A    
C47   C116  1.488530 S    
C64   C65   1.206045 T    
C7    C104  1.469679 S    
C28   C37   1.438027 S    
C39   C44   1.422198 A    
O1    Cr1   2.036646 S    
C91   C96   1.403269 A    
C52   C105  1.499858 S    
C100  C101  1.421713 A    
O22   Cr5   2.035281 S    
C74   H23   1.083056 S    
C111  O33   1.222084 D    
Cr6   O26   1.969776 S    
C89   C90   1.384951 A    
Cr1   O13   1.972828 S    
C17   C18   1.395859 A    
C8    C9    1.394658 A    
C85   C90   1.408761 A    
C82   C83   1.403234 A    
C46   C52   1.421575 A    
C75   C83   1.471466 S    
C114  O41   1.223179 D    
C42   C43   1.410101 A    
C66   C107  1.475741 S    
C31   C32   1.402071 A    
C26   C27   1.402125 A    
C13   C18   1.398241 A    
H10   C29   1.083741 S    
C89   H38   1.083277 S    
C36   C37   1.203031 T    
C33   C34   1.403268 A    
N4    O60   1.301523 A    
C19   C20   1.402028 A    
C41   H16   1.084428 S    
C19   C23   1.399726 A    
C45   C46   1.398514 A    
C111  O34   1.397441 S    
C109  O29   1.222662 D    
C13   C14   1.403809 A    
C81   H30   1.083151 S    
O10   Cr2   1.912571 S    
C123  O67   1.222271 D    
C88   C96   1.470356 S    
N2    O40   1.301458 A    
C117  O48   1.398598 S    
O15   C103  1.278024 A    
O10   C5    1.299926 A    
C20   C24   1.417989 A    
O7    Cr1   2.033819 S    
C7    C8    1.399378 A    
O46   H47   1.013785 S    
O8    Cr1   1.919496 S    
C63   C64   1.443425 S    
C22   H3    1.083697 S    
C28   C29   1.401740 A    
O12   C6    1.275291 A    
O6    C3    1.271928 A    
O1    C3    1.273425 A    
C61   C62   1.382353 A    
C16   H5    1.083783 S    
C7    C12   1.398473 A    
C94   C95   1.395179 A    
C21   H8    1.083206 S    
N3    O54   1.300869 A    
C40   H15   1.083634 S    
C120  O56   1.397287 S    
C70   C78   1.462176 S    
C71   H29   1.085488 S    
C88   C89   1.395061 A    
C5    C53   1.482896 S    
O14   Cr4   2.031372 S    
O21   C106  1.274173 A    
Cr2   O13   1.969672 S    
C33   C38   1.405124 A    
O34   H42   1.013874 S    
C115  O44   1.397631 S    
O15   Cr4   1.920616 S    
C121  O58   1.398707 S    
C13   H4    1.084098 S    
C87   C88   1.401627 A    
C70   C71   1.395594 A    
C2    C24   1.474722 S    
C49   C50   1.436402 S    
C29   C30   1.396624 A    
C14   C121  1.491539 S    
O16   Cr5   2.034845 S    
C1    O3    1.268684 A    
C55   H21   1.083974 S    
O18   Cr6   2.041063 S    
C107  O24   1.265636 A    
O14   C105  1.279021 A    
O20   C108  1.272129 A    
C54   H18   1.081263 S    
C44   C114  1.486725 S    
C82   H22   1.083249 S    
O32   H41   1.012906 S    
O21   Cr4   1.914188 S    
O25   Cr6   1.922871 S    
C27   C28   1.411847 A    
C118  O50   1.396808 S    
C67   C106  1.471719 S    
C27   C112  1.487856 S    
C74   C75   1.406585 A    
C10   C18   1.465215 S    
O2    Cr1   1.916987 S    
C53   C54   1.400841 A    
C57   C119  1.489280 S    
C15   C16   1.399992 A    
C91   H33   1.082526 S    
C72   C120  1.479824 S    
C50   C51   1.200695 T    
C46   C113  1.484302 S    
O6    Cr3   1.914588 S    
C93   C94   1.401387 A    
O11   Cr3   2.030624 S    
C77   C78   1.401169 A    
C2    O5    1.271309 A    
O17   C104  1.274547 A    
C68   C69   1.410161 A    
O30   H40   1.014045 S    
O38   H44   1.013858 S    
C56   C65   1.443855 S    
C103  O16   1.269255 A    
C4    C102  1.476234 S    
C98   H37   1.083386 S    
C59   C118  1.485904 S    
O2    C1    1.276492 A    
C9    C10   1.418989 A    
O19   Cr6   1.915612 S    
N3    O53   1.300892 A    
C48   C115  1.488623 S    
C26   H12   1.083830 S    
C95   C96   1.404076 A    
C16   C17   1.385900 A    
O5    Cr3   2.042635 S    
C48   C49   1.407848 A    
C14   C15   1.421631 A    
C117  O47   1.223022 D    
C22   C23   1.393767 A    
C61   C66   1.399896 A    
O7    C6    1.269270 A    
C77   H26   1.083506 S    
C116  O45   1.223194 D    
C9    C123  1.492826 S    
C85   C108  1.486786 S    
C59   C60   1.430586 A    
C15   C23   1.462518 S    
C79   C80   1.393496 A    
C86   C87   1.408488 A    
C75   C76   1.403162 A    
C92   H32   1.083795 S    
O36   H43   1.013888 S    
C118  O49   1.222813 D    
C80   H28   1.082622 S    
C39   C40   1.403756 A    
C110  O32   1.397363 S    
C104  O18   1.264477 A    
C25   C30   1.402531 A    
H9    C31   1.084896 S    
C6    C84   1.469240 S    
C112  O35   1.223112 D    
O3    Cr2   2.029764 S    
C79   C83   1.402700 A    
C41   C42   1.392893 A    
C4    O9    1.275441 A    
C61   H20   1.082610 S    
C54   C55   1.396502 A    
C119  O51   1.221591 D    
C11   C12   1.401063 A    
C34   C111  1.488662 S    
C67   C72   1.415370 A    
C60   C117  1.488316 S    
C110  O31   1.223278 D    
C69   N4    1.439134 S    
N2    O39   1.301258 A    
C56   C57   1.416668 A    
C121  O57   1.223210 D    
C114  O42   1.398450 S    
C45   C49   1.392633 A    
C73   C78   1.398130 A    
C81   C84   1.403646 A    
C32   C38   1.417252 A    
N1    O27   1.301347 A    
C5    O11   1.301044 A    
O8    C4    1.269288 A    
C25   C26   1.408774 A    
O20   Cr4   2.037382 S    
C112  O36   1.398579 S    
O12   Cr3   1.923548 S    
