data_mof_unit_61379.cif
_audit_creation_date              2012-12-10T21:01:47-0500
_audit_creation_method            fapswitch 2.2
_symmetry_space_group_name_H-M    P1
_symmetry_Int_Tables_number       1
_space_group_crystal_system       triclinic
_cell_length_a                    15.738742
_cell_length_b                    15.838312
_cell_length_c                    15.078983
_cell_angle_alpha                 90.650846
_cell_angle_beta                  90.023749
_cell_angle_gamma                 89.991343
_cell_volume                      3758.57221801

loop_
_atom_site_label
_atom_site_type_symbol
_atom_type_description
_atom_site_fract_x
_atom_site_fract_y
_atom_site_fract_z
_atom_type_partial_charge
C1    C     C_R   0.500053 0.338870 0.499474 0.896144
C2    C     C_1   0.497271 0.749489 0.501843 -0.164064
C3    C     C_R   0.498041 0.423008 0.952976 0.190685
C4    C     C_R   0.501150 0.576991 0.047023 0.190520
C5    C     C_R   0.499725 0.499080 0.904985 -0.013233
C6    C     C_R   0.499720 0.500915 0.095014 -0.013251
C7    C     C_R   0.501216 0.575634 0.953285 -0.226862
C8    C     C_R   0.498116 0.424363 0.046715 -0.226750
C9    C     C_1   0.499894 0.499643 0.807111 0.131576
C10   C     C_1   0.499859 0.500353 0.192889 0.131467
C11   C     C_R   0.337417 0.499986 0.499957 0.903939
C12   C     C_R   0.499992 0.661130 0.500525 0.896142
C13   C     C_R   0.662584 0.500014 0.500043 0.907672
C14   C     C_3   0.971963 0.429467 0.539138 -0.160388
C15   C     C_3   0.028042 0.570540 0.460862 -0.161677
C16   C     C_3   0.028049 0.431782 0.454986 -0.162387
C17   C     C_3   0.971956 0.568225 0.545014 -0.161625
C18   C     C_1   0.248520 0.499986 0.499902 -0.175035
C19   C     C_1   0.751482 0.500016 0.500098 -0.169772
C20   C     C_3   0.028177 0.497682 0.584091 -0.158330
C21   C     C_3   0.971828 0.502325 0.415909 -0.156258
C22   C     C_3   0.082467 0.499997 0.499940 0.199641
C23   C     C_R   0.490273 0.913149 0.502426 0.000665
C24   C     C_3   0.917537 0.500010 0.500061 0.199565
C25   C     C_1   0.173264 0.499989 0.499897 -0.072812
C26   C     C_1   0.826740 0.500016 0.500103 -0.068802
C27   C     C_R   0.487512 0.958340 0.582724 0.513129
C28   C     C_R   0.487815 0.041665 0.417247 0.513144
C29   C     C_3   0.433614 0.945319 0.726266 0.070690
C30   C     C_3   0.481772 0.984332 0.804937 -0.325006
C31   C     C_3   0.420929 0.020738 0.874237 -0.927511
C32   C     C_3   0.434223 0.054863 0.273575 0.070257
C33   C     C_3   0.482386 0.015846 0.194947 -0.323997
C34   C     C_R   0.490327 0.086856 0.497552 0.000686
C35   C     C_3   0.421541 0.979834 0.125384 -0.928608
C36   C     C_R   0.490245 0.953508 0.420677 -0.388978
C37   C     C_R   0.489999 0.046500 0.579302 -0.389192
C38   C     C_1   0.494149 0.824284 0.502710 0.050003
C39   C     C_1   0.494226 0.175720 0.497278 0.049947
C40   C     C_1   0.497349 0.250513 0.498152 -0.164055
H1    H     H_    0.053167 0.376034 0.418198 0.140110
H2    H     H_    0.502389 0.634842 0.918047 0.169770
H3    H     H_    0.396689 0.890470 0.750588 0.167224
H4    H     H_    0.385743 0.990641 0.699965 0.124193
H5    H     H_    0.521892 0.935144 0.836205 0.236393
H6    H     H_    0.524281 0.035437 0.781690 0.231931
H7    H     H_    0.380874 0.070866 0.844677 0.275872
H8    H     H_    0.457915 0.048937 0.929856 0.280677
H9    H     H_    0.379429 0.970232 0.900756 0.263027
H10   H     H_    0.397416 0.109823 0.249269 0.167183
H11   H     H_    0.386258 0.009589 0.299713 0.123888
H12   H     H_    0.946840 0.623973 0.581803 0.142019
H13   H     H_    0.522738 0.064953 0.163920 0.236495
H14   H     H_    0.524665 0.964522 0.218193 0.232063
H15   H     H_    0.381260 0.929784 0.154698 0.275146
H16   H     H_    0.458528 0.951633 0.069792 0.280666
H17   H     H_    0.380263 0.030560 0.098890 0.263267
H18   H     H_    0.946852 0.371829 0.571126 0.142359
H19   H     H_    0.053155 0.628178 0.428875 0.140920
H20   H     H_    0.946606 0.504222 0.347193 0.143942
H21   H     H_    0.053400 0.495784 0.652807 0.143215
H22   H     H_    0.493077 0.083873 0.639777 0.179600
H23   H     H_    0.493511 0.916148 0.360204 0.179593
H24   H     H_    0.496882 0.365157 0.081953 0.169640
I1    I     I_    0.495179 0.303877 0.887329 -0.405080
I2    I     I_    0.503021 0.696140 0.112672 -0.403948
N1    N     N_1   0.499980 0.500020 0.270550 -0.080363
N2    N     N_1   0.500020 0.499980 0.729450 -0.080348
O1    O     O_R   0.500000 0.378020 0.573650 -0.599281
O2    O     O_3   0.492861 0.085291 0.337792 -0.634327
O3    O     O_R   0.500000 0.621980 0.426350 -0.599311
O4    O     O_R   0.500040 0.378020 0.426320 -0.608603
O5    O     O_R   0.499960 0.621980 0.573680 -0.608592
O6    O     O_R   0.376760 0.499990 0.573650 -0.609986
O7    O     O_R   0.623240 0.500010 0.426350 -0.608119
O8    O     O_R   0.376800 0.499990 0.426320 -0.610271
O9    O     O_R   0.623200 0.500010 0.573680 -0.608410
O10   O     O_3   0.492253 0.914688 0.662196 -0.634451
Zn1   Zn    Zn3+2 0.499970 0.500000 0.598370 1.002322
Zn2   Zn    Zn3+2 0.500030 0.500000 0.401630 1.002297

loop_
_geom_bond_atom_site_label_1
_geom_bond_atom_site_label_2
_ccdc_geom_bond_type
C11   C18   S    
C16   C21   S    
C34   C37   A    
C30   H5    S    
C27   O10   S    
C2    C12   S    
C37   H22   S    
C10   N1    T    
C24   C26   S    
C11   O8    A    
C30   C31   S    
C17   C20   S    
C7    H2    S    
C14   C24   S    
C20   H21   S    
C19   C26   T    
C1    C40   S    
C15   C22   S    
C29   O10   S    
C13   O7    A    
C22   C25   S    
C23   C27   A    
C36   H23   S    
O7    Zn2   S    
N2    Zn1   S    
C28   C34   A    
C31   H7    S    
C12   O5    A    
C29   H3    S    
C3    I1    S    
C18   C25   T    
C31   H9    S    
C4    C7    A    
O6    Zn1   S    
C17   H12   S    
O3    Zn2   S    
O9    Zn1   S    
C33   H13   S    
C14   H18   S    
C13   O9    A    
C17   C24   S    
C13   C19   S    
C35   H15   S    
C34   C39   S    
C1    O4    A    
C14   C20   S    
C21   H20   S    
C4    C6    A    
C3    C8    A    
C39   C40   T    
C5    C7    A    
C32   O2    S    
C1    O1    A    
C32   H11   S    
C5    C9    S    
C29   C30   S    
C2    C38   T    
O5    Zn1   S    
C32   H10   S    
C8    H24   S    
C12   O3    A    
C20   C22   S    
C31   H8    S    
C29   H4    S    
C14   C16   S    
O1    Zn1   S    
C33   H14   S    
C15   C17   S    
C16   C22   S    
C35   H16   S    
C15   H19   S    
C30   H6    S    
C28   O2    S    
N1    Zn2   S    
O8    Zn2   S    
C3    C5    A    
C11   O6    A    
C6    C10   S    
C6    C8    A    
C23   C38   S    
C35   H17   S    
C32   C33   S    
C9    N2    T    
O4    Zn2   S    
C4    I2    S    
C27   C37   A    
C33   C35   S    
C15   C21   S    
C28   C36   A    
C23   C36   A    
C21   C24   S    
C16   H1    S    
