data_mof_unit_10628.cif
_audit_creation_date              2012-12-11T15:18:41-0500
_audit_creation_method            fapswitch 2.2
_symmetry_space_group_name_H-M    P1
_symmetry_Int_Tables_number       1
_space_group_crystal_system       triclinic
_cell_length_a                    6.928282
_cell_length_b                    19.921349
_cell_length_c                    23.76628
_cell_angle_alpha                 93.231923
_cell_angle_beta                  91.424286
_cell_angle_gamma                 88.513632
_cell_volume                      3273.0205826

loop_
_atom_site_label
_atom_site_type_symbol
_atom_type_description
_atom_site_fract_x
_atom_site_fract_y
_atom_site_fract_z
_atom_type_partial_charge
O1    O     O_R   0.620100 0.812200 0.810870 -0.525287
O2    O     O_R   0.379900 0.187800 0.189130 -0.526620
O3    O     O_R   0.296960 0.671650 0.794750 -0.536755
O4    O     O_R   0.703040 0.328350 0.205250 -0.543295
O5    O     O_R   0.120160 0.687800 0.689130 -0.548808
O6    O     O_R   0.879840 0.312200 0.310870 -0.526676
C1    C     C_R   0.468310 0.647263 0.805467 0.715120
C2    C     C_R   0.531835 0.351491 0.193065 0.756811
O7    O     O_R   0.290810 0.810670 0.817290 -0.523709
O8    O     O_R   0.709190 0.189330 0.182710 -0.521161
O9    O     O_R   0.113980 0.827820 0.711840 -0.545752
O10   O     O_R   0.886020 0.172180 0.288160 -0.539028
C3    C     C_R   0.459393 0.831979 0.833944 0.703871
C4    C     C_R   0.540532 0.168323 0.165800 0.693840
O11   O     O_R   0.626290 0.672180 0.788160 -0.542025
O12   O     O_R   0.373710 0.327820 0.211840 -0.537623
O13   O     O_3   0.451520 0.755460 0.715370 -0.380556
O14   O     O_3   0.548480 0.244540 0.284630 -0.368716
V1    V     V_3+5 0.179200 0.748980 0.756420 1.446699
V2    V     V_3+5 0.820800 0.251020 0.243580 1.491674
O15   O     O_R   0.783880 0.828350 0.705250 -0.539070
O16   O     O_R   0.216120 0.171650 0.294750 -0.545975
C5    C     C_R   0.948918 0.853124 0.695501 0.748079
C6    C     C_R   0.050972 0.146887 0.304893 0.731705
O17   O     O_R   0.790030 0.689320 0.682700 -0.546997
O18   O     O_R   0.209970 0.310680 0.317300 -0.545591
C7    C     C_R   0.959351 0.669126 0.665179 0.719452
C8    C     C_R   0.041102 0.332116 0.334082 0.741207
V3    V     V_3+5 0.678400 0.751010 0.743570 1.422336
V4    V     V_3+5 0.321600 0.248990 0.256430 1.458370
O19   O     O_3   0.955950 0.744540 0.784620 -0.354087
O20   O     O_3   0.044050 0.255460 0.215380 -0.358008
C9    C     C_R   0.141414 0.438968 0.385452 -0.283221
C10   C     C_R   0.859644 0.563361 0.612953 -0.291973
C11   C     C_R   0.031292 0.380936 0.383773 -0.125426
C12   C     C_R   0.971814 0.620755 0.615410 -0.153991
C13   C     C_R   0.905355 0.371176 0.427860 0.320214
C14   C     C_R   0.099994 0.630611 0.571586 0.311887
C15   C     C_R   0.904079 0.416649 0.476512 -0.051281
C16   C     C_R   0.111596 0.583527 0.524447 -0.016909
C17   C     C_R   0.010506 0.476566 0.476732 -0.076356
C18   C     C_R   0.999778 0.524622 0.523227 -0.096334
C19   C     C_R   0.129068 0.488009 0.430688 0.032968
C20   C     C_R   0.877280 0.513635 0.568597 0.027764
C21   C     C_R   0.805383 0.402246 0.525701 0.228171
C22   C     C_R   0.232632 0.593735 0.478559 0.260533
C23   C     C_R   0.779513 0.452190 0.569443 0.235905
C24   C     C_R   0.233652 0.548137 0.431104 0.213914
H1    H     H_    0.232077 0.445993 0.349987 0.153255
H2    H     H_    0.762375 0.557465 0.647109 0.140215
C25   C     C_R   0.941932 0.914675 0.663919 -0.153807
C26   C     C_R   0.061439 0.085889 0.337755 -0.147411
C27   C     C_R   0.784760 0.024177 0.656447 0.313749
C28   C     C_R   0.247234 0.983662 0.353825 0.306434
C29   C     C_R   0.841719 0.969975 0.688089 -0.294544
C30   C     C_R   0.192334 0.035608 0.319770 -0.298907
C31   C     C_R   0.994012 0.914272 0.606869 0.219034
C32   C     C_R   0.969376 0.081401 0.389799 0.229106
C33   C     C_R   0.966309 0.973983 0.576278 -0.047347
C34   C     C_R   0.041700 0.033892 0.429401 -0.035776
C35   C     C_R   0.849685 0.027674 0.600390 0.008380
C36   C     C_R   0.185679 0.985246 0.410463 -0.003097
C37   C     C_R   0.044594 0.980457 0.521550 0.031571
C38   C     C_R   0.980301 0.033223 0.487130 0.041424
C39   C     C_R   0.870993 0.086125 0.513456 -0.257743
C40   C     C_R   0.201899 0.939986 0.503313 -0.229335
C41   C     C_R   0.802291 0.083536 0.568211 0.345846
C42   C     C_R   0.272599 0.941433 0.448993 0.350081
H3    H     H_    0.254876 0.037228 0.278481 0.143023
H4    H     H_    0.791692 0.968341 0.730885 0.149213
H5    H     H_    0.849681 0.133451 0.494557 0.176705
H6    H     H_    0.281307 0.909568 0.532578 0.158251
C43   C     C_R   0.483292 0.583909 0.835605 -0.152432
C44   C     C_R   0.523992 0.414405 0.162249 -0.142543
C45   C     C_R   0.482447 0.461344 0.834786 0.309746
C46   C     C_R   0.547578 0.536374 0.164192 0.275703
C47   C     C_R   0.458595 0.521426 0.806179 0.198391
C48   C     C_R   0.531711 0.476464 0.192568 0.243694
C49   C     C_R   0.513810 0.586186 0.894231 -0.241016
C50   C     C_R   0.531384 0.412135 0.103222 -0.269393
C51   C     C_R   0.548083 0.526888 0.924123 -0.013467
C52   C     C_R   0.565406 0.470579 0.073271 0.004038
C53   C     C_R   0.536740 0.463648 0.893368 -0.063862
C54   C     C_R   0.572096 0.533876 0.104394 -0.069954
C55   C     C_R   0.584832 0.528673 0.984133 -0.094698
C56   C     C_R   0.585493 0.467951 0.012953 -0.088491
C57   C     C_R   0.618948 0.406996 0.980247 0.247100
C58   C     C_R   0.630621 0.588514 0.016398 0.265554
C59   C     C_R   0.587077 0.404323 0.921235 0.364618
C60   C     C_R   0.613390 0.592202 0.075535 0.349825
H7    H     H_    0.509400 0.363808 0.081468 0.172945
H8    H     H_    0.505132 0.635253 0.915802 0.172799
C61   C     C_R   0.667102 0.065771 0.110335 0.386025
C62   C     C_R   0.335903 0.936817 0.887095 0.341037
C63   C     C_R   0.530731 0.119770 0.115888 -0.313280
C64   C     C_R   0.469736 0.881897 0.882816 -0.292494
C65   C     C_R   0.384921 0.127320 0.073749 0.388382
C66   C     C_R   0.616601 0.875665 0.924795 0.337967
C67   C     C_R   0.365570 0.077981 0.028587 0.035203
C68   C     C_R   0.643266 0.928076 0.966871 -0.021643
C69   C     C_R   0.509683 0.026388 0.021382 -0.191522
C70   C     C_R   0.498112 0.979053 0.974413 -0.148775
C71   C     C_R   0.665969 0.022243 0.060984 -0.002643
C72   C     C_R   0.340403 0.982136 0.935337 0.030482
C73   C     C_R   0.208195 0.080663 0.989409 0.311927
C74   C     C_R   0.809303 0.929119 0.003048 0.274089
C75   C     C_R   0.190873 0.030851 0.944776 0.278307
C76   C     C_R   0.817858 0.974338 0.050868 0.375636
O21   O     O_3   0.620393 0.344975 0.889437 -0.620446
H9    H     H_    0.626828 0.306376 0.913946 0.336800
O22   O     O_3   0.652801 0.651595 0.106078 -0.640795
H10   H     H_    0.647104 0.689813 0.081141 0.342592
N1    N     N_2   0.513188 0.478728 0.252178 -0.535565
H11   H     H_    0.427266 0.517350 0.268636 0.278444
C77   C     C_3   0.687523 0.465476 0.285139 -0.539562
H12   H     H_    0.734590 0.512213 0.308626 0.182384
H13   H     H_    0.808190 0.445970 0.258361 0.194912
H14   H     H_    0.656773 0.427793 0.316144 0.207661
N2    N     N_2   0.405279 0.518358 0.747728 -0.536886
H15   H     H_    0.476158 0.551643 0.724278 0.244359
C78   C     C_3   0.198856 0.519250 0.736358 -0.547492
H16   H     H_    0.170015 0.514116 0.690236 0.188720
H17   H     H_    0.131214 0.567206 0.752837 0.205412
H18   H     H_    0.130249 0.477102 0.756064 0.208296
N3    N     N_2   0.450675 0.398647 0.804179 -0.466242
H19   H     H_    0.485949 0.395891 0.762187 0.279005
C79   C     C_3   0.274310 0.364834 0.815970 -0.432353
H20   H     H_    0.309650 0.311823 0.824998 0.225230
H21   H     H_    0.174563 0.364643 0.778673 0.165855
H22   H     H_    0.198864 0.389260 0.852807 0.185983
N4    N     N_2   0.532663 0.598472 0.196874 -0.515428
H23   H     H_    0.440496 0.635362 0.182215 0.283796
C80   C     C_3   0.703847 0.620714 0.228168 -0.450794
H24   H     H_    0.752568 0.668707 0.212398 0.219932
H25   H     H_    0.824617 0.582957 0.224413 0.191009
H26   H     H_    0.668916 0.629470 0.273330 0.178280
O23   O     O_3   0.707302 0.351594 0.003201 -0.651626
H27   H     H_    0.797515 0.367822 0.033758 0.305172
O24   O     O_3   0.718416 0.641277 0.992764 -0.645444
H28   H     H_    0.800579 0.622412 0.961832 0.303474
O25   O     O_3   0.799805 0.053596 0.153249 -0.590549
H29   H     H_    0.740677 0.066122 0.190002 0.276224
O26   O     O_3   0.202294 0.948087 0.844211 -0.598911
H30   H     H_    0.258883 0.933252 0.807591 0.280468
O27   O     O_3   0.261058 0.182921 0.075753 -0.580965
H31   H     H_    0.332321 0.222503 0.091375 0.280951
O28   O     O_3   0.729103 0.817419 0.927496 -0.608741
H32   H     H_    0.656638 0.778850 0.910492 0.295324
O29   O     O_3   0.070408 0.131819 0.995488 -0.597690
H33   H     H_    0.020685 0.143107 0.957629 0.302953
O30   O     O_3   0.969929 0.888786 0.991294 -0.624572
H34   H     H_    0.991602 0.889078 0.950233 0.347371
O31   O     O_3   0.024922 0.027574 0.911253 -0.612942
H35   H     H_    0.913364 0.044546 0.933651 0.289279
O32   O     O_3   0.979276 0.975407 0.086521 -0.599192
H36   H     H_    0.069174 0.937417 0.076672 0.332114
O33   O     O_3   0.783430 0.317434 0.421778 -0.640007
H37   H     H_    0.655519 0.332981 0.435894 0.303604
O34   O     O_3   0.202901 0.688796 0.572802 -0.637073
H38   H     H_    0.298476 0.686007 0.604322 0.297448
N5    N     N_2   0.757845 0.334614 0.535045 -0.507751
H39   H     H_    0.635523 0.328976 0.557965 0.285168
C81   C     C_3   0.921016 0.294879 0.554882 -0.465695
H40   H     H_    0.879109 0.242067 0.557709 0.202951
H41   H     H_    0.970424 0.314725 0.597324 0.191174
H42   H     H_    0.042243 0.295486 0.525172 0.197557
N6    N     N_2   0.358756 0.649324 0.480179 -0.457370
H43   H     H_    0.359609 0.674840 0.443646 0.281362
C82   C     C_3   0.551274 0.634164 0.501691 -0.477409
H44   H     H_    0.635682 0.680887 0.505677 0.188537
H45   H     H_    0.626480 0.597070 0.472609 0.191431
H46   H     H_    0.544403 0.613545 0.544026 0.199153
N7    N     N_2   0.663630 0.437282 0.615616 -0.525565
H47   H     H_    0.719211 0.450155 0.655266 0.261339
C83   C     C_3   0.460565 0.453921 0.607995 -0.558016
H48   H     H_    0.436856 0.509385 0.610224 0.192483
H49   H     H_    0.378301 0.431892 0.641594 0.220994
H50   H     H_    0.405023 0.432650 0.566641 0.199507
N8    N     N_2   0.340146 0.565095 0.383773 -0.527976
H51   H     H_    0.433108 0.528091 0.367861 0.262274
C84   C     C_3   0.226814 0.599864 0.341920 -0.590992
H52   H     H_    0.126816 0.564642 0.318889 0.192967
H53   H     H_    0.324336 0.621046 0.311510 0.212363
H54   H     H_    0.141536 0.642303 0.362064 0.205516
O35   O     O_3   0.690650 0.136370 0.590881 -0.621955
H55   H     H_    0.639992 0.164156 0.560217 0.286648
O36   O     O_3   0.433200 0.902319 0.433926 -0.624200
H56   H     H_    0.474423 0.873992 0.465270 0.284325
N9    N     N_2   0.799826 0.121554 0.400194 -0.541900
H57   H     H_    0.803643 0.170464 0.388408 0.281614
C85   C     C_3   0.621769 0.088601 0.384297 -0.471747
H58   H     H_    0.613138 0.078270 0.337869 0.186731
H59   H     H_    0.497182 0.121604 0.397257 0.188747
H60   H     H_    0.612755 0.040673 0.405744 0.223884
N10   N     N_2   0.045237 0.851671 0.578253 -0.525796
H61   H     H_    0.126461 0.818915 0.601763 0.275942
C86   C     C_3   0.887604 0.819595 0.547035 -0.493496
H62   H     H_    0.943159 0.774352 0.522596 0.224877
H63   H     H_    0.819994 0.854311 0.516862 0.202732
H64   H     H_    0.777053 0.803965 0.576437 0.178649
N11   N     N_2   0.655590 0.073438 0.681238 -0.450643
H65   H     H_    0.686853 0.085577 0.723204 0.257664
C87   C     C_3   0.453787 0.058071 0.671749 -0.451079
H66   H     H_    0.362317 0.100622 0.688919 0.202260
H67   H     H_    0.418165 0.011970 0.693254 0.163066
H68   H     H_    0.419955 0.050381 0.625900 0.208032
N12   N     N_2   0.370772 0.931287 0.330913 -0.459388
H69   H     H_    0.463729 0.946304 0.301033 0.246731
C88   C     C_3   0.271093 0.870779 0.312332 -0.448085
H70   H     H_    0.378035 0.831249 0.298281 0.190217
H71   H     H_    0.170529 0.881019 0.276481 0.179585
H72   H     H_    0.188603 0.851637 0.347338 0.207943

loop_
_geom_bond_atom_site_label_1
_geom_bond_atom_site_label_2
_ccdc_geom_bond_type
C6    C26   S    
C40   C42   A    
C87   H66   S    
C69   C70   A    
N11   C87   S    
C17   C18   A    
O28   H32   S    
O4    C2    A    
V1    O19   S    
C46   C54   A    
C85   H59   S    
N5    H39   S    
O35   H55   S    
C1    C43   S    
N4    C80   S    
C55   C56   A    
C16   C22   A    
C87   H67   S    
O9    V1    S    
O33   H37   S    
C54   C60   A    
C31   N10   S    
C62   O26   S    
C81   H41   S    
C46   C48   A    
C14   O34   S    
O3    C1    A    
O34   H38   S    
O27   H31   S    
C46   N4    S    
C31   C33   A    
C66   O28   S    
C28   N12   S    
O12   V4    S    
O26   H30   S    
C59   O21   S    
C88   H72   S    
O13   V3    S    
C34   C36   A    
C82   H44   S    
C21   C23   A    
C13   O33   S    
C86   H63   S    
O7    C3    A    
C78   H18   S    
C21   N5    S    
C9    C11   A    
O5    C7    A    
C27   C35   A    
O7    V1    S    
C40   H6    S    
C81   H40   S    
C8    C11   S    
O8    V2    S    
C39   C41   A    
C57   C59   A    
C64   C66   A    
C80   H26   S    
O30   H34   S    
O3    V1    S    
C71   C76   A    
C25   C31   A    
V4    O20   S    
O16   V4    S    
C19   C24   A    
C10   C12   A    
C20   C23   A    
C15   C21   A    
N2    C78   S    
C37   C40   A    
C62   C72   A    
C2    O12   A    
C44   C50   A    
C16   C18   A    
C17   C19   A    
C61   C71   A    
N9    H57   S    
O25   H29   S    
C18   C20   A    
C60   O22   S    
C57   O23   S    
C67   C73   A    
C68   C70   A    
N5    C81   S    
C34   C38   A    
O11   V3    S    
C83   H50   S    
C22   C24   A    
C73   O29   S    
C27   C29   A    
O17   V3    S    
C53   C59   A    
C87   H68   S    
O6    C8    A    
C10   H2    S    
C33   C35   A    
C22   N6    S    
C3    C64   S    
C85   H58   S    
C9    C19   A    
C81   H42   S    
C10   C20   A    
C42   O36   S    
C83   H49   S    
O8    C4    A    
C84   H53   S    
N6    H43   S    
C49   C51   A    
C56   C57   A    
O13   V1    S    
C1    O11   A    
C28   C36   A    
C25   C29   A    
C77   H13   S    
N7    H47   S    
O15   V3    S    
C27   N11   S    
N12   H69   S    
N6    C82   S    
N1    C77   S    
C45   N3    S    
C84   H52   S    
C86   H64   S    
C70   C72   A    
N10   C86   S    
C79   H21   S    
C58   O24   S    
C32   C34   A    
C13   C15   A    
C80   H24   S    
C73   C75   A    
C35   C41   A    
C5    C25   S    
C83   H48   S    
C77   H12   S    
N2    H15   S    
C77   H14   S    
O10   V2    S    
C32   N9    S    
C2    C44   S    
C88   H70   S    
C43   C49   A    
C23   N7    S    
C62   C64   A    
C45   C47   A    
C78   H16   S    
C75   O31   S    
N7    C83   S    
C26   C32   A    
O14   V4    S    
C50   C52   A    
C67   C69   A    
C58   C60   A    
C41   O35   S    
O18   V4    S    
C52   C54   A    
O15   C5    A    
N3    H19   S    
C7    C12   S    
C82   H46   S    
O16   C6    A    
C33   C37   A    
C48   N1    S    
O1    C3    A    
N4    H23   S    
C4    C63   S    
C78   H17   S    
C61   O25   S    
N3    C79   S    
N1    H11   S    
V2    O20   S    
C55   C58   A    
C49   H8    S    
C65   C67   A    
C74   O30   S    
C84   H54   S    
O22   H10   S    
C11   C13   A    
C65   O27   S    
N12   C88   S    
C37   C38   A    
C47   N2    S    
C51   C53   A    
O24   H28   S    
C63   C65   A    
C28   C30   A    
O5    V1    S    
C68   C74   A    
O17   C7    A    
O6    V2    S    
O23   H27   S    
O10   C6    A    
O18   C8    A    
N11   H65   S    
C36   C42   A    
O2    V4    S    
C38   C39   A    
C50   H7    S    
C12   C14   A    
C79   H22   S    
O36   H56   S    
V3    O19   S    
C52   C56   A    
O29   H33   S    
C14   C16   A    
C45   C53   A    
O1    V3    S    
C61   C63   A    
C76   O32   S    
C74   C76   A    
O9    C5    A    
C88   H71   S    
O14   V2    S    
C24   N8    S    
C86   H62   S    
O2    C4    A    
C66   C68   A    
C85   H60   S    
C29   H4    S    
N10   H61   S    
O4    V2    S    
C26   C30   A    
C39   H5    S    
C15   C17   A    
C69   C71   A    
C30   H3    S    
C44   C48   A    
O32   H36   S    
C80   H25   S    
N8    H51   S    
C43   C47   A    
N9    C85   S    
O31   H35   S    
O21   H9    S    
C9    H1    S    
C72   C75   A    
C51   C55   A    
C79   H20   S    
N8    C84   S    
C82   H45   S    
