data_mof_unit_60742.cif
_audit_creation_date              2012-12-10T17:13:15-0500
_audit_creation_method            fapswitch 2.2
_symmetry_space_group_name_H-M    P1
_symmetry_Int_Tables_number       1
_space_group_crystal_system       triclinic
_cell_length_a                    11.686759
_cell_length_b                    13.022299
_cell_length_c                    13.884021
_cell_angle_alpha                 88.925855
_cell_angle_beta                  91.758418
_cell_angle_gamma                 100.078125
_cell_volume                      2079.2128692

loop_
_atom_site_label
_atom_site_type_symbol
_atom_type_description
_atom_site_fract_x
_atom_site_fract_y
_atom_site_fract_z
_atom_type_partial_charge
C1    C     C_R   0.478360 0.298978 0.501293 0.881119
C2    C     C_R   0.521640 0.701022 0.498707 0.881118
C3    C     C_R   0.555524 0.031771 0.498153 -0.161626
C4    C     C_R   0.444476 0.968228 0.501846 -0.161626
C5    C     C_R   0.032376 0.400998 0.589715 0.668033
C6    C     C_R   0.967623 0.599001 0.410285 0.668033
C7    C     C_R   0.153207 0.410870 0.580825 -0.067496
C8    C     C_R   0.846793 0.589130 0.419175 -0.067496
C9    C     C_R   0.152830 0.542797 0.460998 0.848482
C10   C     C_R   0.847170 0.457203 0.539002 0.848482
C11   C     C_R   0.030549 0.536040 0.467274 -0.352970
C12   C     C_R   0.969451 0.463960 0.532725 -0.352970
C13   C     C_R   0.519232 0.501198 0.681973 0.822054
C14   C     C_R   0.480768 0.498802 0.318027 0.822054
C15   C     C_1   0.468462 0.498070 0.215440 -0.090537
C16   C     C_1   0.531537 0.501930 0.784560 -0.090537
C17   C     C_2   0.451966 0.497107 0.025638 0.485249
C18   C     C_2   0.548033 0.502893 0.974362 0.485249
C19   C     C_1   0.540180 0.502436 0.871010 0.071851
C20   C     C_1   0.459820 0.497564 0.128990 0.071851
C21   C     C_R   0.534893 0.814731 0.498172 -0.307258
C22   C     C_R   0.465107 0.185269 0.501828 -0.307258
C23   C     C_R   0.344551 0.013675 0.505591 0.637413
C24   C     C_R   0.655449 0.986325 0.494409 0.637413
C25   C     C_R   0.354613 0.121630 0.505613 0.557271
C26   C     C_R   0.645387 0.878370 0.494387 0.557271
C27   C     C_R   0.564797 0.139691 0.498225 -0.175185
C28   C     C_R   0.435202 0.860309 0.501775 -0.175185
Cu1   Cu    Cu3+1 0.615220 0.507680 0.492970 1.070186
Cu2   Cu    Cu3+1 0.384780 0.492320 0.507030 1.070186
H1    H     H_    0.350009 0.811647 0.504546 0.265559
H2    H     H_    0.649991 0.188353 0.495454 0.265559
H3    H     H_    0.799389 0.637842 0.375167 0.210877
H4    H     H_    0.200611 0.362158 0.624833 0.210877
N1    N     N_R   0.788370 0.519230 0.482390 -0.291336
N2    N     N_R   0.211630 0.480770 0.517610 -0.291336
O1    O     O_R   0.581500 0.354430 0.495010 -0.554877
O2    O     O_R   0.418500 0.645570 0.504990 -0.554876
O3    O     O_R   0.386890 0.341450 0.506880 -0.533926
O4    O     O_R   0.613110 0.658550 0.493120 -0.533926
O5    O     O_R   0.611060 0.507430 0.631070 -0.523293
O6    O     O_R   0.388940 0.492570 0.368930 -0.523293
O7    O     O_R   0.416450 0.494450 0.642940 -0.588641
O8    O     O_R   0.583550 0.505550 0.357060 -0.588641
F1    F     F_    0.654394 0.509289 0.018838 -0.620729
F2    F     F_    0.345606 0.490711 0.981162 -0.620729
F3    F     F_    0.743951 0.836824 0.490903 -0.574872
F4    F     F_    0.256049 0.163176 0.509097 -0.574872
F5    F     F_    0.237145 0.953747 0.509150 -0.562839
F6    F     F_    0.762855 0.046253 0.490850 -0.562839
F7    F     F_    0.786743 0.388923 0.601838 -0.572794
F8    F     F_    0.213256 0.611077 0.398162 -0.572793
F9    F     F_    0.978242 0.330091 0.653733 -0.539717
F10   F     F_    0.021758 0.669909 0.346267 -0.539717

loop_
_geom_bond_atom_site_label_1
_geom_bond_atom_site_label_2
_ccdc_geom_bond_type
C9    N2    A    
C11   C12   A    
Cu1   Cu2   S    
Cu2   N2    S    
C7    N2    A    
Cu1   N1    S    
C1    O1    A    
C8    N1    A    
C14   O6    A    
C2    C21   S    
C13   O5    A    
C17   C18   D    
C1    C22   S    
C9    C11   A    
C25   F4    S    
C3    C24   A    
C10   N1    A    
C9    F8    S    
C10   C12   A    
C26   F3    S    
C6    F10   S    
C16   C19   T    
C10   F7    S    
Cu1   O4    S    
C3    C27   A    
C4    C28   A    
C21   C26   A    
C24   C26   A    
Cu2   O3    S    
C22   C27   A    
C23   C25   A    
Cu1   O8    S    
C24   F6    S    
C15   C20   T    
C7    H4    S    
Cu2   O7    S    
C23   F5    S    
C1    O3    A    
Cu1   O1    S    
C3    C4    A    
C18   F1    S    
C2    O4    A    
C13   O7    A    
C17   C20   S    
C17   F2    S    
Cu2   O2    S    
C5    C12   A    
C14   O8    A    
C18   C19   S    
C13   C16   S    
C5    F9    S    
C6    C11   A    
C5    C7    A    
C4    C23   A    
C2    O2    A    
C14   C15   S    
Cu2   O6    S    
C6    C8    A    
Cu1   O5    S    
C27   H2    S    
C21   C28   A    
C28   H1    S    
C8    H3    S    
C22   C25   A    
