data_mof_unit_63325.cif
_audit_creation_date              2013-03-05T16:17:07-0500
_audit_creation_method            fapswitch 2.2
_symmetry_space_group_name_H-M    P1
_symmetry_Int_Tables_number       1
_space_group_crystal_system       triclinic
_cell_length_a                    39.248845
_cell_length_b                    39.127061
_cell_length_c                    47.38733
_cell_angle_alpha                 89.837782
_cell_angle_beta                  90.026454
_cell_angle_gamma                 90.03611
_cell_volume                      72772.0275138

loop_
_atom_site_label
_atom_site_type_symbol
_atom_site_description
_atom_site_fract_x
_atom_site_fract_y
_atom_site_fract_z
_atom_type_partial_charge
O1    O     O_R   0.549920 0.971060 0.999980 -0.558014
O2    O     O_R   0.028940 0.549920 0.999980 -0.555740
O3    O     O_R   0.450080 0.028940 0.999980 -0.557644
O4    O     O_R   0.971060 0.450080 0.999980 -0.557819
O5    O     O_R   0.549920 0.028940 0.000020 -0.561912
O6    O     O_R   0.028940 0.450080 0.000020 -0.557522
O7    O     O_R   0.450080 0.971060 0.000020 -0.561848
O8    O     O_R   0.971060 0.549920 0.000020 -0.561218
O9    O     O_R   0.049920 0.471060 0.499980 -0.560875
O10   O     O_R   0.528940 0.049920 0.499980 -0.554964
O11   O     O_R   0.950080 0.528940 0.499980 -0.560203
O12   O     O_R   0.471060 0.950080 0.499980 -0.562716
O13   O     O_R   0.049920 0.528940 0.500020 -0.559785
O14   O     O_R   0.528940 0.950080 0.500020 -0.554365
O15   O     O_R   0.950080 0.471060 0.500020 -0.560240
O16   O     O_R   0.471060 0.049920 0.500020 -0.562094
C1    C     C_R   0.566047 0.000003 0.000255 0.795392
C2    C     C_R   0.000016 0.566057 0.000244 0.795277
C3    C     C_R   0.433948 0.999996 0.000242 0.794849
C4    C     C_R   0.999970 0.434073 0.000340 0.779578
C5    C     C_R   0.065967 0.500005 0.500028 0.794829
C6    C     C_R   0.500022 0.066085 0.500172 0.789508
C7    C     C_R   0.934024 0.499993 0.500016 0.795768
C8    C     C_R   0.499997 0.933917 0.499857 0.789195
O17   O     O_R   0.499990 0.971060 0.958930 -0.544152
O18   O     O_R   0.028940 0.499990 0.958930 -0.542820
O19   O     O_R   0.500010 0.028940 0.958930 -0.544404
O20   O     O_R   0.971060 0.500010 0.958930 -0.542571
O21   O     O_R   0.499990 0.028940 0.041070 -0.547095
O22   O     O_R   0.028940 0.500010 0.041070 -0.543849
O23   O     O_R   0.500010 0.971060 0.041070 -0.547299
O24   O     O_R   0.971060 0.499990 0.041070 -0.545764
O25   O     O_R   0.999990 0.471060 0.458930 -0.545410
O26   O     O_R   0.528940 0.999990 0.458930 -0.542290
O27   O     O_R   0.000010 0.528940 0.458930 -0.545637
O28   O     O_R   0.471060 0.000010 0.458930 -0.546705
O29   O     O_R   0.999990 0.528940 0.541070 -0.545347
O30   O     O_R   0.528940 0.000010 0.541070 -0.542352
O31   O     O_R   0.000010 0.471060 0.541070 -0.545438
O32   O     O_R   0.471060 0.999990 0.541070 -0.546592
C9    C     C_R   0.499994 0.000044 0.945543 0.915828
C10   C     C_R   0.999999 0.499671 0.945554 0.905224
C11   C     C_R   0.499987 0.999957 0.054455 0.892549
C12   C     C_R   0.000009 0.499882 0.054447 0.880778
C13   C     C_R   0.000009 0.500049 0.445547 0.904736
C14   C     C_R   0.500018 0.999859 0.445562 0.898052
C15   C     C_R   0.999975 0.499955 0.554455 0.901378
C16   C     C_R   0.500032 0.000131 0.554438 0.896261
Cu1   Cu    Cu3+1 0.500000 0.965740 0.000000 1.133142
Cu2   Cu    Cu3+1 0.034260 0.500000 0.000000 1.133389
Cu3   Cu    Cu3+1 0.500000 0.034260 0.000000 1.133258
Cu4   Cu    Cu3+1 0.965740 0.500000 0.000000 1.127730
Cu5   Cu    Cu3+1 0.000000 0.465740 0.500000 1.134403
Cu6   Cu    Cu3+1 0.534260 0.000000 0.500000 1.143672
Cu7   Cu    Cu3+1 0.000000 0.534260 0.500000 1.134729
Cu8   Cu    Cu3+1 0.465740 0.000000 0.500000 1.124632
C17   C     C_R   0.527077 0.013986 0.690948 0.703879
C18   C     C_R   0.986095 0.526825 0.690857 0.702767
C19   C     C_R   0.472632 0.987486 0.690905 0.700473
C20   C     C_R   0.011855 0.471923 0.690922 0.702533
C21   C     C_R   0.526665 0.985434 0.309054 0.703651
C22   C     C_R   0.986347 0.473315 0.309125 0.702374
C23   C     C_R   0.472983 0.013379 0.309033 0.700491
C24   C     C_R   0.014217 0.527196 0.309035 0.702561
C25   C     C_R   0.028015 0.513671 0.191025 0.704391
C26   C     C_R   0.486202 0.026646 0.190908 0.702272
C27   C     C_R   0.974095 0.486107 0.190876 0.699957
C28   C     C_R   0.513318 0.972416 0.190971 0.702110
C29   C     C_R   0.024543 0.483796 0.809170 0.701981
C30   C     C_R   0.485256 0.973917 0.809072 0.702283
C31   C     C_R   0.972052 0.513961 0.808980 0.703510
C32   C     C_R   0.514268 0.027192 0.809059 0.702190
N1    N     N_R   0.499899 0.000711 0.676260 -0.431642
N2    N     N_R   0.999090 0.499457 0.676237 -0.431455
N3    N     N_R   0.499857 0.999422 0.323724 -0.432007
N4    N     N_R   0.000218 0.500278 0.323752 -0.431913
N5    N     N_R   0.001157 0.499848 0.176284 -0.431553
N6    N     N_R   0.499778 0.999569 0.176260 -0.431826
N7    N     N_R   0.998258 0.498888 0.823724 -0.431216
N8    N     N_R   0.499782 0.000503 0.823734 -0.431844
C33   C     C_R   0.474978 0.982023 0.720294 -0.148194
C34   C     C_R   0.017080 0.474090 0.720335 -0.148827
C35   C     C_R   0.524579 0.019479 0.720297 -0.149578
C36   C     C_R   0.980459 0.524345 0.720207 -0.149042
C37   C     C_R   0.475539 0.018825 0.279657 -0.148080
C38   C     C_R   0.019790 0.524545 0.279702 -0.148723
C39   C     C_R   0.523988 0.979957 0.279714 -0.149300
C40   C     C_R   0.981103 0.475840 0.279727 -0.148736
C41   C     C_R   0.976411 0.480793 0.220284 -0.147139
C42   C     C_R   0.518774 0.974895 0.220333 -0.148528
C43   C     C_R   0.025263 0.519227 0.220352 -0.149471
C44   C     C_R   0.480699 0.024027 0.220262 -0.148836
C45   C     C_R   0.974914 0.519279 0.779602 -0.149230
C46   C     C_R   0.519585 0.024593 0.779689 -0.148784
C47   C     C_R   0.021937 0.478651 0.779779 -0.147959
C48   C     C_R   0.479893 0.976705 0.779704 -0.149089
C49   C     C_R   0.499758 0.000738 0.735156 -0.076704
C50   C     C_R   0.998681 0.499152 0.735137 -0.076504
C51   C     C_R   0.499747 0.999398 0.264828 -0.076723
C52   C     C_R   0.000536 0.500155 0.264855 -0.076676
C53   C     C_R   0.000728 0.500068 0.235177 -0.076541
C54   C     C_R   0.499734 0.999434 0.235155 -0.076737
C55   C     C_R   0.998512 0.499030 0.764826 -0.076504
C56   C     C_R   0.499739 0.000685 0.764836 -0.076754
C57   C     C_R   0.453064 0.959562 0.735241 0.250248
C58   C     C_R   0.038986 0.451710 0.735361 0.249781
C59   C     C_R   0.546439 0.041927 0.735224 0.249460
C60   C     C_R   0.958324 0.546547 0.735062 0.249872
C61   C     C_R   0.454354 0.041946 0.264685 0.250338
C62   C     C_R   0.042875 0.545819 0.264783 0.250133
C63   C     C_R   0.545134 0.956844 0.264819 0.249563
C64   C     C_R   0.958207 0.454480 0.264775 0.249778
C65   C     C_R   0.954894 0.457931 0.235217 0.249980
C66   C     C_R   0.541520 0.953317 0.235303 0.249907
C67   C     C_R   0.046591 0.542169 0.235292 0.249582
C68   C     C_R   0.457940 0.045544 0.235159 0.249732
C69   C     C_R   0.954576 0.543107 0.764579 0.250118
C70   C     C_R   0.542995 0.045480 0.764745 0.250189
C71   C     C_R   0.042380 0.454881 0.764915 0.250088
C72   C     C_R   0.456468 0.955906 0.764775 0.249981
O33   O     O_2   0.556422 0.021218 0.677398 -0.416601
O34   O     O_2   0.979224 0.556320 0.677218 -0.418452
O35   O     O_2   0.443380 0.980191 0.677250 -0.420050
O36   O     O_2   0.018916 0.442576 0.677275 -0.418408
O37   O     O_2   0.555833 0.977489 0.322602 -0.415703
O38   O     O_2   0.978250 0.444151 0.322794 -0.417556
O39   O     O_2   0.443896 0.021391 0.322616 -0.419075
O40   O     O_2   0.022143 0.556423 0.322551 -0.417202
O41   O     O_2   0.057287 0.521394 0.177553 -0.417262
O42   O     O_2   0.478661 0.056005 0.177315 -0.417919
O43   O     O_2   0.945091 0.478086 0.177137 -0.420257
O44   O     O_2   0.520888 0.943128 0.177428 -0.417727
O45   O     O_2   0.053088 0.474271 0.822940 -0.419584
O46   O     O_2   0.476627 0.944861 0.822673 -0.418020
O47   O     O_2   0.943316 0.523219 0.822531 -0.418328
O48   O     O_2   0.522923 0.056154 0.822655 -0.417777
C73   C     C_R   0.528793 0.011701 0.869913 0.256783
C74   C     C_R   0.987854 0.528315 0.869829 0.258069
C75   C     C_R   0.470947 0.988944 0.869958 0.256848
C76   C     C_R   0.008949 0.469772 0.870064 0.260597
C77   C     C_R   0.528299 0.987200 0.130092 0.250880
C78   C     C_R   0.989033 0.471066 0.130173 0.259077
C79   C     C_R   0.471418 0.012214 0.129999 0.250785
C80   C     C_R   0.013531 0.528291 0.129923 0.251048
C81   C     C_R   0.028740 0.512329 0.369993 0.253647
C82   C     C_R   0.487937 0.028307 0.369808 0.256691
C83   C     C_R   0.971401 0.488293 0.369918 0.253555
C84   C     C_R   0.512147 0.970952 0.370076 0.251845
C85   C     C_R   0.027813 0.486950 0.630214 0.252644
C86   C     C_R   0.487465 0.971966 0.630215 0.256026
C87   C     C_R   0.971109 0.512443 0.629911 0.251922
C88   C     C_R   0.512762 0.028900 0.629915 0.250889
C89   C     C_R   0.525576 0.017814 0.899156 0.146410
C90   C     C_R   0.982156 0.525328 0.899165 0.151261
C91   C     C_R   0.474270 0.982609 0.899191 0.146468
C92   C     C_R   0.016702 0.473563 0.899002 0.144740
C93   C     C_R   0.524845 0.981223 0.100852 0.142286
C94   C     C_R   0.981794 0.474996 0.101150 0.143943
C95   C     C_R   0.474975 0.018380 0.100770 0.142221
C96   C     C_R   0.019162 0.524792 0.100643 0.144297
C97   C     C_R   0.025285 0.518403 0.399218 0.142445
C98   C     C_R   0.481879 0.024972 0.399064 0.151703
C99   C     C_R   0.974737 0.482102 0.399174 0.143350
C100  C     C_R   0.518363 0.974550 0.399272 0.139523
C101  C     C_R   0.024545 0.481114 0.600934 0.143478
C102  C     C_R   0.481545 0.975315 0.600938 0.152209
C103  C     C_R   0.974794 0.518454 0.600666 0.143725
C104  C     C_R   0.518800 0.025219 0.600706 0.140352
C105  C     C_R   0.499952 0.000152 0.914372 -0.335129
C106  C     C_R   0.999843 0.499603 0.914361 -0.338030
C107  C     C_R   0.499938 0.999854 0.085613 -0.338728
C108  C     C_R   0.000155 0.499960 0.085628 -0.341335
C109  C     C_R   0.000014 0.500180 0.414388 -0.335806
C110  C     C_R   0.500069 0.999763 0.414384 -0.337498
C111  C     C_R   0.999790 0.499850 0.585619 -0.337114
C112  C     C_R   0.500113 0.000247 0.585617 -0.338450
C113  C     C_R   0.499839 0.000386 0.854571 0.046227
C114  C     C_R   0.998254 0.498958 0.854551 0.041358
C115  C     C_R   0.499830 0.999657 0.145418 0.049130
C116  C     C_R   0.001325 0.499711 0.145450 0.043713
C117  C     C_R   0.000117 0.500306 0.354590 0.049016
C118  C     C_R   0.499952 0.999542 0.354566 0.046666
C119  C     C_R   0.999340 0.499627 0.645408 0.049143
C120  C     C_R   0.500019 0.000545 0.645426 0.046579
O49   O     O_R   0.000010 0.049920 0.976260 -0.585751
O50   O     O_R   0.950080 0.000010 0.976260 -0.584408
O51   O     O_R   0.999990 0.950080 0.976260 -0.585119
O52   O     O_R   0.049920 0.999990 0.976260 -0.584361
O53   O     O_R   0.000010 0.950080 0.023740 -0.571841
O54   O     O_R   0.950080 0.999990 0.023740 -0.570880
O55   O     O_R   0.999990 0.049920 0.023740 -0.572864
O56   O     O_R   0.049920 0.000010 0.023740 -0.571974
O57   O     O_R   0.500010 0.549920 0.476260 -0.574329
O58   O     O_R   0.450080 0.500010 0.476260 -0.579363
O59   O     O_R   0.499990 0.450080 0.476260 -0.581151
O60   O     O_R   0.549920 0.499990 0.476260 -0.574080
O61   O     O_R   0.500010 0.450080 0.523740 -0.574262
O62   O     O_R   0.450080 0.499990 0.523740 -0.578775
O63   O     O_R   0.499990 0.549920 0.523740 -0.581322
O64   O     O_R   0.549920 0.500010 0.523740 -0.574204
C121  C     C_R   0.000210 0.066121 0.999939 0.756579
C122  C     C_R   0.933881 0.000163 0.999977 0.757012
C123  C     C_R   0.999960 0.933811 0.000023 0.756013
C124  C     C_R   0.066126 0.999890 0.999995 0.755440
C125  C     C_R   0.500051 0.566209 0.499984 0.751459
C126  C     C_R   0.434020 0.500010 0.499993 0.774921
C127  C     C_R   0.500044 0.433789 0.500016 0.751690
C128  C     C_R   0.565977 0.500006 0.500008 0.755659
Cu9   Cu    Cu3+1 0.000000 0.000000 0.971840 0.977520
Cu10  Cu    Cu3+1 1.000000 0.000000 0.028160 1.017642
Cu11  Cu    Cu3+1 0.500000 0.500000 0.471840 0.989810
Cu12  Cu    Cu3+1 0.500000 0.500000 0.528160 0.989862
C129  C     C_R   0.876811 0.025423 0.012414 0.089559
C130  C     C_R   0.976665 0.876140 0.014014 0.091402
C131  C     C_R   0.123269 0.974955 0.012840 0.088923
C132  C     C_R   0.024676 0.123115 0.013680 0.088130
C133  C     C_R   0.879405 0.969547 0.989278 0.079256
C134  C     C_R   0.970823 0.120742 0.987364 0.079413
C135  C     C_R   0.120536 0.030642 0.989137 0.078672
C136  C     C_R   0.030859 0.879633 0.988498 0.075943
C137  C     C_R   0.378480 0.528619 0.510116 0.077655
C138  C     C_R   0.477586 0.375712 0.513880 0.096749
C139  C     C_R   0.621538 0.470778 0.509147 0.084128
C140  C     C_R   0.531959 0.619963 0.511347 0.071147
C141  C     C_R   0.378479 0.471302 0.489941 0.077079
C142  C     C_R   0.477611 0.624242 0.486061 0.096426
C143  C     C_R   0.621516 0.529383 0.491005 0.084008
C144  C     C_R   0.531995 0.380077 0.488735 0.070956
C145  C     C_R   0.841197 0.022601 0.012611 -0.067366
C146  C     C_R   0.980399 0.840524 0.014694 -0.069854
C147  C     C_R   0.158876 0.977883 0.013061 -0.067647
C148  C     C_R   0.022096 0.158800 0.013583 -0.065275
C149  C     C_R   0.844692 0.964910 0.995671 -0.059023
C150  C     C_R   0.966118 0.155629 0.993133 -0.059896
C151  C     C_R   0.155240 0.035421 0.995537 -0.060360
C152  C     C_R   0.036769 0.845119 0.995379 -0.062437
C153  C     C_R   0.343025 0.529388 0.507184 -0.085943
C154  C     C_R   0.481962 0.340177 0.514724 -0.069567
C155  C     C_R   0.656962 0.470162 0.505872 -0.080409
C156  C     C_R   0.538286 0.654506 0.504601 -0.053895
C157  C     C_R   0.343066 0.470325 0.493148 -0.085924
C158  C     C_R   0.481959 0.659788 0.485264 -0.069610
C159  C     C_R   0.656924 0.530121 0.494423 -0.080393
C160  C     C_R   0.538336 0.345554 0.495528 -0.054130
H1    H     H_    0.826361 0.044478 0.018831 0.186872
H2    H     H_    0.959335 0.825237 0.022049 0.186063
H3    H     H_    0.173763 0.956099 0.019528 0.187085
H4    H     H_    0.043354 0.173657 0.021125 0.186558
H5    H     H_    0.833115 0.940345 0.992362 0.186316
H6    H     H_    0.942247 0.167677 0.988074 0.183972
H7    H     H_    0.166739 0.060001 0.992037 0.186603
H8    H     H_    0.061387 0.834183 0.991378 0.187566
H9    H     H_    0.329912 0.553104 0.511295 0.182131
H10   H     H_    0.461172 0.324543 0.522094 0.184888
H11   H     H_    0.670075 0.446156 0.508850 0.183171
H12   H     H_    0.562928 0.665298 0.508879 0.189941
H13   H     H_    0.330006 0.446541 0.489126 0.182102
H14   H     H_    0.461180 0.675393 0.477857 0.184974
H15   H     H_    0.669993 0.554177 0.491512 0.183300
H16   H     H_    0.562998 0.334812 0.491317 0.189924
C161  C     C_R   0.824635 0.991921 0.005767 0.111332
C162  C     C_R   0.011016 0.824552 0.007007 0.111426
C163  C     C_R   0.175371 0.008550 0.005935 0.111374
C164  C     C_R   0.992391 0.175478 0.004624 0.114122
C165  C     C_R   0.324615 0.499805 0.500236 0.137026
C166  C     C_R   0.512829 0.324631 0.507149 0.107859
C167  C     C_R   0.675362 0.500175 0.500189 0.132246
C168  C     C_R   0.512789 0.675389 0.492940 0.107729
C169  C     C_R   0.896261 0.998797 0.000100 -0.105981
C170  C     C_R   0.001980 0.896077 0.000305 -0.107394
C171  C     C_R   0.103753 0.001391 0.000175 -0.106118
C172  C     C_R   0.998992 0.103761 0.999925 -0.108017
C173  C     C_R   0.396653 0.499997 0.499986 -0.061348
C174  C     C_R   0.502661 0.396048 0.500277 -0.108154
C175  C     C_R   0.603326 0.500047 0.500036 -0.068736
C176  C     C_R   0.502658 0.603949 0.499729 -0.108405
C177  C     C_R   0.766829 0.969270 0.989196 0.237541
C178  C     C_R   0.034153 0.766501 0.991039 0.238963
C179  C     C_R   0.233202 0.031254 0.989323 0.237675
C180  C     C_R   0.973189 0.233017 0.985051 0.237615
C181  C     C_R   0.768842 0.007176 0.029885 0.218996
C182  C     C_R   0.005241 0.231481 0.029171 0.220034
C183  C     C_R   0.231164 0.993518 0.030283 0.218680
C184  C     C_R   0.997962 0.769001 0.032725 0.217267
C185  C     C_R   0.267790 0.480023 0.480458 0.230367
C186  C     C_R   0.536073 0.266537 0.491156 0.239125
C187  C     C_R   0.732138 0.521026 0.481058 0.233739
C188  C     C_R   0.500232 0.730924 0.467079 0.217176
C189  C     C_R   0.267930 0.519385 0.520319 0.230339
C190  C     C_R   0.535941 0.733503 0.509054 0.239169
C191  C     C_R   0.732062 0.479472 0.519562 0.233651
C192  C     C_R   0.500239 0.269098 0.533028 0.217166
C193  C     C_R   0.731212 0.966937 0.992355 0.220388
C194  C     C_R   0.036386 0.730797 0.994488 0.218468
C195  C     C_R   0.268831 0.033544 0.992485 0.219998
C196  C     C_R   0.970872 0.268772 0.987360 0.232229
C197  C     C_R   0.733238 0.011534 0.028114 0.231875
C198  C     C_R   0.009834 0.267116 0.027470 0.235794
C199  C     C_R   0.266762 0.989082 0.028552 0.232197
C200  C     C_R   0.993238 0.733308 0.031346 0.234507
C201  C     C_R   0.232233 0.476779 0.483046 0.224808
C202  C     C_R   0.537907 0.230738 0.494373 0.218169
C203  C     C_R   0.767729 0.524008 0.483619 0.225338
C204  C     C_R   0.495237 0.766583 0.468500 0.234220
C205  C     C_R   0.232366 0.522687 0.517819 0.225419
C206  C     C_R   0.537771 0.769308 0.505867 0.218359
C207  C     C_R   0.767651 0.476440 0.517066 0.225830
C208  C     C_R   0.495273 0.233425 0.531625 0.234308
C209  C     C_R   0.713685 0.990758 0.009626 -0.196932
C210  C     C_R   0.012792 0.713481 0.012194 -0.195279
C211  C     C_R   0.286343 0.009718 0.009892 -0.196483
C212  C     C_R   0.991797 0.286424 0.006925 -0.200712
C213  C     C_R   0.213806 0.499790 0.500413 -0.200614
C214  C     C_R   0.514379 0.213505 0.512221 -0.195198
C215  C     C_R   0.786166 0.500181 0.500327 -0.203378
C216  C     C_R   0.514294 0.786519 0.487960 -0.195153
C217  C     C_R   0.786408 0.988919 0.008491 -0.201965
C218  C     C_R   0.015052 0.786366 0.010479 -0.200960
C219  C     C_R   0.213601 0.011662 0.008721 -0.201694
C220  C     C_R   0.989692 0.213723 0.006480 -0.209034
C221  C     C_R   0.286346 0.499723 0.500345 -0.204467
C222  C     C_R   0.517168 0.286446 0.510687 -0.200372
C223  C     C_R   0.713628 0.500233 0.500273 -0.206127
C224  C     C_R   0.517108 0.713583 0.489450 -0.200441
C225  C     C_R   0.655152 0.002639 0.030640 -0.048889
C226  C     C_R   0.999369 0.654358 0.032259 -0.043006
C227  C     C_R   0.344960 0.997551 0.030818 -0.048205
C228  C     C_R   0.998633 0.344601 0.029660 -0.062568
C229  C     C_R   0.659199 0.989671 0.981248 -0.075390
C230  C     C_R   0.994701 0.341441 0.979041 -0.075034
C231  C     C_R   0.340723 0.010580 0.981387 -0.075855
C232  C     C_R   0.011569 0.659838 0.982785 -0.079718
C233  C     C_R   0.157105 0.506449 0.525049 -0.062119
C234  C     C_R   0.500594 0.154369 0.532254 -0.041640
C235  C     C_R   0.842848 0.492782 0.524878 -0.061675
C236  C     C_R   0.512020 0.840146 0.517478 -0.080200
C237  C     C_R   0.157244 0.493457 0.475504 -0.062724
C238  C     C_R   0.500544 0.845616 0.467879 -0.041543
C239  C     C_R   0.842690 0.507305 0.475550 -0.062325
C240  C     C_R   0.512169 0.159896 0.482685 -0.080194
H17   H     H_    0.666753 0.004793 0.051107 0.190042
H18   H     H_    0.998031 0.665245 0.053010 0.191289
H19   H     H_    0.333468 0.995458 0.051328 0.190228
H20   H     H_    0.997408 0.333005 0.050333 0.192225
H21   H     H_    0.674317 0.985247 0.962637 0.183473
H22   H     H_    0.994138 0.326891 0.959692 0.184843
H23   H     H_    0.325541 0.015077 0.962790 0.183450
H24   H     H_    0.016076 0.675504 0.964413 0.182752
H25   H     H_    0.170575 0.509786 0.544648 0.186197
H26   H     H_    0.499738 0.165178 0.553049 0.191174
H27   H     H_    0.829339 0.488739 0.544384 0.185550
H28   H     H_    0.516487 0.824507 0.535876 0.182536
H29   H     H_    0.170837 0.490076 0.455981 0.185935
H30   H     H_    0.499741 0.834798 0.447086 0.191197
H31   H     H_    0.829047 0.511392 0.456105 0.185346
H32   H     H_    0.516685 0.175559 0.464310 0.182501
C241  C     C_R   0.619945 0.008493 0.027950 0.094584
C242  C     C_R   0.992247 0.619355 0.028796 0.097027
C243  C     C_R   0.380130 0.991506 0.028043 0.095209
C244  C     C_R   0.004856 0.379767 0.027879 0.088400
C245  C     C_R   0.623621 0.989208 0.978799 0.090349
C246  C     C_R   0.992768 0.377101 0.977295 0.086097
C247  C     C_R   0.376293 0.010907 0.978847 0.090273
C248  C     C_R   0.011117 0.624274 0.979594 0.089784
C249  C     C_R   0.121539 0.509540 0.524859 0.090011
C250  C     C_R   0.492880 0.119470 0.528752 0.098810
C251  C     C_R   0.878433 0.489849 0.524703 0.091229
C252  C     C_R   0.510897 0.875714 0.520742 0.088893
C253  C     C_R   0.121681 0.490376 0.475512 0.091358
C254  C     C_R   0.492768 0.880490 0.471357 0.099305
C255  C     C_R   0.878277 0.510186 0.475570 0.091283
C256  C     C_R   0.511073 0.124330 0.479397 0.089300
C257  C     C_R   0.603603 0.999773 0.002150 -0.051946
C258  C     C_R   0.000369 0.603667 0.002618 -0.055524
C259  C     C_R   0.396386 0.000230 0.002182 -0.052287
C260  C     C_R   0.999672 0.396631 0.001738 -0.037712
C261  C     C_R   0.103427 0.500000 0.500126 -0.048106
C262  C     C_R   0.500451 0.103753 0.502485 -0.056328
C263  C     C_R   0.896545 0.499988 0.500090 -0.046793
C264  C     C_R   0.500353 0.896250 0.497607 -0.056418
C265  C     C_R   0.675485 0.994372 0.007304 0.113661
C266  C     C_R   0.007917 0.675357 0.009266 0.111364
C267  C     C_R   0.324535 0.005941 0.007505 0.113268
C268  C     C_R   0.995139 0.324628 0.005279 0.125967
C269  C     C_R   0.175517 0.499920 0.500326 0.116677
C270  C     C_R   0.509098 0.175385 0.509239 0.111233
C271  C     C_R   0.824444 0.500078 0.500255 0.117560
C272  C     C_R   0.509018 0.824633 0.490921 0.111181
N9    N     N_R   0.428709 0.938790 0.720571 0.191393
O65   O     O_R   0.439033 0.916080 0.702491 -0.196171
O66   O     O_R   0.396609 0.940110 0.727316 -0.215203
N10   N     N_R   0.059466 0.427077 0.720758 0.191556
O67   O     O_R   0.082458 0.437223 0.702819 -0.195151
O68   O     O_R   0.057551 0.394852 0.727415 -0.213212
N11   N     N_R   0.570787 0.062773 0.720537 0.191645
O69   O     O_R   0.560472 0.085395 0.702265 -0.193249
O70   O     O_R   0.602866 0.061555 0.727392 -0.212856
N12   N     N_R   0.937972 0.571265 0.720303 0.191494
O71   O     O_R   0.915284 0.561234 0.702086 -0.195285
O72   O     O_R   0.939680 0.603427 0.727058 -0.214152
N13   N     N_R   0.430617 0.063406 0.279324 0.191448
O73   O     O_R   0.441585 0.085712 0.297505 -0.195577
O74   O     O_R   0.398518 0.063105 0.272463 -0.212829
N14   N     N_R   0.064177 0.569718 0.279459 0.191552
O75   O     O_R   0.086356 0.558811 0.297798 -0.194403
O76   O     O_R   0.063856 0.601903 0.272491 -0.211612
N15   N     N_R   0.568868 0.935335 0.279534 0.191725
O77   O     O_R   0.557913 0.913104 0.297879 -0.192489
O78   O     O_R   0.600948 0.935559 0.272633 -0.210476
N16   N     N_R   0.936703 0.430682 0.279458 0.191615
O79   O     O_R   0.914336 0.441707 0.297523 -0.194649
O80   O     O_R   0.937090 0.398455 0.272780 -0.211021
N17   N     N_R   0.931066 0.436579 0.220519 0.191712
O81   O     O_R   0.941959 0.414086 0.202482 -0.193246
O82   O     O_R   0.898915 0.437206 0.227166 -0.212588
N18   N     N_R   0.562594 0.929223 0.220666 0.191636
O83   O     O_R   0.584969 0.939929 0.202416 -0.192586
O84   O     O_R   0.561862 0.897029 0.227584 -0.211587
N19   N     N_R   0.070645 0.563391 0.220639 0.191589
O85   O     O_R   0.060028 0.585753 0.202268 -0.192517
O86   O     O_R   0.102696 0.562803 0.227641 -0.212589
N20   N     N_R   0.436834 0.069654 0.220441 0.191604
O87   O     O_R   0.414516 0.058978 0.202164 -0.193156
O88   O     O_R   0.437503 0.101825 0.227286 -0.213254
N21   N     N_R   0.931550 0.565387 0.779162 0.191339
O89   O     O_R   0.943250 0.587428 0.797252 -0.196362
O90   O     O_R   0.899449 0.566070 0.772329 -0.214481
N22   N     N_R   0.564871 0.068860 0.779412 0.191420
O91   O     O_R   0.586967 0.057400 0.797591 -0.195768
O92   O     O_R   0.565125 0.101090 0.772589 -0.212966
N23   N     N_R   0.065153 0.432396 0.779682 0.191545
O93   O     O_R   0.053178 0.410343 0.797735 -0.196116
O94   O     O_R   0.097322 0.431609 0.773108 -0.213372
N24   N     N_R   0.434547 0.932503 0.779466 0.191393
O95   O     O_R   0.412518 0.943918 0.797650 -0.196358
O96   O     O_R   0.434210 0.900307 0.772685 -0.214522
N25   N     N_R   0.561728 0.013763 0.856411 0.166983
O97   O     O_R   0.584991 0.034945 0.865115 -0.224250
O98   O     O_R   0.570137 0.991113 0.837597 -0.305817
N26   N     N_R   0.986332 0.561341 0.856188 0.168611
O99   O     O_R   0.965787 0.585095 0.864986 -0.225728
O100  O     O_R   0.008957 0.569330 0.837205 -0.305470
N27   N     N_R   0.437967 0.986966 0.856510 0.166805
O101  O     O_R   0.414786 0.965625 0.865179 -0.224333
O102  O     O_R   0.429458 0.009784 0.837752 -0.305654
N28   N     N_R   0.009219 0.436284 0.857188 0.181927
O103  O     O_R   0.025370 0.410880 0.868845 -0.225041
O104  O     O_R   0.987823 0.429425 0.836982 -0.300851
N29   N     N_R   0.561130 0.983815 0.143599 0.165292
O105  O     O_R   0.583473 0.961698 0.134895 -0.217572
O106  O     O_R   0.570527 0.006172 0.162348 -0.307511
N30   N     N_R   0.986710 0.437782 0.143398 0.180068
O107  O     O_R   0.968364 0.413537 0.132388 -0.219060
O108  O     O_R   0.007976 0.429640 0.163400 -0.299943
N31   N     N_R   0.438547 0.015539 0.143405 0.165125
O109  O     O_R   0.416280 0.037784 0.134668 -0.217631
O110  O     O_R   0.429058 0.993055 0.162115 -0.307581
N32   N     N_R   0.017017 0.561260 0.143237 0.165770
O111  O     O_R   0.039286 0.583497 0.134457 -0.215842
O112  O     O_R   0.994678 0.570880 0.161883 -0.308017
N33   N     N_R   0.061667 0.515160 0.356577 0.164723
O113  O     O_R   0.084335 0.536993 0.365263 -0.221008
O114  O     O_R   0.070751 0.492596 0.337909 -0.307284
N34   N     N_R   0.485142 0.061275 0.356203 0.167956
O115  O     O_R   0.463413 0.084055 0.364807 -0.222711
O116  O     O_R   0.507595 0.070279 0.337388 -0.304333
N35   N     N_R   0.938525 0.485567 0.356379 0.165752
O117  O     O_R   0.915638 0.464009 0.365222 -0.221204
O118  O     O_R   0.929685 0.508046 0.337449 -0.306381
N36   N     N_R   0.515143 0.937908 0.356804 0.165466
O119  O     O_R   0.537155 0.915419 0.365558 -0.217566
O120  O     O_R   0.492626 0.928531 0.338192 -0.307793
N37   N     N_R   0.060470 0.483119 0.643947 0.165538
O121  O     O_R   0.082756 0.460964 0.635208 -0.219711
O122  O     O_R   0.069837 0.505152 0.662965 -0.307883
N38   N     N_R   0.483923 0.939117 0.643904 0.167853
O123  O     O_R   0.461760 0.916732 0.635284 -0.221640
O124  O     O_R   0.506102 0.929747 0.662830 -0.305471
N39   N     N_R   0.938262 0.516212 0.643289 0.164798
O125  O     O_R   0.916265 0.538694 0.634498 -0.218484
O126  O     O_R   0.928499 0.493929 0.662067 -0.308310
N40   N     N_R   0.516531 0.061853 0.643220 0.165504
O127  O     O_R   0.539030 0.083877 0.634480 -0.216138
O128  O     O_R   0.494282 0.071677 0.661868 -0.308679
N41   N     N_R   0.546982 0.042936 0.912469 0.171730
O129  O     O_R   0.549007 0.073449 0.901600 -0.216249
O130  O     O_R   0.561216 0.037232 0.936772 -0.376853
N42   N     N_R   0.957469 0.547086 0.912573 0.171579
O131  O     O_R   0.927034 0.549540 0.901854 -0.219901
O132  O     O_R   0.963509 0.561370 0.936763 -0.378099
N43   N     N_R   0.452897 0.957404 0.912533 0.171650
O133  O     O_R   0.450860 0.926954 0.901687 -0.216527
O134  O     O_R   0.438715 0.962962 0.936843 -0.376877
N44   N     N_R   0.043465 0.453141 0.911269 0.177906
O135  O     O_R   0.071961 0.449396 0.897589 -0.210502
O136  O     O_R   0.040875 0.439946 0.936346 -0.368745
N45   N     N_R   0.545252 0.955288 0.087574 0.176503
O137  O     O_R   0.545555 0.924555 0.098138 -0.214381
O138  O     O_R   0.561040 0.960908 0.063924 -0.364183
N46   N     N_R   0.954205 0.455812 0.088854 0.178768
O139  O     O_R   0.925058 0.454455 0.101894 -0.211957
O140  O     O_R   0.957013 0.440976 0.064487 -0.362810
N47   N     N_R   0.454615 0.044403 0.087423 0.176656
O141  O     O_R   0.454338 0.075086 0.097941 -0.214607
O142  O     O_R   0.438810 0.038900 0.063776 -0.363858
N48   N     N_R   0.045113 0.545050 0.087141 0.178019
O143  O     O_R   0.075854 0.545011 0.097434 -0.216093
O144  O     O_R   0.039320 0.561486 0.063777 -0.361750
N49   N     N_R   0.046070 0.544039 0.412547 0.173743
O145  O     O_R   0.047196 0.574651 0.401782 -0.214511
O146  O     O_R   0.060911 0.538503 0.436633 -0.369645
N50   N     N_R   0.456477 0.045987 0.412343 0.173137
O147  O     O_R   0.425893 0.047083 0.401769 -0.219228
O148  O     O_R   0.462227 0.061053 0.436259 -0.375678
N51   N     N_R   0.953773 0.456553 0.412522 0.174040
O149  O     O_R   0.952514 0.425967 0.401859 -0.213961
O150  O     O_R   0.938892 0.462132 0.436549 -0.369963
N52   N     N_R   0.544483 0.954254 0.412507 0.177640
O151  O     O_R   0.574928 0.953881 0.401652 -0.210669
O152  O     O_R   0.539276 0.938412 0.436239 -0.362578
N53   N     N_R   0.045019 0.455250 0.587637 0.175265
O153  O     O_R   0.045190 0.424439 0.598045 -0.215145
O154  O     O_R   0.060593 0.460909 0.563897 -0.368422
N54   N     N_R   0.455947 0.954556 0.587600 0.174104
O155  O     O_R   0.425207 0.954119 0.597869 -0.220029
O156  O     O_R   0.461777 0.939025 0.563908 -0.375058
N55   N     N_R   0.954363 0.544242 0.587101 0.175453
O157  O     O_R   0.954123 0.575098 0.597271 -0.215269
O158  O     O_R   0.938871 0.538445 0.563361 -0.368602
N56   N     N_R   0.545050 0.045256 0.587380 0.178471
O159  O     O_R   0.575680 0.044971 0.597897 -0.211762
O160  O     O_R   0.539684 0.061572 0.563889 -0.362075
C273  C     C_3   0.892855 0.056677 0.026100 -0.380896
C274  C     C_3   0.878050 0.090277 0.014945 -0.788056
H33   H     H_    0.873838 0.088816 0.991824 0.259029
H34   H     H_    0.853424 0.096041 0.025408 0.280619
H35   H     H_    0.895853 0.111616 0.019589 0.260365
H36   H     H_    0.888376 0.055325 0.049228 0.253296
H37   H     H_    0.920810 0.057489 0.023107 0.200491
C275  C     C_3   0.945870 0.891610 0.028702 -0.381854
C276  C     C_3   0.912204 0.875868 0.018866 -0.787305
H38   H     H_    0.912637 0.871432 0.995754 0.258967
H39   H     H_    0.907516 0.851146 0.029745 0.280567
H40   H     H_    0.890782 0.893279 0.024080 0.260729
H41   H     H_    0.948464 0.887334 0.051795 0.253405
H42   H     H_    0.944258 0.919591 0.025561 0.202388
C277  C     C_3   0.107300 0.943832 0.026933 -0.381442
C278  C     C_3   0.122408 0.910126 0.016453 -0.785282
H43   H     H_    0.127123 0.911318 0.993389 0.258476
H44   H     H_    0.146826 0.904572 0.027367 0.281249
H45   H     H_    0.104566 0.888794 0.021096 0.260026
H46   H     H_    0.111567 0.945623 0.050064 0.253312
H47   H     H_    0.079378 0.942787 0.023776 0.200955
C279  C     C_3   0.054666 0.106926 0.029120 -0.381720
C280  C     C_3   0.089004 0.122207 0.020360 -0.787327
H48   H     H_    0.089377 0.127624 0.997372 0.258773
H49   H     H_    0.093925 0.146354 0.031920 0.280931
H50   H     H_    0.109860 0.104073 0.025572 0.260896
H51   H     H_    0.051214 0.110880 0.052153 0.252660
H52   H     H_    0.055997 0.078981 0.025815 0.203848
C281  C     C_3   0.898573 0.944322 0.970614 -0.413778
C282  C     C_3   0.877030 0.916220 0.956937 -0.716876
H53   H     H_    0.865790 0.899027 0.973085 0.250952
H54   H     H_    0.856435 0.927664 0.943911 0.304675
H55   H     H_    0.893440 0.900544 0.942956 0.253256
H56   H     H_    0.910176 0.958892 0.952916 0.246055
H57   H     H_    0.919626 0.932487 0.982658 0.203098
C283  C     C_3   0.946851 0.101575 0.967540 -0.408898
C284  C     C_3   0.919677 0.123162 0.952638 -0.720420
H58   H     H_    0.901708 0.134561 0.968009 0.249729
H59   H     H_    0.931854 0.143725 0.939963 0.305018
H60   H     H_    0.904784 0.106655 0.938130 0.254855
H61   H     H_    0.962441 0.090094 0.950479 0.247747
H62   H     H_    0.934300 0.080375 0.979012 0.205050
C285  C     C_3   0.101283 0.055779 0.970308 -0.414221
C286  C     C_3   0.122759 0.083844 0.956392 -0.713431
H63   H     H_    0.134055 0.101107 0.972387 0.250465
H64   H     H_    0.143315 0.072359 0.943417 0.303945
H65   H     H_    0.106288 0.099457 0.942326 0.254580
H66   H     H_    0.089646 0.041132 0.952729 0.246126
H67   H     H_    0.080252 0.067659 0.982288 0.203766
C287  C     C_3   0.054425 0.898976 0.968403 -0.413150
C288  C     C_3   0.081598 0.877538 0.953466 -0.714590
H68   H     H_    0.100109 0.866680 0.968717 0.251353
H69   H     H_    0.069461 0.856557 0.941335 0.303971
H70   H     H_    0.095902 0.894006 0.938463 0.254016
H71   H     H_    0.038540 0.910165 0.951330 0.246635
H72   H     H_    0.066837 0.920409 0.979586 0.205941
C289  C     C_3   0.395596 0.558315 0.524773 -0.445160
C290  C     C_3   0.395655 0.552979 0.556675 -0.640561
H73   H     H_    0.369118 0.551553 0.564737 0.288005
H74   H     H_    0.409270 0.529055 0.562318 0.259439
H75   H     H_    0.408731 0.574792 0.567005 0.241348
H76   H     H_    0.422136 0.561973 0.517445 0.205731
H77   H     H_    0.381510 0.582251 0.520153 0.219420
C291  C     C_3   0.446443 0.390716 0.528390 -0.386713
C292  C     C_3   0.413090 0.374214 0.518681 -0.790495
H78   H     H_    0.412944 0.370960 0.495413 0.256198
H79   H     H_    0.409481 0.348881 0.528841 0.281327
H80   H     H_    0.391268 0.390536 0.525008 0.255155
H81   H     H_    0.449081 0.386750 0.551516 0.251397
H82   H     H_    0.444270 0.418614 0.524996 0.199369
C293  C     C_3   0.604637 0.439791 0.522451 -0.468326
C294  C     C_3   0.614387 0.436330 0.553518 -0.620879
H83   H     H_    0.642164 0.431781 0.555804 0.289027
H84   H     H_    0.607291 0.459867 0.565179 0.262326
H85   H     H_    0.600615 0.414305 0.562979 0.245389
H86   H     H_    0.576506 0.441006 0.521488 0.211471
H87   H     H_    0.612680 0.416393 0.511081 0.218381
C295  C     C_3   0.554950 0.600381 0.531784 -0.401784
C296  C     C_3   0.586429 0.619449 0.542531 -0.724972
H88   H     H_    0.603492 0.626512 0.524777 0.245242
H89   H     H_    0.578788 0.642720 0.554303 0.301843
H90   H     H_    0.600891 0.602602 0.557136 0.257841
H91   H     H_    0.539443 0.593422 0.550553 0.246339
H92   H     H_    0.563527 0.576179 0.522207 0.192776
C297  C     C_3   0.395550 0.441796 0.475031 -0.444342
C298  C     C_3   0.395818 0.447653 0.443189 -0.640302
H93   H     H_    0.369332 0.449319 0.435026 0.287853
H94   H     H_    0.409575 0.471609 0.437854 0.259307
H95   H     H_    0.408839 0.425961 0.432677 0.241462
H96   H     H_    0.422021 0.437943 0.482472 0.205710
H97   H     H_    0.381336 0.417820 0.479285 0.219689
C299  C     C_3   0.446573 0.609161 0.471389 -0.386158
C300  C     C_3   0.413143 0.625764 0.480722 -0.790289
H98   H     H_    0.412771 0.629293 0.503960 0.256078
H99   H     H_    0.409659 0.650973 0.470326 0.281642
H100  H     H_    0.391366 0.609362 0.474364 0.255221
H101  H     H_    0.449469 0.612934 0.448265 0.251424
H102  H     H_    0.444295 0.581295 0.474923 0.199214
C301  C     C_3   0.604606 0.560327 0.477664 -0.468571
C302  C     C_3   0.614438 0.563821 0.446624 -0.620312
H103  H     H_    0.642218 0.568432 0.444415 0.289022
H104  H     H_    0.607397 0.540272 0.434939 0.262313
H105  H     H_    0.600672 0.585819 0.437133 0.245522
H106  H     H_    0.576474 0.559039 0.478559 0.211528
H107  H     H_    0.612586 0.583745 0.489058 0.218372
C303  C     C_3   0.554987 0.399670 0.468306 -0.401899
C304  C     C_3   0.586475 0.380635 0.457608 -0.724237
H108  H     H_    0.603536 0.373627 0.475385 0.245108
H109  H     H_    0.578844 0.357332 0.445855 0.301949
H110  H     H_    0.600934 0.397482 0.442998 0.257918
H111  H     H_    0.539484 0.406577 0.449514 0.246430
H112  H     H_    0.563550 0.423901 0.477864 0.192721
N57   N     N_R   0.782455 0.952778 0.965517 0.140001
O161  O     O_R   0.796692 0.971027 0.945784 -0.316317
O162  O     O_R   0.782039 0.919621 0.963361 -0.280946
N58   N     N_R   0.050033 0.781837 0.966891 0.139094
O163  O     O_R   0.031347 0.794734 0.946838 -0.318493
O164  O     O_R   0.083065 0.782024 0.964449 -0.280107
N59   N     N_R   0.217592 0.047737 0.965546 0.140023
O165  O     O_R   0.203469 0.029477 0.945839 -0.316249
O166  O     O_R   0.217957 0.080896 0.963258 -0.280407
N60   N     N_R   0.959839 0.216847 0.960254 0.143053
O167  O     O_R   0.980300 0.201326 0.942916 -0.311901
O168  O     O_R   0.927361 0.217929 0.954752 -0.280878
N61   N     N_R   0.786956 0.020993 0.053669 0.150992
O169  O     O_R   0.807527 0.001597 0.068109 -0.295779
O170  O     O_R   0.784551 0.053249 0.060015 -0.264568
N62   N     N_R   0.016189 0.213488 0.054092 0.152381
O171  O     O_R   0.995218 0.193069 0.067112 -0.295548
O172  O     O_R   0.047521 0.215812 0.062901 -0.264213
N63   N     N_R   0.213048 0.979902 0.054198 0.151018
O173  O     O_R   0.192449 0.999411 0.068398 -0.296229
O174  O     O_R   0.215462 0.947705 0.060894 -0.264277
N64   N     N_R   0.985624 0.787464 0.056879 0.151670
O175  O     O_R   0.005624 0.808744 0.069928 -0.295292
O176  O     O_R   0.954011 0.784766 0.064878 -0.263390
N65   N     N_R   0.284637 0.464048 0.457042 0.146547
O177  O     O_R   0.302366 0.482473 0.439480 -0.316439
O178  O     O_R   0.283149 0.431084 0.453614 -0.270878
N66   N     N_R   0.552371 0.281973 0.467249 0.139017
O179  O     O_R   0.534061 0.295237 0.447119 -0.314235
O180  O     O_R   0.585430 0.281851 0.465088 -0.275919
N67   N     N_R   0.715178 0.538449 0.458330 0.142849
O181  O     O_R   0.697411 0.521138 0.440105 -0.317437
O182  O     O_R   0.716842 0.571570 0.456059 -0.277017
N68   N     N_R   0.488307 0.712417 0.442781 0.152373
O183  O     O_R   0.508499 0.691074 0.430052 -0.298345
O184  O     O_R   0.456821 0.715021 0.434408 -0.264962
N69   N     N_R   0.284945 0.535305 0.543704 0.146399
O185  O     O_R   0.302892 0.516859 0.561097 -0.316702
O186  O     O_R   0.283428 0.568247 0.547248 -0.271427
N70   N     N_R   0.552169 0.718067 0.532997 0.139005
O187  O     O_R   0.533803 0.704723 0.553051 -0.314669
O188  O     O_R   0.585221 0.718257 0.535261 -0.276094
N71   N     N_R   0.715014 0.462108 0.542276 0.142878
O189  O     O_R   0.697119 0.479453 0.560364 -0.317764
O190  O     O_R   0.716698 0.429000 0.544652 -0.277289
N72   N     N_R   0.488231 0.287614 0.557276 0.152227
O191  O     O_R   0.508366 0.309023 0.570035 -0.298883
O192  O     O_R   0.456730 0.284937 0.565578 -0.265087
N73   N     N_R   0.713029 0.939992 0.978240 0.150070
O193  O     O_R   0.692373 0.920440 0.992459 -0.287378
O194  O     O_R   0.715519 0.936050 0.951052 -0.264106
N74   N     N_R   0.062863 0.712247 0.980149 0.150760
O195  O     O_R   0.081810 0.690803 0.994134 -0.285111
O196  O     O_R   0.066833 0.715043 0.952970 -0.263179
N75   N     N_R   0.287045 0.060451 0.978234 0.150095
O197  O     O_R   0.307812 0.079922 0.992342 -0.287128
O198  O     O_R   0.284475 0.064434 0.951035 -0.263750
N76   N     N_R   0.946878 0.286956 0.969980 0.143080
O199  O     O_R   0.924865 0.307455 0.981533 -0.305723
O200  O     O_R   0.947590 0.284013 0.942633 -0.273009
N77   N     N_R   0.717587 0.038078 0.044403 0.142842
O201  O     O_R   0.702736 0.063589 0.031747 -0.301313
O202  O     O_R   0.717988 0.036793 0.071854 -0.263709
N78   N     N_R   0.033981 0.283125 0.045949 0.140109
O203  O     O_R   0.060669 0.298315 0.035519 -0.314937
O204  O     O_R   0.029443 0.282563 0.073155 -0.261478
N79   N     N_R   0.282367 0.962590 0.045060 0.142615
O205  O     O_R   0.297011 0.936900 0.032616 -0.301299
O206  O     O_R   0.282088 0.964074 0.072497 -0.263727
N80   N     N_R   0.967507 0.717923 0.048692 0.140963
O207  O     O_R   0.940682 0.704315 0.037128 -0.304347
O208  O     O_R   0.970629 0.717740 0.076040 -0.262717
N81   N     N_R   0.215231 0.449437 0.468534 0.147261
O209  O     O_R   0.197013 0.427498 0.482667 -0.293958
O210  O     O_R   0.216808 0.447084 0.441170 -0.266159
N82   N     N_R   0.563935 0.212007 0.479645 0.151288
O211  O     O_R   0.582815 0.190177 0.493281 -0.283156
O212  O     O_R   0.567639 0.215158 0.452466 -0.261169
N83   N     N_R   0.784786 0.551860 0.469714 0.148597
O213  O     O_R   0.803183 0.573119 0.484301 -0.291656
O214  O     O_R   0.783011 0.555394 0.442430 -0.264186
N84   N     N_R   0.469666 0.781800 0.450895 0.140465
O215  O     O_R   0.442496 0.795011 0.462172 -0.305950
O216  O     O_R   0.473245 0.782158 0.423588 -0.263692
N85   N     N_R   0.215507 0.549986 0.532451 0.147119
O217  O     O_R   0.197467 0.572146 0.518407 -0.293999
O218  O     O_R   0.217100 0.552129 0.559828 -0.266506
N86   N     N_R   0.563744 0.788065 0.520685 0.151264
O219  O     O_R   0.582680 0.809917 0.507115 -0.283073
O220  O     O_R   0.567350 0.784906 0.547875 -0.261643
N87   N     N_R   0.784613 0.448612 0.531061 0.148445
O221  O     O_R   0.802822 0.427170 0.516534 -0.291851
O222  O     O_R   0.782889 0.445244 0.558360 -0.264554
N88   N     N_R   0.469693 0.218171 0.549198 0.140581
O223  O     O_R   0.442537 0.204915 0.537887 -0.305738
O224  O     O_R   0.473245 0.217836 0.576510 -0.264215
C305  C     C_3   0.601027 0.026648 0.051733 -0.388292
C306  C     C_3   0.612429 0.016457 0.081531 -0.615907
H113  H     H_    0.615794 0.988375 0.083322 0.296580
H114  H     H_    0.636740 0.029341 0.087049 0.263339
H115  H     H_    0.592959 0.024741 0.097068 0.253682
H116  H     H_    0.605020 0.054593 0.049159 0.237281
H117  H     H_    0.573205 0.022364 0.050433 0.213652
C307  C     C_3   0.973301 0.599902 0.051983 -0.386223
C308  C     C_3   0.981191 0.611520 0.082141 -0.622718
H118  H     H_    0.009031 0.614692 0.085306 0.296269
H119  H     H_    0.968079 0.636001 0.086802 0.267718
H120  H     H_    0.971676 0.592109 0.097366 0.252682
H121  H     H_    0.945525 0.602922 0.048233 0.235272
H122  H     H_    0.978565 0.572167 0.050966 0.214210
C309  C     C_3   0.399106 0.973101 0.051767 -0.388016
C310  C     C_3   0.387662 0.982793 0.081609 -0.616836
H123  H     H_    0.384341 0.010849 0.083584 0.296541
H124  H     H_    0.363328 0.969841 0.086990 0.264175
H125  H     H_    0.407100 0.974226 0.097124 0.253483
H126  H     H_    0.395260 0.945175 0.049036 0.237110
H127  H     H_    0.426906 0.977546 0.050521 0.213548
C311  C     C_3   0.016968 0.397928 0.054283 -0.388218
C312  C     C_3   0.053055 0.386933 0.062151 -0.657370
H128  H     H_    0.053777 0.359277 0.067416 0.293129
H129  H     H_    0.070792 0.392171 0.044390 0.267567
H130  H     H_    0.061719 0.401523 0.080902 0.257194
H131  H     H_    0.017312 0.426045 0.051670 0.211495
H132  H     H_    0.999602 0.391813 0.072114 0.267161
C313  C     C_3   0.608274 0.975506 0.951580 -0.394220
C314  C     C_3   0.622066 0.993415 0.925151 -0.600804
H133  H     H_    0.623532 0.021486 0.928274 0.292241
H134  H     H_    0.647806 0.983703 0.919755 0.247825
H135  H     H_    0.605058 0.987967 0.906981 0.268575
H136  H     H_    0.614335 0.947833 0.950068 0.243278
H137  H     H_    0.580135 0.977411 0.951369 0.216600
C315  C     C_3   0.982991 0.392960 0.949177 -0.388389
C316  C     C_3   0.946769 0.383143 0.940637 -0.647106
H138  H     H_    0.944815 0.355250 0.936826 0.292744
H139  H     H_    0.928473 0.390570 0.957417 0.271011
H140  H     H_    0.939789 0.396684 0.920834 0.255808
H141  H     H_    0.983802 0.421210 0.949776 0.216652
H142  H     H_    0.001057 0.384297 0.932626 0.266510
C317  C     C_3   0.391555 0.024571 0.951534 -0.394433
C318  C     C_3   0.377677 0.006610 0.925235 -0.600352
H143  H     H_    0.376290 0.978538 0.928512 0.292072
H144  H     H_    0.351889 0.016256 0.919851 0.247645
H145  H     H_    0.394587 0.012082 0.906996 0.268943
H146  H     H_    0.385486 0.052241 0.949869 0.243415
H147  H     H_    0.419694 0.022671 0.951300 0.216518
C319  C     C_3   0.024010 0.609581 0.951901 -0.393504
C320  C     C_3   0.005213 0.623948 0.926135 -0.599363
H148  H     H_    0.977307 0.624796 0.929883 0.290968
H149  H     H_    0.014303 0.650113 0.921054 0.246033
H150  H     H_    0.010398 0.607578 0.907527 0.271443
H151  H     H_    0.051510 0.615874 0.949810 0.243708
H152  H     H_    0.022276 0.581350 0.951391 0.218313
C321  C     C_3   0.104163 0.525174 0.550534 -0.390654
C322  C     C_3   0.116458 0.510369 0.578741 -0.607565
H153  H     H_    0.119611 0.482225 0.577498 0.294505
H154  H     H_    0.141132 0.522018 0.584962 0.254166
H155  H     H_    0.097673 0.516400 0.595517 0.259895
H156  H     H_    0.109408 0.553083 0.550486 0.240899
H157  H     H_    0.076118 0.522365 0.549653 0.213576
C323  C     C_3   0.473790 0.100140 0.551929 -0.386624
C324  C     C_3   0.481151 0.112106 0.582079 -0.624861
H158  H     H_    0.508956 0.115056 0.585590 0.296041
H159  H     H_    0.468143 0.136753 0.586330 0.269018
H160  H     H_    0.471177 0.092969 0.597338 0.252282
H161  H     H_    0.446043 0.102864 0.547889 0.234585
H162  H     H_    0.479303 0.072443 0.551152 0.212828
C325  C     C_3   0.895840 0.473811 0.550283 -0.390667
C326  C     C_3   0.883537 0.488162 0.578571 -0.608979
H163  H     H_    0.880333 0.516318 0.577493 0.295132
H164  H     H_    0.858886 0.476379 0.584716 0.254035
H165  H     H_    0.902345 0.481912 0.595317 0.259357
H166  H     H_    0.890633 0.445898 0.550058 0.241262
H167  H     H_    0.923879 0.476687 0.549451 0.213980
C327  C     C_3   0.522670 0.890533 0.548733 -0.394057
C328  C     C_3   0.502965 0.876022 0.573964 -0.600965
H168  H     H_    0.475205 0.875197 0.569497 0.289926
H169  H     H_    0.511840 0.849828 0.579171 0.245410
H170  H     H_    0.507476 0.892296 0.592760 0.271620
H171  H     H_    0.550121 0.884477 0.551565 0.244126
H172  H     H_    0.520680 0.918751 0.549167 0.216845
C329  C     C_3   0.104484 0.474493 0.449838 -0.391380
C330  C     C_3   0.116899 0.489128 0.421617 -0.605235
H173  H     H_    0.119861 0.517308 0.422698 0.294908
H174  H     H_    0.141686 0.477608 0.415604 0.254447
H175  H     H_    0.098274 0.482782 0.404784 0.260556
H176  H     H_    0.109809 0.446606 0.450050 0.241282
H177  H     H_    0.076426 0.477177 0.450576 0.214242
C331  C     C_3   0.473516 0.899721 0.448215 -0.387420
C332  C     C_3   0.480649 0.887657 0.418067 -0.623055
H178  H     H_    0.508431 0.884781 0.414439 0.296235
H179  H     H_    0.467653 0.862952 0.413947 0.269386
H180  H     H_    0.470517 0.906703 0.402805 0.252753
H181  H     H_    0.445798 0.896979 0.452380 0.234617
H182  H     H_    0.479027 0.927429 0.448906 0.213223
C333  C     C_3   0.895504 0.526311 0.449952 -0.391455
C334  C     C_3   0.883073 0.511933 0.421700 -0.606325
H183  H     H_    0.880009 0.483756 0.422763 0.295184
H184  H     H_    0.858329 0.523579 0.415658 0.253693
H185  H     H_    0.901741 0.518330 0.404893 0.260552
H186  H     H_    0.890220 0.554202 0.450206 0.241563
H187  H     H_    0.923557 0.523559 0.450696 0.214639
C335  C     C_3   0.523031 0.109565 0.451455 -0.394385
C336  C     C_3   0.503501 0.124075 0.426127 -0.599396
H188  H     H_    0.475707 0.124831 0.430428 0.290152
H189  H     H_    0.512391 0.150293 0.420996 0.245573
H190  H     H_    0.508180 0.107840 0.407345 0.272000
H191  H     H_    0.550499 0.115671 0.448777 0.244290
H192  H     H_    0.521067 0.081344 0.450985 0.217279

loop_
_geom_bond_atom_site_label_1
_geom_bond_atom_site_label_2
_geom_bond_distance
_ccdc_geom_bond_type
C184  N64   1.439472 S    
C303  C304  1.530647 S    
C309  H127  1.106369 S    
O62   C126  1.289560 A    
C232  C266  1.403054 A    
N21   O89   1.301098 A    
C323  H162  1.105973 S    
N87   O221  1.301195 A    
C70   N22   1.434987 S    
C297  H96   1.107282 S    
C245  C257  1.419989 A    
C150  H6    1.075749 S    
N38   O124  1.301665 A    
C83   N35   1.444813 S    
C329  H176  1.111088 S    
C289  C290  1.525479 S    
O53   C123  1.293196 A    
C231  C247  1.401356 A    
C20   N2    1.375506 A    
C66   N18   1.434991 S    
C315  H141  1.106217 S    
N80   O208  1.301670 A    
C228  C268  1.403288 A    
C213  C269  1.502815 S    
C38   C62   1.417741 A    
C159  C167  1.403697 A    
O18   Cu2   1.957277 S    
C299  H101  1.111167 S    
O57   Cu11  1.965010 S    
C142  C299  1.521901 S    
C298  H93   1.110900 S    
N43   O134  1.298605 A    
C189  C205  1.406816 A    
C295  H91   1.111115 S    
C296  H88   1.109795 S    
O63   C125  1.292076 A    
O25   C13   1.297944 A    
C310  H123  1.109762 S    
C90   C106  1.417703 A    
C153  C165  1.403994 A    
N56   O159  1.301228 A    
C143  C175  1.416601 A    
O24   Cu4   1.957270 S    
C227  C243  1.406908 A    
C10   C106  1.478168 S    
C198  C212  1.419758 A    
C197  C209  1.421254 A    
C61   N13   1.434977 S    
C335  H191  1.111333 S    
C291  H82   1.106235 S    
C230  C268  1.405099 A    
C277  C278  1.530503 S    
C167  C223  1.501877 S    
N82   O211  1.301308 A    
Cu1   Cu3   2.680990 S    
N74   O195  1.301301 A    
C76   C114  1.419954 A    
C17   C35   1.411340 A    
C137  C173  1.413433 A    
C287  C288  1.532111 S    
C331  H182  1.105966 S    
C80   C96   1.412122 A    
C136  C170  1.419611 A    
N17   O82   1.301029 A    
C19   N1    1.375743 A    
N64   O176  1.301698 A    
C146  H2    1.077578 S    
C302  H105  1.110519 S    
C44   C54   1.406655 A    
C188  C224  1.420855 A    
C41   C53   1.406866 A    
C83   C117  1.420197 A    
N33   O114  1.301656 A    
C297  H97   1.109192 S    
C225  C265  1.402683 A    
C180  C220  1.419956 A    
C133  C149  1.407384 A    
C23   C37   1.411274 A    
O25   Cu5   1.956716 S    
C158  H14   1.077151 S    
C152  H8    1.074171 S    
C255  C333  1.524777 S    
O14   C8    1.299830 A    
C78   C94   1.412198 A    
C334  H185  1.110388 S    
C48   C72   1.417698 A    
C228  H20   1.079511 S    
C87   N39   1.444698 S    
C204  C216  1.421609 A    
C33   C57   1.417732 A    
N47   O142  1.299001 A    
C59   N11   1.435037 S    
C41   C65   1.417810 A    
C18   O34   1.348415 S    
N5    C116  1.461189 S    
C190  C206  1.410413 A    
C251  C263  1.421548 A    
N6    C115  1.461521 S    
C248  C258  1.418947 A    
C255  C263  1.421403 A    
C291  C292  1.530462 S    
C238  C254  1.408547 A    
N10   O68   1.301026 A    
O17   C9    1.297855 A    
C22   O38   1.348400 S    
C284  H60   1.110484 S    
C85   N37   1.444894 S    
C47   C71   1.417789 A    
C330  H173  1.109939 S    
N73   O193  1.301274 A    
O31   C15   1.297917 A    
C9    C105  1.477095 S    
N77   O201  1.301093 A    
O10   C6    1.299725 A    
C137  C153  1.398754 A    
C177  N57   1.434166 S    
C121  C172  1.473566 S    
C138  C174  1.419091 A    
C131  C277  1.522040 S    
C325  C326  1.533161 S    
C12   C108  1.477614 S    
C296  H89   1.110671 S    
C321  C322  1.533133 S    
C123  C170  1.478608 S    
C188  N68   1.439782 S    
C178  C218  1.421348 A    
C168  C224  1.512529 S    
N42   O132  1.298389 A    
C91   C105  1.416305 A    
C25   O41   1.348357 S    
N83   O213  1.301202 A    
C144  C160  1.409970 A    
C301  C302  1.526574 S    
C215  C271  1.502404 S    
N50   O147  1.301266 A    
C294  H84   1.111053 S    
C282  H53   1.108930 S    
C96   C108  1.417493 A    
C73   C89   1.412612 A    
C318  H144  1.109822 S    
C181  C217  1.420837 A    
C293  H87   1.109685 S    
C306  H114  1.110340 S    
C44   C68   1.417720 A    
C134  C150  1.405220 A    
C186  C222  1.421108 A    
C183  C219  1.420940 A    
C76   C92   1.412695 A    
N65   O177  1.301163 A    
C334  H184  1.110104 S    
N35   O118  1.301666 A    
C154  H10   1.077215 S    
C275  H41   1.111204 S    
O26   Cu6   1.957276 S    
N40   O128  1.301636 A    
C48   C56   1.406892 A    
C155  H11   1.080210 S    
N57   O161  1.301047 A    
N60   O168  1.301666 A    
C304  H108  1.109782 S    
O27   C13   1.297711 A    
C8    C264  1.478032 S    
C283  H62   1.106106 S    
C129  C145  1.402124 A    
C326  H163  1.109926 S    
C149  C161  1.403484 A    
C208  N88   1.433475 S    
C28   C42   1.411280 A    
C25   C43   1.411401 A    
C93   N45   1.439551 S    
N28   O104  1.301712 A    
O56   C124  1.292819 A    
C322  H155  1.110420 S    
C246  C260  1.415440 A    
C313  H137  1.107021 S    
C141  C173  1.413384 A    
C133  C169  1.418611 A    
C147  H3    1.077391 S    
C207  N87   1.436996 S    
N78   O203  1.301075 A    
C29   C47   1.411484 A    
C32   O48   1.348395 S    
C336  H190  1.110331 S    
C26   C44   1.411216 A    
N59   O165  1.301038 A    
C226  C242  1.407679 A    
N52   O151  1.301250 A    
C31   C45   1.411536 A    
C133  C281  1.526087 S    
C324  H160  1.110685 S    
C297  C298  1.525596 S    
C37   C61   1.417751 A    
C310  H125  1.110544 S    
C235  C251  1.401471 A    
C241  C257  1.422634 A    
N8    C113  1.461297 S    
N85   O217  1.301205 A    
C229  C265  1.402644 A    
C278  H44   1.110146 S    
C277  H46   1.111167 S    
O54   Cu10  1.970370 S    
C101  N53   1.439421 S    
C93   C107  1.416244 A    
C322  H154  1.110143 S    
O9    C5    1.295527 A    
C81   C97   1.412380 A    
C214  C270  1.512735 S    
C75   N27   1.444660 S    
O11   C7    1.295779 A    
N42   O131  1.301306 A    
C302  H104  1.111048 S    
N74   O196  1.301694 A    
C135  C171  1.418938 A    
C42   C66   1.417748 A    
C134  C172  1.419907 A    
N27   O102  1.301660 A    
O4    C4    1.296484 A    
C183  C199  1.410489 A    
C333  C334  1.533009 S    
C39   C63   1.417729 A    
C82   N34   1.444637 S    
O50   Cu9   1.970562 S    
C30   O46   1.348401 S    
C274  H33   1.109565 S    
O5    Cu3   1.970459 S    
C185  N65   1.436799 S    
O55   C121  1.292237 A    
N45   O138  1.299011 A    
N32   O112  1.301618 A    
C330  H174  1.110117 S    
C250  C262  1.421549 A    
C309  C310  1.532717 S    
C178  N58   1.433277 S    
N41   O130  1.298610 A    
C300  H99   1.109799 S    
C65   N17   1.435056 S    
N70   O188  1.301627 A    
C138  C291  1.521676 S    
C236  C272  1.403616 A    
C85   C119  1.420137 A    
C156  C168  1.404427 A    
C314  H134  1.109836 S    
N67   O181  1.301173 A    
C27   N5    1.375942 A    
C91   N43   1.439421 S    
C193  N73   1.439027 S    
C45   C55   1.407318 A    
C31   N7    1.375369 A    
N13   O73   1.301077 A    
C189  C221  1.419713 A    
N23   O94   1.301031 A    
C292  H78   1.110283 S    
C283  C284  1.531897 S    
C187  C223  1.419346 A    
C125  C176  1.480179 S    
O50   C122  1.291521 A    
C276  H38   1.109539 S    
C237  H29   1.076713 S    
C88   N40   1.444321 S    
C202  C214  1.421055 A    
C323  C324  1.532007 S    
C122  C169  1.477508 S    
N62   O172  1.301698 A    
C252  C264  1.419077 A    
C18   C36   1.411479 A    
O53   Cu10  1.965011 S    
C26   O42   1.348389 S    
C241  C305  1.527080 S    
N84   O216  1.301683 A    
C142  C158  1.401530 A    
C7    C263  1.471005 S    
C289  H77   1.109071 S    
C86   C102  1.412316 A    
C81   C117  1.420082 A    
C190  N70   1.433096 S    
N46   O139  1.301443 A    
C130  C170  1.419360 A    
C313  C314  1.532206 S    
C17   N1    1.375758 A    
Cu2   Cu4   2.689335 S    
C182  C220  1.419328 A    
C42   C54   1.406722 A    
C201  N81   1.437194 S    
C21   C39   1.411233 A    
C90   N42   1.439425 S    
C78   C116  1.420085 A    
O51   Cu9   1.963831 S    
C43   C67   1.417706 A    
C315  C316  1.527140 S    
C332  H179  1.110434 S    
C274  H35   1.110806 S    
C63   N15   1.435035 S    
C245  C313  1.522096 S    
C57   C72   1.412699 A    
O28   C14   1.301465 A    
O26   C14   1.299699 A    
C158  C168  1.403238 A    
O29   C15   1.297847 A    
O62   Cu12  1.970370 S    
C316  H138  1.109324 S    
O8    Cu4   1.964224 S    
C59   C70   1.412762 A    
O30   C16   1.299752 A    
C87   C103  1.412454 A    
C242  C258  1.422048 A    
C326  H165  1.110420 S    
C191  N71   1.436593 S    
C320  H149  1.109774 S    
C238  H30   1.073938 S    
C319  H152  1.106978 S    
C308  H118  1.109788 S    
C225  H17   1.074736 S    
N68   O184  1.301697 A    
N69   O186  1.301713 A    
C69   N21   1.434962 S    
C45   C69   1.417723 A    
C43   C53   1.406951 A    
C206  N86   1.439529 S    
C299  C300  1.530507 S    
O19   Cu3   1.957889 S    
C127  C174  1.480333 S    
C204  N84   1.433512 S    
N81   O210  1.301740 A    
C311  H132  1.111285 S    
N44   O136  1.298307 A    
C156  H12   1.074506 S    
O57   C125  1.293857 A    
N32   O111  1.300537 A    
C84   C100  1.412159 A    
C286  H65   1.110485 S    
C135  C151  1.407784 A    
C154  C166  1.403241 A    
C85   C101  1.412584 A    
N14   O75   1.301083 A    
N58   O164  1.301696 A    
C162  C218  1.511082 S    
C144  C174  1.420780 A    
C11   C107  1.476505 S    
C335  C336  1.531778 S    
N34   O115  1.300511 A    
C312  H130  1.110573 S    
C86   C120  1.419976 A    
N29   O106  1.301650 A    
C281  H57   1.105241 S    
C321  H156  1.111073 S    
O52   C124  1.291875 A    
C327  H172  1.107157 S    
C21   O37   1.348370 S    
C185  C201  1.406630 A    
C148  H4    1.078013 S    
N66   O180  1.301627 A    
O60   C128  1.289533 A    
C30   C48   1.411289 A    
O16   Cu8   1.964224 S    
C239  C271  1.400736 A    
N41   O129  1.301295 A    
C75   C113  1.419959 A    
C84   N36   1.444259 S    
C140  C156  1.409892 A    
C237  C269  1.400892 A    
N23   O93   1.301161 A    
C303  H112  1.104027 S    
C137  C289  1.512247 S    
C320  H148  1.110225 S    
C250  C323  1.528079 S    
C236  C252  1.401390 A    
C97   N49   1.439680 S    
Cu9   Cu10  2.668859 S    
C253  C261  1.420969 A    
C234  C250  1.408707 A    
C279  H52   1.106304 S    
O6    Cu2   1.964219 S    
C202  N82   1.439557 S    
N53   O154  1.298958 A    
N16   O79   1.301097 A    
C232  H24   1.077922 S    
C98   N50   1.438936 S    
N83   O214  1.301714 A    
N54   O156  1.298571 A    
C296  H90   1.110504 S    
N40   O127  1.300524 A    
C68   N20   1.435028 S    
C287  H72   1.105965 S    
N20   O87   1.301079 A    
N12   O72   1.301027 A    
C29   N7    1.375667 A    
C314  H135  1.110286 S    
C236  H28   1.078078 S    
C291  H81   1.111184 S    
C143  C301  1.517388 S    
N51   O149  1.301266 A    
C99   C109  1.416229 A    
C38   C52   1.406841 A    
N70   O187  1.301034 A    
C18   N2    1.375519 A    
N57   O162  1.301707 A    
O21   Cu3   1.956712 S    
C292  H80   1.110546 S    
C199  C211  1.421364 A    
C104  C112  1.416494 A    
C147  C163  1.403504 A    
C285  H66   1.110410 S    
C151  C163  1.403625 A    
C148  C164  1.401536 A    
C126  C173  1.466607 S    
C283  H61   1.110311 S    
C60   C69   1.412564 A    
C243  C259  1.422521 A    
C103  N55   1.439202 S    
N30   O107  1.300851 A    
N47   O141  1.301230 A    
N87   O222  1.301712 A    
C87   C119  1.420035 A    
O20   Cu4   1.957466 S    
C145  C161  1.403506 A    
C256  C262  1.419162 A    
N37   O122  1.301660 A    
C74   N26   1.444517 S    
C75   C91   1.412571 A    
O12   C8    1.300320 A    
O1    C1    1.297079 A    
C102  C112  1.416123 A    
C104  N56   1.439356 S    
C328  H170  1.110432 S    
C230  H22   1.080842 S    
C304  H110  1.110505 S    
C254  C264  1.421273 A    
C32   N8    1.375797 A    
C83   C99   1.412688 A    
O13   C5    1.295891 A    
C200  N80   1.433548 S    
C37   C51   1.406712 A    
C46   C70   1.417748 A    
C74   C90   1.412596 A    
C23   N3    1.375978 A    
C295  H92   1.104066 S    
C52   C53   1.406403 A    
C180  C196  1.406549 A    
C310  H124  1.110351 S    
N56   O160  1.298852 A    
N15   O78   1.301032 A    
C273  H37   1.106830 S    
C277  H47   1.106768 S    
C316  H140  1.110623 S    
C187  N67   1.436500 S    
C132  C279  1.523028 S    
C46   C56   1.406944 A    
C285  C286  1.531781 S    
O29   Cu7   1.956712 S    
C96   N48   1.439387 S    
N79   O205  1.301078 A    
C207  C215  1.419735 A    
N34   O116  1.301663 A    
N29   O105  1.300517 A    
C308  H120  1.110685 S    
C205  N85   1.436993 S    
N88   O223  1.301063 A    
C290  H73   1.110914 S    
N3    C118  1.461558 S    
C238  C272  1.404231 A    
C15   C111  1.476813 S    
N4    C117  1.461370 S    
C16   C112  1.477530 S    
C298  H95   1.110376 S    
C140  C295  1.528095 S    
C273  H36   1.111171 S    
C146  C162  1.403538 A    
C152  C162  1.403505 A    
N17   O81   1.301137 A    
C58   C71   1.412529 A    
C34   C50   1.407244 A    
N39   O125  1.300519 A    
C286  H63   1.108852 S    
O22   C12   1.300705 A    
C216  C272  1.512662 S    
C246  C315  1.517506 S    
N24   O95   1.301095 A    
C232  C248  1.400208 A    
C149  H5    1.074748 S    
C312  H128  1.110193 S    
N71   O190  1.301689 A    
C94   N46   1.440947 S    
N22   O91   1.301093 A    
C82   C98   1.412390 A    
C177  C193  1.408866 A    
C95   N47   1.439503 S    
N76   O199  1.301266 A    
C95   C107  1.416240 A    
C80   N32   1.443999 S    
O15   Cu5   1.970460 S    
C212  C268  1.502300 S    
C103  C111  1.416048 A    
C275  C276  1.530551 S    
C92   C106  1.418182 A    
C28   N6    1.375968 A    
C276  H40   1.110834 S    
C251  C325  1.524923 S    
N49   O145  1.301271 A    
C192  C222  1.420924 A    
C284  H59   1.110607 S    
C254  C331  1.528069 S    
N48   O144  1.298857 A    
C317  C318  1.532153 S    
O51   C123  1.291969 A    
C205  C213  1.420010 A    
N26   O99   1.300492 A    
O63   Cu12  1.963832 S    
C182  N62   1.438786 S    
O49   C121  1.290362 A    
C305  H116  1.110873 S    
C28   O44   1.348381 S    
C130  C275  1.521766 S    
O54   C122  1.292917 A    
C36   C50   1.407180 A    
C61   C68   1.412885 A    
N61   O170  1.301720 A    
C293  H86   1.106070 S    
C256  C335  1.520722 S    
N19   O85   1.301080 A    
C318  H143  1.110163 S    
O32   Cu8   1.957270 S    
N50   O148  1.298532 A    
C282  H54   1.110550 S    
N63   O173  1.301273 A    
C100  C110  1.416688 A    
C79   N31   1.444454 S    
C320  H150  1.110302 S    
C253  C329  1.524764 S    
C226  C266  1.403454 A    
C330  H175  1.110287 S    
N25   O98   1.301659 A    
C141  C297  1.512261 S    
O22   Cu2   1.957464 S    
C275  H42   1.106324 S    
N31   O109  1.300512 A    
N65   O178  1.301715 A    
C273  C274  1.530398 S    
O21   C11   1.297783 A    
C19   O35   1.348418 S    
N21   O90   1.301023 A    
C22   N4    1.375832 A    
C323  H161  1.110797 S    
C142  C176  1.419112 A    
C129  C169  1.418954 A    
O23   Cu1   1.957883 S    
C140  C176  1.420826 A    
C24   C38   1.411339 A    
N38   O123  1.300516 A    
C88   C104  1.412166 A    
C326  H164  1.110125 S    
C329  H177  1.106868 S    
N73   O194  1.301720 A    
N36   O119  1.300515 A    
C5    C261  1.470275 S    
C26   N6    1.375979 A    
C289  H76   1.107259 S    
C324  H158  1.109839 S    
N80   O207  1.301056 A    
C82   C118  1.420013 A    
C30   N8    1.375792 A    
C328  H168  1.110282 S    
C282  H55   1.110487 S    
C226  H18   1.074046 S    
C239  C255  1.401196 A    
C196  N76   1.438138 S    
C247  C317  1.521926 S    
N78   O204  1.301656 A    
O64   C128  1.289415 A    
C181  C197  1.410289 A    
C288  H69   1.110484 S    
C78   N30   1.446469 S    
C334  H183  1.109947 S    
N52   O152  1.298798 A    
C311  C312  1.526296 S    
N33   O113  1.300521 A    
C135  C285  1.526358 S    
C184  C200  1.410411 A    
O8    C2    1.299829 A    
C313  H136  1.111268 S    
C197  N77   1.434450 S    
C150  C164  1.401394 A    
C233  H25   1.076691 S    
N18   O84   1.301024 A    
C131  C171  1.419118 A    
C280  H48   1.109265 S    
C242  C307  1.527997 S    
C305  C306  1.532839 S    
O28   Cu8   1.957466 S    
C25   N5    1.375664 A    
C97   C109  1.416258 A    
O52   Cu9   1.970370 S    
N24   O96   1.301028 A    
Cu11  Cu12  2.668859 S    
O30   Cu6   1.957464 S    
C235  C271  1.400813 A    
C60   N12   1.435016 S    
C327  C328  1.531837 S    
C155  C167  1.403702 A    
C233  C269  1.400957 A    
C331  H181  1.110803 S    
C86   N38   1.444739 S    
N64   O175  1.301299 A    
C40   C52   1.406875 A    
C208  C214  1.421541 A    
N85   O218  1.301734 A    
C199  N79   1.434331 S    
C301  H107  1.109691 S    
C134  C283  1.527213 S    
C248  C319  1.521172 S    
C191  C207  1.406991 A    
C274  H34   1.110080 S    
O61   C127  1.293903 A    
O9    Cu5   1.970198 S    
C279  C280  1.531102 S    
C190  C224  1.421102 A    
C130  C146  1.401616 A    
C335  H192  1.107100 S    
C99   N51   1.439592 S    
C333  H187  1.106874 S    
O11   Cu7   1.970198 S    
C336  H189  1.109725 S    
C300  H98   1.110280 S    
N55   O158  1.298975 A    
C2    C258  1.476233 S    
N63   O174  1.301721 A    
N31   O110  1.301651 A    
C77   C115  1.420188 A    
N13   O74   1.301024 A    
C186  C202  1.410426 A    
C19   C33   1.411321 A    
C180  N60   1.434853 S    
N10   O67   1.301112 A    
N51   O150  1.298934 A    
N67   O182  1.301691 A    
N72   O192  1.301693 A    
N11   O69   1.301099 A    
C79   C95   1.412221 A    
C285  H67   1.105511 S    
C225  C241  1.406528 A    
O6    C4    1.297836 A    
C292  H79   1.109749 S    
N72   O191  1.301315 A    
C249  C321  1.524844 S    
C231  C267  1.402798 A    
N48   O143  1.301219 A    
C206  C216  1.421045 A    
N75   O197  1.301273 A    
C139  C155  1.399299 A    
O61   Cu12  1.965011 S    
N66   O179  1.301029 A    
C143  C159  1.399329 A    
C290  H75   1.110389 S    
C249  C261  1.421161 A    
C329  C330  1.532895 S    
O31   Cu5   1.957883 S    
C22   C40   1.411334 A    
C201  C213  1.420049 A    
C234  H26   1.073964 S    
C318  H145  1.110247 S    
C62   N14   1.434988 S    
C240  C270  1.403500 A    
C294  H83   1.109959 S    
C36   C60   1.417683 A    
N46   O140  1.298621 A    
C6    C262  1.478287 S    
C63   C66   1.412919 A    
C160  C166  1.404511 A    
O18   C10   1.300594 A    
C306  H113  1.109771 S    
C165  C221  1.502046 S    
C160  H16   1.074502 S    
N19   O86   1.301027 A    
C49   C56   1.406452 A    
C244  C311  1.516745 S    
C166  C222  1.512665 S    
C3    C259  1.477202 S    
C336  H188  1.110260 S    
C40   C64   1.417701 A    
C14   C110  1.477464 S    
C317  H147  1.107052 S    
C51   C54   1.406140 A    
O59   C127  1.292127 A    
C84   C118  1.419967 A    
C295  C296  1.530653 S    
C35   C49   1.406912 A    
C89   C105  1.416320 A    
N9    O66   1.301024 A    
N60   O167  1.301095 A    
C145  H1    1.077434 S    
C24   O40   1.348393 S    
C62   C67   1.412817 A    
C332  H178  1.109815 S    
N86   O220  1.301681 A    
C281  H56   1.110447 S    
C286  H64   1.110574 S    
O13   Cu7   1.970459 S    
C178  C194  1.408837 A    
C299  H102  1.106221 S    
C280  H49   1.110227 S    
N82   O212  1.301681 A    
C305  H117  1.106380 S    
N28   O103  1.300909 A    
O2    C2    1.299432 A    
N25   O97   1.300489 A    
N59   O166  1.301703 A    
N69   O185  1.301175 A    
O23   C11   1.297992 A    
C151  H7    1.074620 S    
O16   C6    1.300537 A    
C77   N29   1.444509 S    
N81   O209  1.301199 A    
C21   N3    1.376002 A    
C198  N78   1.434893 S    
C210  C266  1.510554 S    
O64   Cu12  1.970562 S    
C298  H94   1.110039 S    
O4    Cu4   1.964486 S    
C131  C147  1.402192 A    
C278  H43   1.109421 S    
N14   O76   1.301022 A    
C13   C109  1.476555 S    
C31   O47   1.348392 S    
C322  H153  1.109969 S    
N36   O120  1.301637 A    
C312  H129  1.111039 S    
C230  C246  1.399574 A    
C307  H122  1.106010 S    
N55   O157  1.301228 A    
C4    C260  1.466356 S    
C193  C209  1.420361 A    
C76   N28   1.446973 S    
C307  C308  1.532342 S    
C306  H115  1.110536 S    
C57   N9    1.434972 S    
N45   O137  1.301236 A    
C141  C157  1.398764 A    
O20   C10   1.301077 A    
C20   O36   1.348421 S    
O32   C16   1.301410 A    
O58   Cu11  1.970562 S    
O60   Cu11  1.970370 S    
C229  C245  1.401249 A    
C128  C175  1.465917 S    
C195  C211  1.420507 A    
N71   O189  1.301178 A    
C34   C58   1.417693 A    
N26   O100  1.301647 A    
C196  C212  1.418890 A    
C50   C55   1.406896 A    
C183  N63   1.438955 S    
N15   O77   1.301080 A    
C88   C120  1.419975 A    
O2    Cu2   1.964480 S    
N53   O153  1.301255 A    
N16   O80   1.301029 A    
C192  C208  1.410941 A    
C231  H23   1.077660 S    
O49   Cu9   1.965010 S    
O17   Cu1   1.956716 S    
O15   C7    1.295996 A    
C189  N69   1.436907 S    
C136  C287  1.526735 S    
C239  H31   1.077091 S    
N20   O88   1.301026 A    
C333  H186  1.111089 S    
C188  C204  1.410839 A    
C227  C267  1.402952 A    
C20   C34   1.411485 A    
C309  H126  1.110858 S    
O10   Cu6   1.964480 S    
C247  C259  1.419909 A    
N86   O219  1.301306 A    
C280  H50   1.110901 S    
N22   O92   1.301026 A    
C39   C51   1.406652 A    
Cu5   Cu7   2.680986 S    
C67   N19   1.435005 S    
C317  H146  1.111270 S    
O58   C126  1.289495 A    
Cu6   Cu8   2.689331 S    
C288  H70   1.110479 S    
O3    Cu3   1.970198 S    
C47   C55   1.407221 A    
O27   Cu7   1.957889 S    
C80   C116  1.419985 A    
N62   O171  1.301262 A    
O7    Cu1   1.970460 S    
C252  C327  1.520714 S    
N49   O146  1.298890 A    
C293  C294  1.526595 S    
N1    C120  1.461193 S    
C102  N54   1.438706 S    
N84   O215  1.301062 A    
C325  H167  1.106894 S    
C159  H15   1.080170 S    
N2    C119  1.460914 S    
C228  C244  1.399595 A    
N77   O202  1.301704 A    
N37   O121  1.300524 A    
C157  H13   1.079559 S    
C203  C215  1.419784 A    
C138  C154  1.401521 A    
C294  H85   1.110519 S    
C328  H169  1.109735 S    
C307  H121  1.110804 S    
C304  H109  1.110667 S    
C235  H27   1.077049 S    
C233  C249  1.401275 A    
C203  N83   1.437150 S    
O59   Cu11  1.963831 S    
O19   C9    1.297988 A    
C290  H74   1.110148 S    
N35   O117  1.300516 A    
C194  C210  1.420299 A    
C191  C223  1.419394 A    
N43   O133  1.301287 A    
C332  H180  1.110668 S    
C163  C219  1.511101 S    
O3    C3    1.297156 A    
C81   N33   1.444590 S    
C24   N4    1.375842 A    
C240  H32   1.078057 S    
C73   C113  1.420004 A    
O5    C1    1.297507 A    
C186  N66   1.433074 S    
C316  H139  1.111064 S    
O12   Cu8   1.964486 S    
C209  C265  1.509974 S    
C32   C46   1.411381 A    
C164  C220  1.503060 S    
N79   O206  1.301699 A    
C227  H19   1.074577 S    
C77   C93   1.412300 A    
C179  N59   1.434038 S    
O14   Cu6   1.964218 S    
C281  C282  1.531761 S    
N88   O224  1.301676 A    
C319  H151  1.111329 S    
C308  H119  1.110411 S    
N68   O183  1.301315 A    
C185  C221  1.419666 A    
C73   N25   1.444720 S    
O56   Cu10  1.970562 S    
N7    C114  1.460810 S    
C74   C114  1.419779 A    
C287  H71   1.110304 S    
C194  N74   1.439715 S    
C302  H103  1.109974 S    
C182  C198  1.407868 A    
C325  H166  1.111073 S    
C153  H9    1.079643 S    
C311  H131  1.106807 S    
C72   N24   1.435030 S    
N44   O135  1.301528 A    
C181  N61   1.438875 S    
C29   O45   1.348445 S    
C71   N23   1.435078 S    
C319  C320  1.531955 S    
C177  C217  1.421334 A    
C136  C152  1.407702 A    
C278  H45   1.110803 S    
C27   O43   1.348437 S    
C211  C267  1.510676 S    
N58   O163  1.300986 A    
C288  H68   1.108534 S    
C100  N52   1.439640 S    
C243  C309  1.527220 S    
N39   O126  1.301652 A    
C98   C110  1.416322 A    
C101  C111  1.416097 A    
C64   C65   1.412757 A    
C321  H157  1.106907 S    
O7    C3    1.297642 A    
C327  H171  1.111322 S    
C1    C257  1.476776 S    
N18   O83   1.301079 A    
C195  N75   1.439084 S    
C331  C332  1.531829 S    
C300  H100  1.110553 S    
N30   O108  1.301722 A    
C58   N10   1.434989 S    
C314  H133  1.110150 S    
C234  C270  1.404251 A    
C229  H21   1.077670 S    
N27   O101  1.300486 A    
C324  H159  1.110429 S    
C64   N16   1.435027 S    
C301  H106  1.106102 S    
C315  H142  1.111355 S    
N11   O70   1.301030 A    
C89   N41   1.439453 S    
C284  H58   1.108861 S    
N9    O65   1.301090 A    
C33   C49   1.406955 A    
C303  H111  1.111121 S    
C144  C303  1.528072 S    
C179  C219  1.421401 A    
C132  C148  1.400000 A    
C139  C293  1.517404 S    
C35   C59   1.417713 A    
C157  C165  1.403997 A    
C279  H51   1.111147 S    
C179  C195  1.409151 A    
C161  C217  1.510443 S    
C129  C273  1.521762 S    
N75   O198  1.301723 A    
O55   Cu10  1.963832 S    
C17   O33   1.348385 S    
C124  C171  1.477988 S    
C200  C210  1.421239 A    
C276  H39   1.110086 S    
C139  C175  1.416614 A    
C192  N72   1.439776 S    
N54   O155  1.301247 A    
O24   C12   1.300839 A    
C240  C256  1.401325 A    
C94   C108  1.417744 A    
C237  C253  1.400948 A    
C79   C115  1.420116 A    
C27   C41   1.411296 A    
N12   O71   1.301109 A    
C187  C203  1.406904 A    
C92   N44   1.441403 S    
O1    Cu1   1.970198 S    
C132  C172  1.419732 A    
C23   O39   1.348393 S    
N76   O200  1.301657 A    
N61   O169  1.301275 A    
C244  C260  1.416548 A    
C184  C218  1.420889 A    
