data_mof_unit_8771.cif
_audit_creation_date              2013-03-05T16:00:39-0500
_audit_creation_method            fapswitch 2.2
_symmetry_space_group_name_H-M    P1
_symmetry_Int_Tables_number       1
_space_group_crystal_system       triclinic
_cell_length_a                    10.902027
_cell_length_b                    14.789191
_cell_length_c                    14.670017
_cell_angle_alpha                 65.050318
_cell_angle_beta                  104.296409
_cell_angle_gamma                 102.150686
_cell_volume                      2062.86173145

loop_
_atom_site_label
_atom_site_type_symbol
_atom_site_description
_atom_site_fract_x
_atom_site_fract_y
_atom_site_fract_z
_atom_type_partial_charge
O1    O     O_R   0.455060 0.022100 0.338110 -0.544133
O2    O     O_R   0.512640 0.160150 0.379180 -0.511012
C1    C     C_R   0.480670 0.120282 0.311630 0.933677
O3    O     O_R   0.288900 0.930980 0.479450 -0.476858
O4    O     O_R   0.346480 0.069030 0.520520 -0.563652
C2    C     C_R   0.260597 0.002869 0.497269 1.018623
Cu1   Cu    Cu3+1 0.465900 0.918260 0.475680 1.229932
Cu2   Cu    Cu3+1 0.534100 0.081740 0.524320 1.208549
O5    O     O_R   0.487360 0.839850 0.620820 -0.482785
O6    O     O_R   0.544940 0.977900 0.661890 -0.516622
O7    O     O_R   0.653520 0.930970 0.479480 -0.527012
O8    O     O_R   0.711100 0.069020 0.520550 -0.528824
C3    C     C_R   0.523116 0.880344 0.688506 0.937187
C4    C     C_R   0.739563 0.001619 0.496531 1.021282
C5    C     C_3   0.043429 0.016073 0.386133 1.003260
C6    C     C_3   0.894330 0.998703 0.386538 0.257308
C7    C     C_3   0.072405 0.907453 0.577350 0.908043
C8    C     C_3   0.103753 0.094978 0.520777 -0.074224
C9    C     C_3   0.123518 0.006904 0.493836 -0.650113
H1    H     H_    0.135781 0.069498 0.604961 0.209174
C10   C     C_3   0.877657 0.005450 0.490422 -0.681796
C11   C     C_3   0.933767 0.912853 0.583294 0.910362
C12   C     C_3   0.960659 0.107151 0.496430 0.673314
C13   C     C_R   0.474752 0.190840 0.202503 -0.310866
C14   C     C_R   0.548205 0.812652 0.798097 -0.351111
C15   C     C_R   0.387612 0.232655 0.021765 0.704789
C16   C     C_R   0.388945 0.167086 0.123956 0.147297
C17   C     C_R   0.552805 0.285584 0.175180 0.382508
C18   C     C_R   0.521504 0.360922 0.076574 -0.088185
C19   C     C_R   0.456499 0.329065 0.997002 -0.274936
C20   C     C_R   0.556802 0.466253 0.053589 -0.114072
C21   C     C_R   0.540601 0.534753 0.950006 -0.104432
C22   C     C_R   0.511907 0.495277 0.873563 0.690438
C23   C     C_R   0.463237 0.394694 0.895075 0.285628
C24   C     C_R   0.602331 0.505852 0.130041 0.672923
C25   C     C_R   0.643524 0.608173 0.105423 0.292065
C26   C     C_R   0.615731 0.677878 0.003240 -0.309168
C27   C     C_R   0.558208 0.640317 0.925728 -0.079059
C28   C     C_R   0.637325 0.783877 0.976089 0.267654
C29   C     C_R   0.610392 0.849463 0.873529 0.568819
C30   C     C_R   0.512176 0.709090 0.827045 0.694938
N1    N     N_R   0.585360 0.204570 0.560800 -0.346460
N2    N     N_R   0.414550 0.795430 0.439160 -0.353493
C31   C     C_R   0.707367 0.276820 0.677103 0.193081
C32   C     C_R   0.674380 0.197887 0.644894 0.719308
C33   C     C_R   0.523956 0.287363 0.505102 0.842195
C34   C     C_R   0.556570 0.374445 0.529206 -0.154755
C35   C     C_R   0.647853 0.365768 0.620023 -0.310574
C36   C     C_R   0.499846 0.467205 0.470440 -0.101207
C37   C     C_R   0.529196 0.545765 0.508343 -0.078207
C38   C     C_R   0.633451 0.537890 0.590341 0.334247
C39   C     C_R   0.681468 0.446828 0.650413 0.675594
C40   C     C_R   0.423272 0.489063 0.371665 0.678508
C41   C     C_R   0.360614 0.574238 0.321754 0.704738
C42   C     C_R   0.375279 0.645089 0.364367 -0.410446
C43   C     C_R   0.460539 0.633172 0.457642 -0.216299
C44   C     C_R   0.307589 0.729233 0.313680 0.621630
C45   C     C_R   0.329707 0.803510 0.352186 0.668904
C46   C     C_R   0.470560 0.709169 0.496285 0.812829
F1    F     F_    0.077412 0.951403 0.353132 -0.489894
N3    N     N_R   0.935461 0.140450 0.571389 0.181247
O9    O     O_R   0.902034 0.229772 0.539848 -0.211149
O10   O     O_R   0.965061 0.090355 0.669370 -0.183406
F2    F     F_    0.150091 0.892785 0.671880 -0.569238
F3    F     F_    0.931668 0.917671 0.674937 -0.544045
N4    N     N_R   0.432186 0.358867 0.813976 0.200379
O11   O     O_R   0.372866 0.412623 0.724347 -0.234970
O12   O     O_R   0.478971 0.280043 0.825130 -0.250078
F4    F     F_    0.419859 0.676851 0.762373 -0.527040
F5    F     F_    0.636769 0.949916 0.849527 -0.509323
N5    N     N_R   0.717131 0.638698 0.185597 0.192573
O13   O     O_R   0.835523 0.677315 0.181927 -0.180339
O14   O     O_R   0.673692 0.613458 0.269182 -0.249673
F6    F     F_    0.306092 0.206418 0.947943 -0.510163
N6    N     N_R   0.298911 0.078601 0.146543 0.209551
O15   O     O_R   0.290273 0.017786 0.101344 -0.138119
O16   O     O_R   0.206855 0.072375 0.191569 -0.138320
N7    N     N_R   0.681204 0.295714 0.230489 0.212841
O17   O     O_R   0.775494 0.332676 0.180311 -0.203045
O18   O     O_R   0.705024 0.277707 0.327477 -0.186453
F7    F     F_    0.077309 0.110693 0.315961 -0.519993
F8    F     F_    0.543143 0.551370 0.780047 -0.542482
F9    F     F_    0.606153 0.446824 0.230209 -0.556807
N8    N     N_R   0.676668 0.827060 0.051342 0.205989
O19   O     O_R   0.776106 0.894348 0.045818 -0.118684
O20   O     O_R   0.599226 0.814912 0.111471 -0.236443
F10   F     F_    0.770886 0.441816 0.734775 -0.540447
F11   F     F_    0.527399 0.694755 0.593136 -0.528318
F12   F     F_    0.264054 0.883616 0.302995 -0.493084
F13   F     F_    0.288391 0.588756 0.227903 -0.495235
N9    N     N_R   0.804481 0.265982 0.765697 0.244582
O21   O     O_R   0.784436 0.197381 0.853973 -0.145396
O22   O     O_R   0.920057 0.308616 0.754468 -0.154676
F14   F     F_    0.732101 0.113409 0.698195 -0.502895
F15   F     F_    0.424370 0.278301 0.433193 -0.531857
N10   N     N_R   0.834020 0.076504 0.292767 0.246029
O23   O     O_R   0.726691 0.102237 0.290774 -0.355392
O24   O     O_R   0.860522 0.091442 0.205249 -0.125764
N11   N     N_R   0.714509 0.625747 0.594974 0.216654
O25   O     O_R   0.743246 0.695794 0.510523 -0.212122
O26   O     O_R   0.772665 0.630665 0.681974 -0.092849
F16   F     F_    0.419903 0.437744 0.313611 -0.508072
F17   F     F_    0.221618 0.741197 0.226044 -0.461253
N12   N     N_R   0.833648 0.900550 0.381394 0.194966
O27   O     O_R   0.899796 0.828909 0.400562 -0.108902
O28   O     O_R   0.714342 0.891194 0.338798 -0.242910
F18   F     F_    0.076385 0.825353 0.556111 -0.503471
F19   F     F_    0.859103 0.824970 0.584996 -0.511723
N13   N     N_R   0.179814 0.193013 0.477645 0.254137
O29   O     O_R   0.238023 0.238497 0.538362 -0.264495
O30   O     O_R   0.170940 0.243759 0.379640 -0.084889
F20   F     F_    0.934470 0.183880 0.401005 -0.504035

loop_
_geom_bond_atom_site_label_1
_geom_bond_atom_site_label_2
_geom_bond_distance
_ccdc_geom_bond_type
N4    O12   1.301561 A    
C42   C43   1.415892 A    
C6    C10   1.624266 S    
C5    F1    1.383725 S    
C24   C25   1.398203 A    
C8    N13   1.472786 S    
C23   N4    1.438117 S    
N12   O28   1.302759 A    
Cu1   Cu2   2.709999 S    
C5    F7    1.381749 S    
C40   C41   1.388020 A    
Cu1   O7    2.003230 S    
C2    C9    1.495762 S    
C15   C16   1.398828 A    
C26   C27   1.424394 A    
C29   F5    1.357409 S    
C4    C10   1.517981 S    
C17   C18   1.416652 A    
N8    O20   1.301322 A    
C28   N8    1.433942 S    
C41   F13   1.359419 S    
C7    F18   1.386099 S    
C14   C29   1.401043 A    
O4    C2    1.299452 A    
Cu2   O6    1.946590 S    
O7    C4    1.313848 A    
N7    O18   1.299903 A    
C5    C6    1.592460 S    
C8    C9    1.579168 S    
N1    C33   1.358634 A    
N3    O10   1.300873 A    
O5    C3    1.307215 A    
C46   F11   1.346615 S    
N2    C45   1.353823 A    
C7    C9    1.564201 S    
C41   C42   1.395357 A    
C6    N12   1.487949 S    
C33   F15   1.342340 S    
C20   C21   1.417953 A    
N10   O24   1.302955 A    
C13   C16   1.413178 A    
C21   C27   1.428147 A    
C17   N7    1.446917 S    
C22   F8    1.355688 S    
C25   N5    1.435412 S    
N2    C46   1.369642 A    
N4    O11   1.301430 A    
C10   C11   1.572504 S    
C3    C14   1.483906 S    
C1    C13   1.491275 S    
O3    Cu1   1.994073 S    
C16   N6    1.428219 S    
C32   F14   1.353553 S    
N12   O27   1.300697 A    
C37   C38   1.419393 A    
C38   N11   1.426636 S    
C44   F17   1.358456 S    
C6    N10   1.478176 S    
C19   C23   1.408239 A    
C8    C12   1.543517 S    
N8    O19   1.301267 A    
C27   C30   1.412788 A    
C34   C36   1.450405 A    
C14   C30   1.400290 A    
C28   C29   1.400449 A    
N5    O14   1.301311 A    
C24   F9    1.351288 S    
N7    O17   1.301935 A    
C37   C43   1.451107 A    
C38   C39   1.389973 A    
O1    C1    1.320723 A    
N1    C32   1.348992 A    
C5    C9    1.570008 S    
N6    O15   1.301584 A    
C11   F3    1.381917 S    
C18   C19   1.414825 A    
C12   F20   1.388422 S    
N9    O22   1.301066 A    
C34   C35   1.427081 A    
C12   N3    1.479940 S    
C40   F16   1.349372 S    
Cu2   O8    1.994074 S    
N10   O23   1.294606 A    
C22   C23   1.395809 A    
N6    O16   1.299679 A    
C31   N9    1.432441 S    
O3    C2    1.306246 A    
N11   O26   1.302088 A    
O8    C4    1.301764 A    
C15   C19   1.405691 A    
Cu1   N2    2.035959 S    
C10   C12   1.608832 S    
C20   C24   1.415647 A    
N9    O21   1.300809 A    
C31   C32   1.385636 A    
C30   F4    1.359557 S    
Cu1   O5    1.928249 S    
C33   C34   1.428087 A    
C25   C26   1.416010 A    
O1    Cu1   1.946590 S    
C39   F10   1.358170 S    
O2    Cu2   1.928249 S    
C13   C17   1.428567 A    
Cu2   N1    2.035602 S    
O6    C3    1.310259 A    
O4    Cu2   2.003230 S    
C43   C46   1.432411 A    
C7    C11   1.555695 S    
N11   O25   1.295569 A    
C21   C22   1.413679 A    
C42   C44   1.407489 A    
O2    C1    1.298827 A    
N5    O13   1.301180 A    
C18   C20   1.434224 A    
N13   O29   1.302006 A    
C44   C45   1.388756 A    
C36   C40   1.422008 A    
N13   O30   1.300478 A    
C15   F6    1.359130 S    
C8    H1    1.113067 S    
C11   F19   1.374693 S    
N3    O9    1.302168 A    
C45   F12   1.348026 S    
C35   C39   1.398373 A    
C26   C28   1.426790 A    
C36   C37   1.436000 A    
C7    F2    1.389580 S    
C31   C35   1.419254 A    
