data_mof_unit_31110.cif
_audit_creation_date              2013-03-05T16:09:45-0500
_audit_creation_method            fapswitch 2.2
_symmetry_space_group_name_H-M    P1
_symmetry_Int_Tables_number       1
_space_group_crystal_system       triclinic
_cell_length_a                    12.889304
_cell_length_b                    10.62372
_cell_length_c                    9.846278
_cell_angle_alpha                 89.507644
_cell_angle_beta                  97.27233
_cell_angle_gamma                 89.963679
_cell_volume                      1337.37672295

loop_
_atom_site_label
_atom_site_type_symbol
_atom_site_description
_atom_site_fract_x
_atom_site_fract_y
_atom_site_fract_z
_atom_type_partial_charge
O1    O     O_R   0.499990 0.316750 0.614620 -0.592398
O2    O     O_R   0.500010 0.683250 0.385380 -0.592713
O3    O     O_R   0.499990 0.316780 0.385290 -0.615735
O4    O     O_R   0.500010 0.683220 0.614710 -0.615432
C1    C     C_R   0.500223 0.260497 0.500682 0.918893
C2    C     C_R   0.499710 0.739498 0.499309 0.918656
O5    O     O_R   0.346360 0.499970 0.595710 -0.618742
O6    O     O_R   0.653640 0.500030 0.404290 -0.619068
O7    O     O_R   0.346360 0.499990 0.366380 -0.630275
O8    O     O_R   0.653640 0.500010 0.633620 -0.630098
C3    C     C_R   0.298152 0.498195 0.473042 0.916115
C4    C     C_R   0.701846 0.501852 0.526958 0.916061
Zn1   Zn    Zn3+2 0.500000 0.499980 0.653120 1.002156
Zn2   Zn    Zn3+2 0.500000 0.500020 0.346880 1.001858
C5    C     C_R   0.813983 0.501885 0.543690 -0.059957
C6    C     C_R   0.186012 0.498282 0.456322 -0.060294
C7    C     C_R   0.021037 0.531741 0.316404 0.019066
C8    C     C_R   0.978964 0.468565 0.683632 0.019045
C9    C     C_R   0.129346 0.527707 0.330047 -0.263554
C10   C     C_R   0.870656 0.472514 0.669976 -0.263063
C11   C     C_R   0.136294 0.471562 0.570307 -0.126762
C12   C     C_R   0.863697 0.528697 0.429724 -0.126962
C13   C     C_R   0.029335 0.485463 0.564554 0.116243
C14   C     C_R   0.970663 0.514843 0.435480 0.116304
H1    H     H_    0.817612 0.560562 0.336585 0.215614
H2    H     H_    0.182366 0.439693 0.663453 0.215696
H3    H     H_    0.830510 0.454952 0.758665 0.175429
H4    H     H_    0.169495 0.545234 0.241354 0.175500
C15   C     C_R   0.595310 0.064595 0.488381 -0.184861
C16   C     C_R   0.404641 0.935378 0.511739 -0.184866
C17   C     C_R   0.592915 0.933829 0.485365 0.342824
C18   C     C_R   0.406962 0.066141 0.514509 0.342256
C19   C     C_R   0.498311 0.872008 0.496896 -0.283832
C20   C     C_R   0.501601 0.127978 0.503104 -0.283782
C21   C     C_R   0.573227 0.566700 0.083356 -0.013083
C22   C     C_R   0.426773 0.433300 0.916644 -0.013136
H5    H     H_    0.631778 0.620110 0.146885 0.177803
H6    H     H_    0.368222 0.379891 0.853115 0.177784
C23   C     C_R   0.573214 0.566632 0.939512 -0.045172
C24   C     C_R   0.426786 0.433368 0.060487 -0.045266
H7    H     H_    0.631747 0.619933 0.894193 0.157931
H8    H     H_    0.368253 0.380068 0.105806 0.157739
N1    N     N_R   0.499970 0.499970 0.857200 -0.102279
N2    N     N_R   0.500030 0.500030 0.142800 -0.102254
C25   C     C_2   0.966120 0.551526 0.175765 0.397380
H9    H     H_    0.002447 0.608962 0.103254 0.109003
O9    O     O_2   0.884401 0.497582 0.136208 -0.585526
C26   C     C_2   0.033888 0.448838 0.824277 0.397276
H10   H     H_    0.997575 0.391414 0.896813 0.108912
O10   O     O_2   0.115596 0.502815 0.863808 -0.585407
C27   C     C_2   0.693797 0.135877 0.476568 0.546119
H11   H     H_    0.702109 0.232065 0.511986 0.010070
O11   O     O_2   0.765930 0.089430 0.424881 -0.471871
C28   C     C_2   0.306260 0.864083 0.524057 0.547655
H12   H     H_    0.297636 0.768131 0.487963 0.009633
O12   O     O_2   0.234653 0.910224 0.577064 -0.472036
N3    N     N_R   0.686794 0.862604 0.478339 0.227584
O13   O     O_R   0.758234 0.856011 0.584064 -0.352488
O14   O     O_R   0.700302 0.803217 0.366924 -0.385201
N4    N     N_R   0.312965 0.137310 0.521055 0.227097
O15   O     O_R   0.299757 0.198219 0.631624 -0.386098
O16   O     O_R   0.240782 0.141577 0.416048 -0.351490

loop_
_geom_bond_atom_site_label_1
_geom_bond_atom_site_label_2
_geom_bond_distance
_ccdc_geom_bond_type
C21   C23   1.416307 A    
C13   C14   1.426211 A    
C17   C19   1.402114 A    
C28   O12   1.220786 D    
C6    C11   1.388416 A    
C21   N2    1.366704 A    
C10   H3    1.084829 S    
O6    C4    1.286736 A    
C16   C18   1.389958 A    
C16   C28   1.494973 S    
C3    C6    1.433895 S    
Zn2   N2    2.009476 S    
C2    C19   1.407805 S    
O5    Zn1   1.989416 S    
O7    Zn2   2.013645 S    
C1    C20   1.407907 S    
C17   N3    1.436124 S    
Zn1   N1    2.009477 S    
C22   H6    1.081624 S    
C22   N1    1.366703 A    
C15   C17   1.390072 A    
C25   H9    1.085739 S    
O5    C3    1.286731 A    
C9    H4    1.084830 S    
O7    C3    1.286206 A    
N3    O13   1.300936 A    
O2    C2    1.275972 A    
O3    Zn2   1.979898 S    
O8    C4    1.286190 A    
C6    C9    1.392911 A    
O1    C1    1.275968 A    
C24   H8    1.081843 S    
C26   H10   1.085739 S    
C21   H5    1.081626 S    
C11   H2    1.079327 S    
C7    C25   1.486423 S    
C26   O10   1.220777 D    
C4    C5    1.433869 S    
C8    C10   1.386013 A    
C25   O9    1.220775 D    
C11   C13   1.380386 A    
C5    C10   1.392908 A    
O2    Zn2   1.986344 S    
C12   C14   1.380417 A    
N3    O14   1.300754 A    
C7    C14   1.420465 A    
O1    Zn1   1.986344 S    
C18   N4    1.436356 S    
C8    C13   1.420447 A    
O3    C1    1.279026 A    
C24   N2    1.366260 A    
C23   H7    1.081845 S    
N4    O16   1.300876 A    
O4    C2    1.278984 A    
C15   C27   1.495172 S    
O4    Zn1   1.979898 S    
C28   H12   1.083581 S    
C22   C24   1.416305 A    
C23   N1    1.366261 A    
O6    Zn2   1.989415 S    
C16   C19   1.406271 A    
C7    C9    1.386044 A    
C15   C20   1.406516 A    
C12   H1    1.079328 S    
C5    C12   1.388423 A    
C27   H11   1.083570 S    
C18   C20   1.402358 A    
N4    O15   1.300714 A    
C27   O11   1.220835 D    
O8    Zn1   2.013644 S    
C8    C26   1.486427 S    
