data_mof_unit_31425.cif
_audit_creation_date              2013-03-05T15:44:57-0500
_audit_creation_method            fapswitch 2.2
_symmetry_space_group_name_H-M    P1
_symmetry_Int_Tables_number       1
_space_group_crystal_system       triclinic
_cell_length_a                    11.146284
_cell_length_b                    11.304895
_cell_length_c                    18.802253
_cell_angle_alpha                 90.79451
_cell_angle_beta                  89.917576
_cell_angle_gamma                 119.010566
_cell_volume                      2071.72302435

loop_
_atom_site_label
_atom_site_type_symbol
_atom_site_description
_atom_site_fract_x
_atom_site_fract_y
_atom_site_fract_z
_atom_type_partial_charge
O1    O     O_R   0.766500 0.250040 0.579790 -0.468177
O2    O     O_R   0.798570 0.516780 0.574780 -0.420679
C1    C     C_R   0.870918 0.638127 0.606608 0.568723
O3    O     O_R   0.984000 0.732950 0.581090 -0.467406
O4    O     O_R   0.218600 0.700890 0.574760 -0.473175
C2    C     C_R   0.207107 0.596179 0.610070 0.563913
O5    O     O_R   0.249390 0.515350 0.579940 -0.441933
O6    O     O_R   0.982790 0.280900 0.573700 -0.546015
C3    C     C_R   0.857190 0.221898 0.599792 0.530569
O7    O     O_R   0.766600 0.251130 0.419260 -0.406867
O8    O     O_R   0.798660 0.517790 0.425980 -0.434834
C4    C     C_R   0.869957 0.636166 0.396670 0.584958
O9    O     O_R   0.984100 0.734040 0.420570 -0.513647
O10   O     O_R   0.218690 0.701900 0.425960 -0.485482
C5    C     C_R   0.264073 0.628376 0.395120 0.637978
O11   O     O_R   0.249490 0.516440 0.419420 -0.404136
O12   O     O_R   0.982880 0.281910 0.424890 -0.505372
C6    C     C_R   0.865579 0.239458 0.393338 0.595512
Cr1   Cr    Cr6+3 0.791660 0.390250 0.499930 1.202195
Cr2   Cr    Cr6+3 0.098520 0.708290 0.500540 1.122846
Cr3   Cr    Cr6+3 0.109770 0.401430 0.499480 1.100345
O13   O     O_3   0.999980 0.499990 0.499980 -0.367816
C7    C     C_R   0.287623 0.749733 0.718617 0.210110
C8    C     C_R   0.304085 0.764339 0.792733 -0.088990
H1    H     H_    0.316771 0.851699 0.820475 0.185426
C9    C     C_R   0.307243 0.663151 0.831745 -0.057877
C10   C     C_R   0.254898 0.535351 0.797707 0.296683
C11   C     C_R   0.179690 0.514471 0.735361 0.217648
C12   C     C_R   0.226743 0.620564 0.687921 0.015380
C13   C     C_R   0.793176 0.078761 0.812102 0.013712
C14   C     C_R   0.050766 0.155517 0.804869 0.232239
C15   C     C_R   0.161775 0.183965 0.760036 0.076839
C16   C     C_R   0.149248 0.184113 0.686944 0.310341
C17   C     C_R   0.019402 0.119968 0.658123 -0.016735
C18   C     C_R   0.910885 0.110295 0.698853 -0.041887
C19   C     C_R   0.917333 0.110948 0.774183 0.004457
H2    H     H_    0.260684 0.212343 0.782051 0.224372
C20   C     C_R   0.701795 0.125485 0.705990 -0.002435
C21   C     C_R   0.680360 0.075908 0.774736 -0.025206
C22   C     C_R   0.611923 0.171751 0.682246 0.347491
C23   C     C_R   0.481737 0.114707 0.704868 0.346952
C24   C     C_R   0.459852 0.075862 0.774147 -0.076955
C25   C     C_R   0.552780 0.047509 0.806543 -0.115447
C26   C     C_R   0.818419 0.142650 0.666696 0.006501
H3    H     H_    0.007523 0.098249 0.601485 0.142230
H4    H     H_    0.514472 0.001226 0.855566 0.184858
H5    H     H_    0.371062 0.064062 0.802596 0.182632
C27   C     C_R   0.715625 0.587471 0.714701 -0.089499
H6    H     H_    0.626891 0.542954 0.680723 0.247770
C28   C     C_R   0.704066 0.556181 0.788021 0.197338
C29   C     C_R   0.816461 0.630485 0.832341 -0.019420
C30   C     C_R   0.945278 0.689973 0.803150 0.243034
C31   C     C_R   0.958940 0.729340 0.731799 0.230599
C32   C     C_R   0.845454 0.662285 0.683678 -0.041620
C33   C     C_R   0.250134 0.542741 0.272848 0.214090
C34   C     C_R   0.264443 0.563403 0.200155 -0.125302
H7    H     H_    0.224847 0.476632 0.164200 0.176843
C35   C     C_R   0.339322 0.693162 0.173715 -0.056923
C36   C     C_R   0.388863 0.805631 0.219966 -0.133096
H8    H     H_    0.450756 0.906580 0.199491 0.195745
C37   C     C_R   0.371857 0.788212 0.293574 0.136423
C38   C     C_R   0.302898 0.655169 0.320322 0.063003
C39   C     C_R   0.792378 0.263357 0.272650 0.238759
C40   C     C_R   0.797640 0.249698 0.198565 0.158693
C41   C     C_R   0.859301 0.176520 0.170368 -0.030547
C42   C     C_R   0.935889 0.137379 0.215291 0.116180
C43   C     C_R   0.927389 0.148610 0.288629 -0.153674
H9    H     H_    0.983601 0.116867 0.323429 0.195533
C44   C     C_R   0.855153 0.208984 0.317394 0.028178
C45   C     C_R   0.955415 0.690276 0.276203 -0.122863
H10   H     H_    0.057114 0.718461 0.296182 0.147643
C46   C     C_R   0.938916 0.696510 0.203864 -0.071427
H11   H     H_    0.027874 0.734447 0.169635 0.169583
C47   C     C_R   0.809518 0.660030 0.176537 0.031142
C48   C     C_R   0.694909 0.610410 0.221784 -0.108628
H12   H     H_    0.594413 0.584098 0.200738 0.174238
C49   C     C_R   0.710635 0.605157 0.295205 0.179252
C50   C     C_R   0.843018 0.648102 0.322440 0.039086
O14   O     O_R   0.895110 0.806860 0.920430 -0.482592
O15   O     O_R   0.872260 0.046970 0.925000 -0.436653
C51   C     C_R   0.772794 0.047474 0.888154 0.548931
O16   O     O_R   0.691430 0.085060 0.918550 -0.485371
O17   O     O_R   0.451490 0.822460 0.925250 -0.558893
C52   C     C_R   0.392938 0.698740 0.897399 0.531634
O18   O     O_R   0.413330 0.603360 0.920440 -0.415078
O19   O     O_R   0.676110 0.626250 0.926750 -0.447009
C53   C     C_R   0.797574 0.687907 0.899409 0.523055
O20   O     O_R   0.895350 0.809870 0.080950 -0.478678
O21   O     O_R   0.872490 0.049760 0.073800 -0.443900
C54   C     C_R   0.809776 0.108522 0.101265 0.602966
O22   O     O_R   0.691680 0.088070 0.079070 -0.450154
O23   O     O_R   0.451720 0.825250 0.074050 -0.502040
C55   C     C_R   0.397206 0.706768 0.103057 0.543833
O24   O     O_R   0.413580 0.606370 0.080960 -0.491978
O25   O     O_R   0.676340 0.629040 0.075550 -0.484268
C56   C     C_R   0.796332 0.697454 0.104611 0.562510
Cr4   Cr    Cr6+3 0.874790 0.925890 0.000070 1.177187
Cr5   Cr    Cr6+3 0.574120 0.948670 0.999300 1.096385
Cr6   Cr    Cr6+3 0.551420 0.625320 0.000920 1.176073
O26   O     O_3   0.666780 0.833290 0.000090 -0.357985
O27   O     O_3   0.347535 0.859969 0.676856 -0.677628
H13   H     H_    0.272220 0.868650 0.654728 0.396218
O28   O     O_3   0.386945 0.122308 0.662492 -0.586433
H14   H     H_    0.300618 0.077290 0.687896 0.382841
N1    N     N_R   0.663606 0.310848 0.671835 0.115303
O29   O     O_R   0.786069 0.395291 0.695156 -0.428995
O30   O     O_R   0.594890 0.347889 0.630190 -0.244337
N2    N     N_R   0.597117 0.429497 0.813704 0.152220
O31   O     O_R   0.506892 0.343933 0.769714 -0.270020
O32   O     O_R   0.609257 0.384407 0.875155 -0.274982
O33   O     O_3   0.059028 0.732573 0.846528 -0.650386
H15   H     H_    0.031741 0.679343 0.890881 0.339283
N3    N     N_R   0.072144 0.859038 0.716782 0.038526
O34   O     O_R   0.077231 0.919072 0.657999 -0.397445
O35   O     O_R   0.144776 0.933952 0.769789 -0.396845
O36   O     O_3   0.185342 0.412593 0.298274 -0.646126
H16   H     H_    0.183089 0.350020 0.260238 0.358950
N4    N     N_R   0.432965 0.905273 0.339999 0.086424
O37   O     O_R   0.489594 0.901725 0.399840 -0.288951
O38   O     O_R   0.448883 0.020842 0.318334 -0.263432
O39   O     O_3   0.732191 0.333628 0.303163 -0.632494
H17   H     H_    0.687166 0.360811 0.266865 0.372991
N5    N     N_R   0.741977 0.310488 0.151563 0.068391
O40   O     O_R   0.818174 0.389414 0.101397 -0.319512
O41   O     O_R   0.610630 0.268499 0.150584 -0.278400
N6    N     N_R   0.027315 0.092155 0.187621 0.099102
O42   O     O_R   0.113587 0.160717 0.137888 -0.275903
O43   O     O_R   0.046276 0.003618 0.222179 -0.321918
N7    N     N_R   0.593002 0.557870 0.340652 0.089375
O44   O     O_R   0.474095 0.463119 0.318324 -0.273315
O45   O     O_R   0.601884 0.614427 0.402602 -0.298263
N8    N     N_R   0.340747 0.475850 0.795180 0.079713
O46   O     O_R   0.412765 0.493647 0.738040 -0.315391
O47   O     O_R   0.349917 0.407757 0.847953 -0.238462
O48   O     O_3   0.076840 0.389414 0.718376 -0.694617
H18   H     H_    0.013810 0.404436 0.687815 0.336276
O49   O     O_3   0.263561 0.256045 0.645486 -0.562663
H19   H     H_    0.234921 0.248587 0.594955 0.345851
N9    N     N_R   0.087501 0.211143 0.875333 0.114586
O50   O     O_R   0.161262 0.178253 0.915681 -0.258760
O51   O     O_R   0.058925 0.304601 0.896873 -0.282712

loop_
_geom_bond_atom_site_label_1
_geom_bond_atom_site_label_2
_geom_bond_distance
_ccdc_geom_bond_type
C33   C34   1.385712 A    
O20   C56   1.298041 A    
C55   O24   1.296818 A    
O15   Cr4   1.989427 S    
C45   C50   1.407716 A    
C11   O48   1.353308 S    
C23   C24   1.363872 A    
O33   H15   0.992844 S    
O14   C53   1.309572 A    
C51   O16   1.301988 A    
O23   Cr5   1.996479 S    
N5    O40   1.301202 A    
O4    Cr2   1.965472 S    
C7    O27   1.354230 S    
C49   C50   1.405594 A    
O36   H16   0.990594 S    
C27   C32   1.404924 A    
N1    O30   1.302698 A    
O8    Cr1   1.991082 S    
C9    C10   1.412511 A    
O27   H13   0.984645 S    
O19   Cr6   1.963975 S    
C7    C12   1.393737 A    
C11   C12   1.388305 A    
C35   C55   1.453226 S    
C8    C9    1.382119 A    
N3    O34   1.291778 A    
O4    C2    1.316399 A    
C1    C32   1.522512 S    
O25   Cr6   1.963854 S    
N5    O41   1.301865 A    
C33   O36   1.379404 S    
C5    O11   1.285606 A    
C33   C38   1.415307 A    
N2    O31   1.291445 A    
C17   C18   1.390268 A    
N4    O37   1.301479 A    
C39   C44   1.417178 A    
C16   O49   1.379169 S    
O6    C3    1.321692 A    
O17   Cr5   1.975182 S    
C4    C50   1.449835 S    
C9    C52   1.488268 S    
C7    C8    1.402810 A    
C45   H10   1.084059 S    
O20   Cr4   2.105532 S    
C6    C44   1.455736 S    
C27   C28   1.418100 A    
C42   C43   1.390311 A    
O2    Cr1   1.967296 S    
C36   H8    1.083647 S    
Cr3   O13   2.015272 S    
C28   N2    1.437671 S    
C10   N8    1.411977 S    
O16   Cr5   2.120376 S    
C39   O39   1.383269 S    
C31   N3    1.427469 S    
O12   C6    1.295164 A    
C41   C54   1.465125 S    
O1    Cr1   2.116447 S    
C36   C37   1.400276 A    
C47   C48   1.409058 A    
C43   H9    1.084085 S    
O10   Cr2   1.962485 S    
O48   H18   0.986008 S    
Cr1   O13   2.033874 S    
O1    C3    1.257312 A    
C8    H1    1.057310 S    
C46   C47   1.390551 A    
C29   C53   1.471385 S    
O19   C53   1.294491 A    
O15   C51   1.310573 A    
C21   C25   1.429327 A    
C30   O33   1.380044 S    
C28   C29   1.390093 A    
C35   C36   1.402675 A    
C31   C32   1.430924 A    
O12   Cr3   1.972942 S    
C42   N6    1.437690 S    
O21   Cr4   1.965779 S    
C43   C44   1.388583 A    
C18   C19   1.418035 A    
C48   H12   1.083814 S    
C20   C26   1.424730 A    
O18   Cr6   2.084753 S    
C47   C56   1.451284 S    
O17   C52   1.323503 A    
O7    Cr1   2.088324 S    
O8    C4    1.309110 A    
C16   C17   1.373890 A    
C17   H3    1.083277 S    
C49   N7    1.436910 S    
C15   H2    1.069700 S    
C52   O18   1.285670 A    
C18   C26   1.391104 A    
C48   C49   1.397503 A    
O39   H17   0.984117 S    
C27   H6    1.072276 S    
Cr2   O13   2.059684 S    
Cr5   O26   2.018794 S    
C34   H7    1.084708 S    
C14   N9    1.430789 S    
C1    O3    1.292297 A    
C10   C11   1.391334 A    
Cr4   O26   2.029118 S    
C30   C31   1.404016 A    
N7    O44   1.300905 A    
O49   H19   0.992086 S    
C22   C23   1.341876 A    
C3    C26   1.491967 S    
N6    O43   1.300879 A    
O9    Cr2   2.085641 S    
C37   N4    1.439627 S    
C14   C19   1.437464 A    
O14   Cr4   2.083985 S    
C14   C15   1.401278 A    
C46   H11   1.083819 S    
O6    Cr3   1.995938 S    
N9    O50   1.302244 A    
N2    O32   1.302612 A    
O11   Cr3   2.113135 S    
C2    O5    1.334389 A    
C40   N5    1.438810 S    
N1    O29   1.301169 A    
Cr6   O26   2.061533 S    
C13   C19   1.439380 A    
C15   C16   1.381676 A    
C13   C51   1.468555 S    
O2    C1    1.340122 A    
O25   C56   1.293295 A    
C29   C30   1.373503 A    
O5    Cr3   2.092339 S    
C40   C41   1.405736 A    
C20   C22   1.411485 A    
N9    O51   1.302266 A    
C54   O22   1.289980 A    
C20   C21   1.389717 A    
O24   Cr6   2.086695 S    
O7    C6    1.268852 A    
N6    O42   1.301702 A    
O23   C55   1.300242 A    
C5    C38   1.462815 S    
C34   C35   1.388196 A    
C13   C21   1.427741 A    
N8    O46   1.298438 A    
C24   H5    1.075072 S    
O22   Cr5   2.094577 S    
C37   C38   1.415775 A    
C25   H4    1.049398 S    
N4    O38   1.301558 A    
C39   C40   1.403650 A    
O3    Cr2   2.080567 S    
C23   O28   1.360511 S    
C2    C12   1.482484 S    
C4    O9    1.291245 A    
N8    O47   1.298213 A    
C41   C42   1.420149 A    
C24   C25   1.369645 A    
O28   H14   0.971323 S    
O10   C5    1.294831 A    
C45   C46   1.380114 A    
N3    O35   1.296092 A    
O21   C54   1.279237 A    
C22   N1    1.404443 S    
N7    O45   1.301408 A    
