data_mof_unit_33557.cif
_audit_creation_date              2012-12-10T18:59:17-0500
_audit_creation_method            fapswitch 2.2
_symmetry_space_group_name_H-M    P1
_symmetry_Int_Tables_number       1
_space_group_crystal_system       triclinic
_cell_length_a                    9.822775
_cell_length_b                    10.678926
_cell_length_c                    16.804222
_cell_angle_alpha                 89.238102
_cell_angle_beta                  94.284454
_cell_angle_gamma                 90.673168
_cell_volume                      1757.52357215

loop_
_atom_site_label
_atom_site_type_symbol
_atom_type_description
_atom_site_fract_x
_atom_site_fract_y
_atom_site_fract_z
_atom_type_partial_charge
C1    C     C_R   0.498952 0.259935 0.499225 0.947330
C2    C     C_R   0.079261 0.423187 0.551913 0.551790
C3    C     C_R   0.517572 0.501509 0.653406 0.848910
C4    C     C_R   0.482549 0.505490 0.346562 0.874696
C5    C     C_R   0.528003 0.522149 0.738719 -0.028179
C6    C     C_R   0.472963 0.529073 0.261098 -0.034792
C7    C     C_R   0.414009 0.565946 0.774726 -0.257474
C8    C     C_R   0.590531 0.565702 0.224180 -0.220912
C9    C     C_R   0.423682 0.592039 0.855211 -0.169714
C10   C     C_R   0.582538 0.593314 0.143480 -0.174137
C11   C     C_R   0.547923 0.573243 0.901089 0.330155
C12   C     C_R   0.500825 0.739894 0.500791 0.909371
C13   C     C_R   0.456478 0.582629 0.098178 0.328798
C14   C     C_R   0.662641 0.533543 0.864526 -0.202774
C15   C     C_R   0.338355 0.551471 0.135664 -0.192912
C16   C     C_R   0.653012 0.507606 0.783565 -0.231195
C17   C     C_R   0.346196 0.524438 0.216924 -0.210461
C18   C     C_R   0.386649 0.062027 0.461512 0.485008
C19   C     C_R   0.607698 0.937526 0.543793 0.473412
C20   C     C_3   0.157830 0.102848 0.450317 0.127937
C21   C     C_3   0.047850 0.180360 0.404984 -0.786859
C22   C     C_3   0.686654 0.855666 0.663505 0.112264
C23   C     C_R   0.392245 0.933155 0.460835 -0.374286
C24   C     C_3   0.803850 0.784721 0.706933 -0.817715
C25   C     C_3   0.879754 0.780246 0.405389 0.081489
C26   C     C_3   0.778049 0.859616 0.354723 -0.772041
C27   C     C_3   0.104705 0.304826 0.670597 0.042315
C28   C     C_3   0.215804 0.246542 0.726682 -0.805919
C29   C     C_R   0.606567 0.066152 0.540785 -0.367442
C30   C     C_R   0.501224 0.872094 0.501966 -0.203533
C31   C     C_R   0.497018 0.127431 0.500001 -0.188436
C32   C     C_R   0.066804 0.576388 0.449075 -0.330990
C33   C     C_R   0.933063 0.422555 0.550481 -0.347326
C34   C     C_R   0.922103 0.579199 0.450061 0.555343
H1    H     H_    0.688914 0.573411 0.257509 0.204834
H2    H     H_    0.690155 0.117884 0.571315 0.178070
H3    H     H_    0.118674 0.633644 0.407006 0.163378
H4    H     H_    0.878887 0.360056 0.588397 0.151916
H5    H     H_    0.164176 0.130780 0.514133 0.175586
H6    H     H_    0.125967 0.002725 0.445883 0.110274
H7    H     H_    0.032596 0.148252 0.342329 0.245307
H8    H     H_    0.950093 0.169652 0.433745 0.203720
H9    H     H_    0.078332 0.280762 0.404923 0.263678
H10   H     H_    0.591723 0.798198 0.666885 0.127924
H11   H     H_    0.674893 0.946116 0.694452 0.130708
H12   H     H_    0.317289 0.580717 0.740718 0.169064
H13   H     H_    0.899904 0.840400 0.705724 0.243133
H14   H     H_    0.781661 0.767400 0.769989 0.213262
H15   H     H_    0.817347 0.693464 0.677701 0.263463
H16   H     H_    0.982619 0.800378 0.384593 0.114282
H17   H     H_    0.877547 0.808882 0.468786 0.189179
H18   H     H_    0.672677 0.839895 0.371329 0.260430
H19   H     H_    0.801814 0.960522 0.364101 0.207859
H20   H     H_    0.783881 0.838088 0.290591 0.240268
H21   H     H_    0.024386 0.232078 0.657834 0.137078
H22   H     H_    0.062305 0.385983 0.701283 0.132770
H23   H     H_    0.675445 0.619792 0.116377 0.149895
H24   H     H_    0.298568 0.316030 0.741091 0.262661
H25   H     H_    0.172299 0.215472 0.782875 0.205477
H26   H     H_    0.259341 0.164323 0.698147 0.243666
H27   H     H_    0.333344 0.624402 0.881539 0.148096
H28   H     H_    0.758451 0.518953 0.899477 0.137868
H29   H     H_    0.241055 0.543481 0.101166 0.138533
H30   H     H_    0.742644 0.475602 0.756282 0.151388
H31   H     H_    0.253842 0.498567 0.244836 0.166806
H32   H     H_    0.313327 0.880716 0.426688 0.174375
N1    N     N_2   0.558611 0.581765 0.984859 -0.208115
N2    N     N_2   0.446467 0.590019 0.014243 -0.208985
N3    N     N_R   0.857210 0.499970 0.500020 -0.116167
N4    N     N_R   0.142790 0.500030 0.499980 -0.123276
O1    O     O_R   0.614620 0.316750 0.500010 -0.636973
O2    O     O_3   0.716599 0.876690 0.583572 -0.614847
O3    O     O_3   0.843854 0.652439 0.396021 -0.598525
O4    O     O_3   0.161908 0.342486 0.599387 -0.581935
O5    O     O_R   0.385380 0.683250 0.499990 -0.642590
O6    O     O_R   0.385290 0.316780 0.500000 -0.539919
O7    O     O_R   0.614710 0.683220 0.500000 -0.549286
O8    O     O_R   0.627460 0.498830 0.616130 -0.634791
O9    O     O_R   0.372540 0.501170 0.383870 -0.623836
O10   O     O_R   0.398130 0.498850 0.616130 -0.582463
O11   O     O_R   0.601870 0.501150 0.383870 -0.579490
O12   O     O_3   0.283794 0.124518 0.416605 -0.597737
Zn1   Zn    Zn3+2 0.653130 0.499980 0.500000 0.989581
Zn2   Zn    Zn3+2 0.346870 0.500020 0.500000 0.992681

loop_
_geom_bond_atom_site_label_1
_geom_bond_atom_site_label_2
_ccdc_geom_bond_type
C20   O12   S    
O10   Zn2   S    
O6    Zn2   S    
C29   H2    S    
C1    O1    A    
C9    H27   S    
C22   C24   S    
O9    Zn2   S    
C20   H6    S    
C11   C14   A    
C27   H21   S    
O5    Zn2   S    
O7    Zn1   S    
C14   H28   S    
C1    C31   S    
C15   C17   A    
C25   H16   S    
C5    C16   A    
C21   H9    S    
O8    Zn1   S    
C22   H10   S    
C4    O11   A    
C27   O4    S    
N4    Zn2   S    
C23   C30   A    
C2    O4    S    
C33   N3    A    
C24   H13   S    
C19   O2    S    
C3    O10   A    
C26   H20   S    
C22   O2    S    
O11   Zn1   S    
C11   N1    S    
O1    Zn1   S    
C28   H26   S    
N1    N2    D    
C24   H14   S    
C7    H12   S    
C10   H23   S    
C4    O9    A    
C4    C6    S    
C5    C7    A    
C20   H5    S    
C27   H22   S    
C32   N4    A    
C25   C26   S    
C18   C23   A    
C8    H1    S    
C32   C34   A    
C25   H17   S    
N3    Zn1   S    
C26   H18   S    
C12   O7    A    
C32   H3    S    
C9    C11   A    
C34   N3    A    
C21   H7    S    
C2    C33   A    
C13   C15   A    
C14   C16   A    
C19   C29   A    
C26   H19   S    
C23   H32   S    
C28   H25   S    
C24   H15   S    
C7    C9    A    
C6    C17   A    
C12   C30   S    
C1    O6    A    
C3    C5    S    
C10   C13   A    
C6    C8    A    
C28   H24   S    
C17   H31   S    
C33   H4    S    
C29   C31   A    
C19   C30   A    
C18   O12   S    
C25   O3    S    
C34   O3    S    
C21   H8    S    
C22   H11   S    
C20   C21   S    
C8    C10   A    
C12   O5    A    
C27   C28   S    
C15   H29   S    
C18   C31   A    
C16   H30   S    
C2    N4    A    
C3    O8    A    
C13   N2    S    
