data_mof_unit_15204.cif
_audit_creation_date              2012-12-10T17:52:16-0500
_audit_creation_method            fapswitch 2.2
_symmetry_space_group_name_H-M    P1
_symmetry_Int_Tables_number       1
_space_group_crystal_system       triclinic
_cell_length_a                    19.016953
_cell_length_b                    10.619878
_cell_length_c                    9.897248
_cell_angle_alpha                 87.56482
_cell_angle_beta                  90.825705
_cell_angle_gamma                 91.397895
_cell_volume                      1996.24724063

loop_
_atom_site_label
_atom_site_type_symbol
_atom_type_description
_atom_site_fract_x
_atom_site_fract_y
_atom_site_fract_z
_atom_type_partial_charge
C1    C     C_R   0.505224 0.260490 0.504181 0.885339
C2    C     C_R   0.850384 0.399190 0.511419 0.068845
C3    C     C_R   0.620977 0.110810 0.648158 0.130306
C4    C     C_R   0.364977 0.499887 0.498887 0.875312
C5    C     C_R   0.684226 0.046471 0.661947 -0.133420
C6    C     C_R   0.689526 0.925792 0.614988 -0.159195
C7    C     C_R   0.630549 0.866084 0.560375 -0.179277
C8    C     C_R   0.567325 0.931705 0.539591 0.076533
C9    C     C_R   0.564451 0.059489 0.569504 0.048986
C10   C     C_R   0.505881 0.126966 0.515292 -0.079810
C11   C     C_R   0.448613 0.066415 0.454066 -0.174859
C12   C     C_R   0.288333 0.483673 0.498139 -0.104142
C13   C     C_R   0.447656 0.938107 0.445976 -0.171659
C14   C     C_R   0.506252 0.872037 0.489829 -0.086713
C15   C     C_R   0.407998 0.334418 0.144395 -0.164419
C16   C     C_R   0.499989 0.739562 0.496885 0.877462
C17   C     C_R   0.364509 0.250291 0.076372 -0.196835
C18   C     C_R   0.366091 0.248045 0.936670 0.175403
C19   C     C_R   0.410587 0.331169 0.864439 -0.190381
C20   C     C_R   0.455497 0.417344 0.930017 0.160467
C21   C     C_R   0.454979 0.418059 0.074583 0.193977
C22   C     C_R   0.542952 0.578516 0.069150 -0.095774
C23   C     C_R   0.926950 0.387193 0.513822 0.338898
C24   C     C_R   0.542825 0.578685 0.925916 -0.070766
C25   C     C_R   0.634853 0.497455 0.501066 0.848420
C26   C     C_R   0.256435 0.436770 0.617797 -0.189471
C27   C     C_R   0.185119 0.407953 0.620134 -0.117127
C28   C     C_R   0.144376 0.424637 0.502625 0.036360
C29   C     C_R   0.175124 0.473034 0.383187 -0.169964
C30   C     C_R   0.246567 0.504873 0.380145 0.157347
C31   C     C_2   0.836235 0.332773 0.761340 0.398731
C32   C     C_R   0.068721 0.402906 0.508160 0.302389
C33   C     C_R   0.810693 0.391518 0.631641 0.003305
C34   C     C_R   0.742320 0.435701 0.627895 -0.275462
C35   C     C_R   0.710194 0.473822 0.505101 -0.030918
C36   C     C_R   0.748263 0.473957 0.385335 -0.180274
C37   C     C_R   0.818033 0.438636 0.388770 -0.181967
H1    H     H_    0.286689 0.420306 0.710003 0.182820
H2    H     H_    0.161864 0.371857 0.713739 0.176009
H3    H     H_    0.577827 0.642898 0.870028 0.148167
H4    H     H_    0.143021 0.490652 0.293378 0.176108
H5    H     H_    0.712954 0.434202 0.720774 0.176695
H6    H     H_    0.724355 0.502280 0.289135 0.160163
H7    H     H_    0.847235 0.445800 0.295488 0.162007
H8    H     H_    0.404033 0.118832 0.414426 0.143175
H9    H     H_    0.813723 0.359245 0.855945 0.071782
H10   H     H_    0.727801 0.085620 0.719442 0.178366
H11   H     H_    0.738001 0.875261 0.629387 0.161390
H12   H     H_    0.635097 0.769426 0.531831 0.127022
H13   H     H_    0.401379 0.890162 0.405891 0.164968
H14   H     H_    0.578031 0.642602 0.121097 0.144343
H15   H     H_    0.402600 0.331497 0.251238 0.208634
H16   H     H_    0.329359 0.186700 0.132885 0.178162
H17   H     H_    0.408459 0.325237 0.757572 0.213845
I1    I     I_    0.608720 0.233973 0.809158 -0.379745
I2    I     I_    0.301042 0.118907 0.833408 -0.348131
I3    I     I_    0.282928 0.593729 0.196301 -0.330633
N1    N     N_R   0.031493 0.370662 0.396517 -0.158197
N2    N     N_R   0.961698 0.362785 0.399391 -0.171119
N3    N     N_R   0.964510 0.419129 0.625109 -0.121523
N4    N     N_R   0.034168 0.425702 0.622828 -0.150188
N5    N     N_R   0.499340 0.498800 0.142780 -0.111687
N6    N     N_R   0.499320 0.498720 0.857170 -0.104815
O1    O     O_R   0.500000 0.316780 0.614690 -0.608694
O2    O     O_R   0.499990 0.316750 0.385360 -0.632818
O3    O     O_R   0.398140 0.500000 0.614700 -0.632661
O4    O     O_R   0.398130 0.499970 0.385370 -0.609272
O5    O     O_R   0.500010 0.683250 0.614640 -0.601667
O6    O     O_R   0.500000 0.683220 0.385310 -0.607736
O7    O     O_R   0.601870 0.500030 0.614630 -0.606492
O8    O     O_R   0.601860 0.500000 0.385300 -0.620274
O9    O     O_2   0.879272 0.249229 0.763751 -0.540129
Zn1   Zn    Zn3+2 0.500000 0.500020 0.653130 0.970063
Zn2   Zn    Zn3+2 0.500000 0.499980 0.346870 0.966414

loop_
_geom_bond_atom_site_label_1
_geom_bond_atom_site_label_2
_ccdc_geom_bond_type
C35   C36   A    
C34   H5    S    
C32   N1    A    
C7    C8    A    
C23   N2    A    
C5    H10   S    
C26   C27   A    
C6    H11   S    
C36   C37   A    
C32   N4    A    
C34   C35   A    
C5    C6    A    
C30   I3    S    
C18   C19   A    
C3    I1    S    
C19   C20   A    
C27   H2    S    
C8    C9    A    
C31   H9    S    
C1    O2    A    
O1    Zn1   S    
C31   C33   S    
C25   O8    A    
C4    C12   S    
C9    C10   A    
C18   I2    S    
C29   H4    S    
C13   C14   A    
C33   C34   A    
C23   N3    A    
C1    C10   S    
C28   C32   S    
C7    H12   S    
C26   H1    S    
N6    Zn1   S    
N1    N2    A    
O3    Zn1   S    
O2    Zn2   S    
C12   C26   A    
N3    N4    A    
C29   C30   A    
C3    C9    A    
C22   N5    A    
O7    Zn1   S    
C17   C18   A    
O6    Zn2   S    
O4    Zn2   S    
C15   H15   S    
C21   N5    A    
C25   C35   S    
C16   O5    A    
C19   H17   S    
C31   O9    D    
C24   N6    A    
C14   C16   S    
C11   H8    S    
C1    O1    A    
C17   H16   S    
C27   C28   A    
C2    C33   A    
C15   C17   A    
C28   C29   A    
C8    C14   A    
C12   C30   A    
C16   O6    A    
C3    C5    A    
C4    O4    A    
O8    Zn2   S    
C6    C7    A    
C37   H7    S    
O5    Zn1   S    
C4    O3    A    
C11   C13   A    
C2    C37   A    
C20   N6    A    
C24   H3    S    
C22   C24   A    
C10   C11   A    
C13   H13   S    
C15   C21   A    
C20   C21   A    
C2    C23   S    
N5    Zn2   S    
C36   H6    S    
C25   O7    A    
C22   H14   S    
