data_mof_unit_60907.cif
_audit_creation_date              2013-03-05T15:58:31-0500
_audit_creation_method            fapswitch 2.2
_symmetry_space_group_name_H-M    P1
_symmetry_Int_Tables_number       1
_space_group_crystal_system       triclinic
_cell_length_a                    19.6377
_cell_length_b                    19.622416
_cell_length_c                    60.121324
_cell_angle_alpha                 90.000175
_cell_angle_beta                  90.000078
_cell_angle_gamma                 89.998245
_cell_volume                      23167.0979932

loop_
_atom_site_label
_atom_site_type_symbol
_atom_site_description
_atom_site_fract_x
_atom_site_fract_y
_atom_site_fract_z
_atom_type_partial_charge
Zn1   Zn    Zn3+2 0.500000 0.920580 0.268960 0.978259
Zn2   Zn    Zn3+2 0.500000 0.079420 0.731040 0.977860
Zn3   Zn    Zn3+2 0.079420 0.500000 0.268960 0.980853
Zn4   Zn    Zn3+2 0.920580 0.500000 0.731040 0.980276
Zn5   Zn    Zn3+2 0.500000 0.079420 0.268960 0.978259
Zn6   Zn    Zn3+2 0.500000 0.920580 0.731040 0.977860
Zn7   Zn    Zn3+2 0.920580 0.500000 0.268960 0.980857
Zn8   Zn    Zn3+2 0.079420 0.500000 0.731040 0.980276
Zn9   Zn    Zn3+2 0.000000 0.420580 0.768960 0.978241
Zn10  Zn    Zn3+2 1.000000 0.579420 0.231040 0.977900
Zn11  Zn    Zn3+2 0.579420 0.000000 0.768960 0.980863
Zn12  Zn    Zn3+2 0.420580 0.000000 0.231040 0.980276
Zn13  Zn    Zn3+2 1.000000 0.579420 0.768960 0.978241
Zn14  Zn    Zn3+2 1.000000 0.420580 0.231040 0.977889
Zn15  Zn    Zn3+2 0.420580 0.000000 0.768960 0.980863
Zn16  Zn    Zn3+2 0.579420 0.000000 0.231040 0.980276
O1    O     O_3   0.500000 0.000000 0.250000 -0.474598
O2    O     O_3   0.500000 0.000000 0.750000 -0.474686
O3    O     O_3   1.000000 0.500000 0.250000 -0.474704
O4    O     O_3   0.000000 0.500000 0.750000 -0.474588
O5    O     O_R   0.444160 0.000000 0.200320 -0.638499
O6    O     O_R   0.555840 0.000000 0.799680 -0.638236
O7    O     O_R   0.000000 0.444160 0.200320 -0.639728
O8    O     O_R   1.000000 0.555840 0.799680 -0.639577
O9    O     O_R   0.555840 0.000000 0.200320 -0.638498
O10   O     O_R   0.444160 0.000000 0.799680 -0.638236
O11   O     O_R   1.000000 0.555840 0.200320 -0.639688
O12   O     O_R   0.000000 0.444160 0.799680 -0.639574
O13   O     O_R   0.944160 0.500000 0.700320 -0.638502
O14   O     O_R   0.055840 0.500000 0.299680 -0.638235
O15   O     O_R   0.500000 0.944160 0.700320 -0.639740
O16   O     O_R   0.500000 0.055840 0.299680 -0.639568
O17   O     O_R   0.055840 0.500000 0.700320 -0.638501
O18   O     O_R   0.944160 0.500000 0.299680 -0.638236
O19   O     O_R   0.500000 0.055840 0.700320 -0.639739
O20   O     O_R   0.500000 0.944160 0.299680 -0.639567
O21   O     O_R   0.634020 0.921800 0.237170 -0.633711
O22   O     O_R   0.365980 0.078200 0.762830 -0.634551
O23   O     O_R   0.078200 0.634020 0.237170 -0.635060
O24   O     O_R   0.921800 0.365980 0.762830 -0.631957
O25   O     O_R   0.365980 0.078200 0.237170 -0.633711
O26   O     O_R   0.634020 0.921800 0.762830 -0.634551
O27   O     O_R   0.921800 0.365980 0.237170 -0.635059
O28   O     O_R   0.078200 0.634020 0.762830 -0.631959
O29   O     O_R   0.634020 0.078200 0.762830 -0.630377
O30   O     O_R   0.365980 0.921800 0.237170 -0.631545
O31   O     O_R   0.078200 0.365980 0.762830 -0.634452
O32   O     O_R   0.921800 0.634020 0.237170 -0.631611
O33   O     O_R   0.365980 0.921800 0.762830 -0.630377
O34   O     O_R   0.634020 0.078200 0.237170 -0.631543
O35   O     O_R   0.921800 0.634020 0.762830 -0.634452
O36   O     O_R   0.078200 0.365980 0.237170 -0.631617
O37   O     O_R   0.134020 0.421800 0.737170 -0.633712
O38   O     O_R   0.865980 0.578200 0.262830 -0.634556
O39   O     O_R   0.578200 0.134020 0.737170 -0.635064
O40   O     O_R   0.421800 0.865980 0.262830 -0.631951
O41   O     O_R   0.865980 0.578200 0.737170 -0.633712
O42   O     O_R   0.134020 0.421800 0.262830 -0.634556
O43   O     O_R   0.421800 0.865980 0.737170 -0.635064
O44   O     O_R   0.578200 0.134020 0.262830 -0.631952
O45   O     O_R   0.134020 0.578200 0.262830 -0.630379
O46   O     O_R   0.865980 0.421800 0.737170 -0.631544
O47   O     O_R   0.578200 0.865980 0.262830 -0.634451
O48   O     O_R   0.421800 0.134020 0.737170 -0.631629
O49   O     O_R   0.865980 0.421800 0.262830 -0.630379
O50   O     O_R   0.134020 0.578200 0.737170 -0.631543
O51   O     O_R   0.421800 0.134020 0.262830 -0.634451
O52   O     O_R   0.578200 0.865980 0.737170 -0.631629
C1    C     C_R   0.500000 0.000000 0.189525 0.820374
C2    C     C_R   0.500000 0.000000 0.810467 0.820974
C3    C     C_R   1.000000 0.499999 0.189488 0.819492
C4    C     C_R   0.000000 0.500000 0.810513 0.819830
C5    C     C_R   1.000000 0.500000 0.689525 0.820378
C6    C     C_R   0.000000 0.500000 0.310467 0.820975
C7    C     C_R   0.500000 1.000000 0.689487 0.819481
C8    C     C_R   0.500000 0.000000 0.310512 0.819854
C9    C     C_R   0.629259 0.870726 0.250004 0.826733
C10   C     C_R   0.370749 0.129283 0.750001 0.828306
C11   C     C_R   0.129266 0.629268 0.249992 0.828033
C12   C     C_R   0.870741 0.370723 0.750003 0.829677
C13   C     C_R   0.370741 0.129274 0.250004 0.826735
C14   C     C_R   0.629251 0.870717 0.750001 0.828308
C15   C     C_R   0.870734 0.370732 0.249992 0.828043
C16   C     C_R   0.129259 0.629277 0.750003 0.829677
C17   C     C_R   0.629266 0.129268 0.749992 0.828041
C18   C     C_R   0.370741 0.870723 0.250003 0.829673
C19   C     C_R   0.129259 0.370726 0.750004 0.826733
C20   C     C_R   0.870749 0.629283 0.250001 0.828299
C21   C     C_R   0.370734 0.870732 0.749992 0.828041
C22   C     C_R   0.629259 0.129277 0.250003 0.829673
C23   C     C_R   0.870741 0.629274 0.750004 0.826736
C24   C     C_R   0.129251 0.370717 0.250001 0.828301
C25   C     C_1   0.318975 0.818925 0.250003 -0.142394
C26   C     C_1   0.681040 0.181055 0.749983 -0.143380
C27   C     C_1   0.181018 0.318920 0.250001 -0.144567
C28   C     C_1   0.818965 0.681059 0.750013 -0.145615
C29   C     C_1   0.681025 0.181075 0.250003 -0.142394
C30   C     C_1   0.318960 0.818945 0.749983 -0.143380
C31   C     C_1   0.818982 0.681079 0.250001 -0.144566
C32   C     C_1   0.181034 0.318941 0.750013 -0.145613
C33   C     C_1   0.318981 0.181079 0.750001 -0.144577
C34   C     C_1   0.681035 0.818941 0.250013 -0.145607
C35   C     C_1   0.181025 0.681075 0.750004 -0.142402
C36   C     C_1   0.818960 0.318945 0.249983 -0.143373
C37   C     C_1   0.681018 0.818920 0.750001 -0.144579
C38   C     C_1   0.318965 0.181059 0.250013 -0.145608
C39   C     C_1   0.818975 0.318925 0.750003 -0.142401
C40   C     C_1   0.181040 0.681055 0.249983 -0.143370
C41   C     C_1   0.275489 0.775452 0.249996 0.008289
C42   C     C_1   0.724529 0.224525 0.749985 0.007934
C43   C     C_1   0.224507 0.275449 0.250007 0.006182
C44   C     C_1   0.775473 0.724526 0.750012 0.005818
C45   C     C_1   0.724510 0.224548 0.249996 0.008290
C46   C     C_1   0.275471 0.775475 0.749985 0.007934
C47   C     C_1   0.775493 0.724551 0.250007 0.006183
C48   C     C_1   0.224527 0.275474 0.750012 0.005818
C49   C     C_1   0.275492 0.224551 0.750007 0.006177
C50   C     C_1   0.724527 0.775474 0.250012 0.005823
C51   C     C_1   0.224510 0.724548 0.749996 0.008286
C52   C     C_1   0.775471 0.275475 0.249985 0.007937
C53   C     C_1   0.724507 0.775449 0.750007 0.006177
C54   C     C_1   0.275473 0.224526 0.250012 0.005823
C55   C     C_1   0.775489 0.275452 0.749996 0.008285
C56   C     C_1   0.224529 0.724524 0.249985 0.007937
C57   C     C_R   0.439638 0.993651 0.417558 0.513415
C58   C     C_R   0.560384 0.993859 0.582436 0.513365
C59   C     C_R   0.973997 0.445160 0.417355 0.514418
C60   C     C_R   0.023301 0.556043 0.582588 0.514406
C61   C     C_R   0.560362 0.006350 0.417558 0.513416
C62   C     C_R   0.439616 0.006140 0.582436 0.513365
C63   C     C_R   0.026004 0.554840 0.417355 0.514417
C64   C     C_R   0.976698 0.443957 0.582588 0.514405
C65   C     C_R   0.939651 0.493817 0.917565 0.513408
C66   C     C_R   0.060421 0.493694 0.082440 0.513373
C67   C     C_R   0.473986 0.945165 0.917355 0.514417
C68   C     C_R   0.523309 0.056040 0.082588 0.514408
C69   C     C_R   0.060407 0.506204 0.917562 0.513410
C70   C     C_R   0.939692 0.506340 0.082442 0.513369
C71   C     C_R   0.526014 0.054835 0.917355 0.514416
C72   C     C_R   0.476689 0.943960 0.082588 0.514408
O53   O     O_2   0.380910 0.985902 0.406175 -0.561176
O54   O     O_2   0.619139 0.986307 0.593818 -0.561780
O55   O     O_2   0.948019 0.391999 0.405917 -0.556881
O56   O     O_2   0.046722 0.610399 0.594017 -0.558505
O57   O     O_2   0.619090 0.014099 0.406175 -0.561177
O58   O     O_2   0.380861 0.013692 0.593818 -0.561780
O59   O     O_2   0.051982 0.608001 0.405917 -0.556880
O60   O     O_2   0.953277 0.389601 0.594016 -0.558505
O61   O     O_2   0.880901 0.486213 0.906183 -0.561206
O62   O     O_2   0.119155 0.485959 0.093821 -0.561794
O63   O     O_2   0.447997 0.892010 0.905917 -0.556880
O64   O     O_2   0.546738 0.110392 0.094017 -0.558506
O65   O     O_2   0.119153 0.513805 0.906178 -0.561206
O66   O     O_2   0.880961 0.514073 0.093824 -0.561785
O67   O     O_2   0.552003 0.107990 0.905917 -0.556880
O68   O     O_2   0.453261 0.889608 0.094016 -0.558507
N1    N     N_R   0.500000 0.000001 0.406301 -0.342394
N2    N     N_R   0.500000 0.999999 0.593694 -0.342313
N3    N     N_R   0.000000 0.500000 0.406118 -0.344013
N4    N     N_R   1.000000 0.500000 0.593832 -0.343572
N5    N     N_R   0.000027 0.500009 0.906305 -0.342380
N6    N     N_R   0.000058 0.500013 0.093699 -0.342303
N7    N     N_R   0.500000 1.000000 0.906118 -0.344013
N8    N     N_R   0.499999 1.000000 0.093832 -0.343572
C73   C     C_R   0.536555 0.950565 0.370597 -0.101502
C74   C     C_R   0.463573 0.950473 0.629398 -0.101821
C75   C     C_R   0.959280 0.546139 0.370445 -0.101890
C76   C     C_R   0.041922 0.454964 0.629520 -0.101946
C77   C     C_R   0.463445 0.049436 0.370598 -0.101502
C78   C     C_R   0.536427 0.049526 0.629398 -0.101821
C79   C     C_R   0.040721 0.453861 0.370445 -0.101889
C80   C     C_R   0.958078 0.545036 0.629521 -0.101945
C81   C     C_R   0.036480 0.450503 0.870600 -0.101514
C82   C     C_R   0.963459 0.450591 0.129401 -0.101786
C83   C     C_R   0.459285 0.046144 0.870445 -0.101893
C84   C     C_R   0.541917 0.954960 0.129520 -0.101944
C85   C     C_R   0.963556 0.549509 0.870602 -0.101511
C86   C     C_R   0.036648 0.549399 0.129407 -0.101818
C87   C     C_R   0.540716 0.953856 0.870445 -0.101894
C88   C     C_R   0.458082 0.045040 0.129521 -0.101943
C89   C     C_R   0.537629 0.950115 0.347275 0.105373
C90   C     C_R   0.462493 0.950024 0.652721 0.103912
C91   C     C_R   0.958620 0.546745 0.347098 0.110008
C92   C     C_R   0.042554 0.454320 0.652868 0.108158
C93   C     C_R   0.462371 0.049886 0.347275 0.105373
C94   C     C_R   0.537507 0.049975 0.652721 0.103912
C95   C     C_R   0.041381 0.453255 0.347098 0.110009
C96   C     C_R   0.957445 0.545680 0.652868 0.108158
C97   C     C_R   0.037550 0.450050 0.847278 0.105346
C98   C     C_R   0.962364 0.450143 0.152723 0.103940
C99   C     C_R   0.458625 0.046749 0.847098 0.110010
C100  C     C_R   0.542549 0.954316 0.152868 0.108156
C101  C     C_R   0.962470 0.549956 0.847279 0.105355
C102  C     C_R   0.037710 0.549840 0.152730 0.103907
C103  C     C_R   0.541375 0.953251 0.847098 0.110011
C104  C     C_R   0.457450 0.045684 0.152868 0.108156
C105  C     C_R   0.500000 0.000000 0.382308 0.215203
C106  C     C_R   0.500000 1.000000 0.617687 0.214761
C107  C     C_R   0.000000 0.500000 0.382141 0.221356
C108  C     C_R   1.000000 0.500000 0.617817 0.220136
C109  C     C_R   0.000021 0.500008 0.882312 0.215173
C110  C     C_R   0.000057 0.500000 0.117693 0.214721
C111  C     C_R   0.500000 0.000000 0.882141 0.221361
C112  C     C_R   0.499999 1.000000 0.117817 0.220136
C113  C     C_R   0.500000 0.000000 0.452807 -0.049952
C114  C     C_R   0.500000 1.000000 0.547188 -0.049991
C115  C     C_R   0.000000 0.500000 0.452672 -0.048267
C116  C     C_R   1.000000 0.500000 0.547270 -0.048337
C117  C     C_R   0.000036 0.500015 0.952812 -0.049957
C118  C     C_R   0.000052 0.500022 0.047192 -0.049993
C119  C     C_R   0.500000 1.000000 0.952672 -0.048267
C120  C     C_R   0.499999 0.000000 0.047270 -0.048337
C121  C     C_R   0.438456 0.994514 0.440943 -0.026241
C122  C     C_R   0.561563 0.994734 0.559051 -0.026144
C123  C     C_R   0.973666 0.444108 0.440769 -0.028528
C124  C     C_R   0.023579 0.557106 0.559173 -0.027937
C125  C     C_R   0.561544 0.005486 0.440944 -0.026242
C126  C     C_R   0.438437 0.005265 0.559051 -0.026144
C127  C     C_R   0.026334 0.555892 0.440769 -0.028528
C128  C     C_R   0.976420 0.442894 0.559173 -0.027937
C129  C     C_R   0.938476 0.494692 0.940950 -0.026232
C130  C     C_R   0.061601 0.494572 0.059055 -0.026141
C131  C     C_R   0.473655 0.944113 0.940769 -0.028529
C132  C     C_R   0.523588 0.057102 0.059173 -0.027936
C133  C     C_R   0.061592 0.505336 0.940947 -0.026232
C134  C     C_R   0.938507 0.505471 0.059056 -0.026143
C135  C     C_R   0.526345 0.055886 0.940769 -0.028529
C136  C     C_R   0.476411 0.942898 0.059173 -0.027936
C137  C     C_R   0.377162 0.989352 0.452622 -0.134403
C138  C     C_R   0.622876 0.989798 0.547373 -0.134474
C139  C     C_R   0.947233 0.388569 0.452425 -0.134841
C140  C     C_R   0.046890 0.614029 0.547517 -0.135109
C141  C     C_R   0.622838 0.010649 0.452622 -0.134402
C142  C     C_R   0.377124 0.010201 0.547373 -0.134474
C143  C     C_R   0.052767 0.611431 0.452425 -0.134841
C144  C     C_R   0.953110 0.385971 0.547517 -0.135109
C145  C     C_R   0.877170 0.489698 0.952629 -0.134400
C146  C     C_R   0.122897 0.489457 0.047375 -0.134468
C147  C     C_R   0.447210 0.888580 0.952425 -0.134839
C148  C     C_R   0.546906 0.114022 0.047517 -0.135108
C149  C     C_R   0.122902 0.510332 0.952624 -0.134399
C150  C     C_R   0.877207 0.510590 0.047379 -0.134467
C151  C     C_R   0.552790 0.111420 0.952425 -0.134840
C152  C     C_R   0.453092 0.885978 0.047517 -0.135109
C153  C     C_R   0.500000 0.000000 0.335258 -0.043884
C154  C     C_R   0.500000 1.000000 0.664739 -0.044169
C155  C     C_R   0.000000 0.500000 0.335151 -0.034261
C156  C     C_R   1.000000 0.500000 0.664827 -0.035659
C157  C     C_R   0.000006 0.500001 0.835260 -0.043981
C158  C     C_R   0.000021 0.499996 0.164743 -0.043976
C159  C     C_R   0.500000 0.000000 0.835151 -0.034256
C160  C     C_R   0.500000 1.000000 0.164827 -0.035656
H1    H     H_    0.435559 0.087737 0.379852 0.159878
H2    H     H_    0.564212 0.087900 0.620144 0.160648
H3    H     H_    0.072112 0.418411 0.379710 0.153844
H4    H     H_    0.925730 0.579623 0.620259 0.155388
H5    H     H_    0.564441 0.912263 0.379851 0.159878
H6    H     H_    0.435788 0.912099 0.620144 0.160648
H7    H     H_    0.927889 0.581589 0.379710 0.153844
H8    H     H_    0.074269 0.420377 0.620259 0.155389
H9    H     H_    0.935747 0.587866 0.879856 0.159914
H10   H     H_    0.064570 0.587682 0.120157 0.160688
H11   H     H_    0.572102 0.918402 0.879710 0.153842
H12   H     H_    0.425739 0.079631 0.120259 0.155390
H13   H     H_    0.064295 0.412149 0.879854 0.159916
H14   H     H_    0.935552 0.412311 0.120145 0.160662
H15   H     H_    0.427898 0.081598 0.879710 0.153842
H16   H     H_    0.574260 0.920369 0.120259 0.155389
H17   H     H_    0.329140 0.984072 0.443919 0.190797
H18   H     H_    0.670917 0.984693 0.556076 0.190745
H19   H     H_    0.926193 0.345099 0.443692 0.191143
H20   H     H_    0.064884 0.658849 0.556250 0.190628
H21   H     H_    0.670860 0.015929 0.443919 0.190797
H22   H     H_    0.329083 0.015306 0.556076 0.190745
H23   H     H_    0.073808 0.654901 0.443692 0.191143
H24   H     H_    0.935115 0.341151 0.556249 0.190628
H25   H     H_    0.829132 0.484545 0.943928 0.190795
H26   H     H_    0.170925 0.484208 0.056077 0.190742
H27   H     H_    0.426159 0.845114 0.943692 0.191144
H28   H     H_    0.564907 0.158839 0.056250 0.190627
H29   H     H_    0.170936 0.515482 0.943921 0.190794
H30   H     H_    0.829183 0.515839 0.056083 0.190745
H31   H     H_    0.573841 0.154886 0.943692 0.191144
H32   H     H_    0.435092 0.841160 0.056249 0.190627
C161  C     C_R   0.937228 0.502104 0.011817 0.043746
C162  C     C_R   0.062865 0.501976 0.988187 0.043795
C163  C     C_R   0.475154 0.942138 0.011828 0.043707
C164  C     C_R   0.526070 0.057321 0.988114 0.043553
C165  C     C_R   0.062865 0.497941 0.011815 0.043744
C166  C     C_R   0.937220 0.498064 0.988189 0.043796
C167  C     C_R   0.524845 0.057862 0.011828 0.043707
C168  C     C_R   0.473930 0.942679 0.988114 0.043553
C169  C     C_R   0.437176 0.001900 0.511811 0.043747
C170  C     C_R   0.562817 0.002132 0.488183 0.043797
C171  C     C_R   0.975164 0.442133 0.511828 0.043707
C172  C     C_R   0.026059 0.557326 0.488114 0.043555
C173  C     C_R   0.562824 0.998100 0.511811 0.043748
C174  C     C_R   0.437183 0.997868 0.488183 0.043797
C175  C     C_R   0.024836 0.557867 0.511828 0.043707
C176  C     C_R   0.973941 0.442674 0.488114 0.043555
C177  C     C_R   0.000048 0.500023 0.023516 0.074567
C178  C     C_R   0.000040 0.500019 0.976488 0.074582
C179  C     C_R   0.499999 0.000000 0.023538 0.073929
C180  C     C_R   0.500000 1.000000 0.976404 0.073953
C181  C     C_R   0.500000 1.000000 0.523511 0.074562
C182  C     C_R   0.500000 0.000000 0.476483 0.074579
C183  C     C_R   1.000000 0.500000 0.523538 0.073929
C184  C     C_R   0.000000 0.500000 0.476404 0.073953
C185  C     C_R   0.876417 0.508791 0.024262 -0.212158
C186  C     C_R   0.123688 0.508537 0.975741 -0.212163
C187  C     C_R   0.452528 0.885401 0.024397 -0.209680
C188  C     C_R   0.552813 0.112236 0.975545 -0.209691
C189  C     C_R   0.123680 0.491257 0.024259 -0.212155
C190  C     C_R   0.876392 0.491499 0.975746 -0.212165
C191  C     C_R   0.547471 0.114599 0.024397 -0.209680
C192  C     C_R   0.447187 0.887764 0.975545 -0.209691
C193  C     C_R   0.376343 0.008404 0.524256 -0.212152
C194  C     C_R   0.623625 0.008859 0.475738 -0.212157
C195  C     C_R   0.952546 0.385393 0.524397 -0.209678
C196  C     C_R   0.052790 0.612247 0.475545 -0.209691
C197  C     C_R   0.623657 0.991596 0.524256 -0.212153
C198  C     C_R   0.376375 0.991141 0.475738 -0.212158
C199  C     C_R   0.047454 0.614606 0.524397 -0.209678
C200  C     C_R   0.947211 0.387753 0.475545 -0.209691
H33   H     H_    0.827137 0.514472 0.016626 0.144225
H34   H     H_    0.172979 0.514120 0.983378 0.144023
H35   H     H_    0.434415 0.838958 0.016967 0.142961
H36   H     H_    0.574976 0.156884 0.982975 0.143195
H37   H     H_    0.172958 0.485580 0.016620 0.144224
H38   H     H_    0.827104 0.485917 0.983385 0.144024
H39   H     H_    0.565584 0.161042 0.016967 0.142961
H40   H     H_    0.425023 0.843116 0.982975 0.143194
H41   H     H_    0.327047 0.013937 0.516619 0.144220
H42   H     H_    0.672899 0.014576 0.483376 0.144019
H43   H     H_    0.934439 0.338948 0.516967 0.142958
H44   H     H_    0.074943 0.656900 0.482975 0.143191
H45   H     H_    0.672953 0.986062 0.516619 0.144220
H46   H     H_    0.327101 0.985424 0.483375 0.144019
H47   H     H_    0.065561 0.661051 0.516967 0.142958
H48   H     H_    0.925057 0.343100 0.482975 0.143191
C201  C     C_3   0.419211 0.102898 0.335775 -0.829836
H49   H     H_    0.387799 0.132296 0.347780 0.230914
H50   H     H_    0.452233 0.139777 0.326866 0.263156
H51   H     H_    0.383899 0.077965 0.323862 0.233462
C202  C     C_3   0.580544 0.103092 0.664218 -0.827386
H52   H     H_    0.611886 0.132556 0.652211 0.232199
H53   H     H_    0.547437 0.139901 0.673125 0.262741
H54   H     H_    0.615918 0.078246 0.676131 0.233503
C203  C     C_3   0.085028 0.401220 0.335355 -0.848920
H55   H     H_    0.109090 0.365199 0.347248 0.235308
H56   H     H_    0.053427 0.370961 0.323648 0.229664
H57   H     H_    0.126455 0.427119 0.326081 0.263133
C204  C     C_3   0.912523 0.596684 0.664583 -0.844476
H58   H     H_    0.887788 0.632209 0.652679 0.235653
H59   H     H_    0.871569 0.569834 0.673793 0.263196
H60   H     H_    0.943312 0.627615 0.676334 0.229743
C205  C     C_3   0.580789 0.897102 0.335775 -0.829834
H61   H     H_    0.612201 0.867704 0.347780 0.230914
H62   H     H_    0.547767 0.860224 0.326866 0.263156
H63   H     H_    0.616101 0.922035 0.323862 0.233461
C206  C     C_3   0.419456 0.896907 0.664218 -0.827387
H64   H     H_    0.388114 0.867443 0.652211 0.232200
H65   H     H_    0.452563 0.860099 0.673125 0.262740
H66   H     H_    0.384082 0.921754 0.676131 0.233503
C207  C     C_3   0.914972 0.598780 0.335356 -0.848921
H67   H     H_    0.890911 0.634801 0.347248 0.235308
H68   H     H_    0.946573 0.629039 0.323648 0.229664
H69   H     H_    0.873545 0.572881 0.326081 0.263133
C208  C     C_3   0.087477 0.403316 0.664583 -0.844476
H70   H     H_    0.112211 0.367791 0.652679 0.235652
H71   H     H_    0.128430 0.430166 0.673793 0.263196
H72   H     H_    0.056687 0.372385 0.676334 0.229744
C209  C     C_3   0.919394 0.603044 0.835782 -0.829696
H73   H     H_    0.884029 0.578174 0.823872 0.233513
H74   H     H_    0.888042 0.632498 0.847789 0.230878
H75   H     H_    0.952474 0.639867 0.826871 0.263149
C210  C     C_3   0.080919 0.602795 0.164237 -0.827567
H76   H     H_    0.116128 0.577823 0.176173 0.233378
H77   H     H_    0.112456 0.632088 0.152238 0.232275
H78   H     H_    0.047927 0.639761 0.173121 0.262720
C211  C     C_3   0.585017 0.901211 0.835355 -0.848933
H79   H     H_    0.609076 0.865187 0.847248 0.235312
H80   H     H_    0.553412 0.870955 0.823648 0.229664
H81   H     H_    0.626447 0.927105 0.826081 0.263131
C212  C     C_3   0.412532 0.096692 0.164583 -0.844474
H82   H     H_    0.387800 0.132220 0.152679 0.235660
H83   H     H_    0.371577 0.069846 0.173794 0.263197
H84   H     H_    0.443325 0.127620 0.176335 0.229740
C213  C     C_3   0.080617 0.396959 0.835779 -0.829685
H85   H     H_    0.111982 0.367512 0.847785 0.230877
H86   H     H_    0.047531 0.360132 0.826873 0.263145
H87   H     H_    0.115972 0.421826 0.823865 0.233513
C214  C     C_3   0.919155 0.397169 0.164221 -0.827647
H88   H     H_    0.887730 0.367794 0.152213 0.232276
H89   H     H_    0.952141 0.360266 0.173134 0.262756
H90   H     H_    0.883852 0.422133 0.176130 0.233406
C215  C     C_3   0.414983 0.098790 0.835355 -0.848934
H91   H     H_    0.390925 0.134813 0.847248 0.235312
H92   H     H_    0.446588 0.129045 0.823648 0.229663
H93   H     H_    0.373554 0.072895 0.826081 0.263131
C216  C     C_3   0.587467 0.903308 0.164583 -0.844473
H94   H     H_    0.612199 0.867780 0.152679 0.235659
H95   H     H_    0.628422 0.930154 0.173794 0.263197
H96   H     H_    0.556674 0.872379 0.176334 0.229739

loop_
_geom_bond_atom_site_label_1
_geom_bond_atom_site_label_2
_geom_bond_distance
_ccdc_geom_bond_type
C205  H61   1.110951 S    
C62   O58   1.349646 S    
C196  H44   1.075438 S    
C171  C195  1.417027 A    
Zn5   O51   1.908368 S    
C121  C137  1.397158 A    
C195  H43   1.075437 S    
C12   C39   1.437547 S    
N7    C111  1.441493 S    
C85   C101  1.402363 A    
Zn1   O40   1.908420 S    
Zn2   O39   1.908418 S    
C215  H92   1.110470 S    
C88   H12   1.083570 S    
C89   C153  1.423436 A    
C30   C46   1.207048 T    
C98   C158  1.423397 A    
C165  C177  1.420649 A    
C167  C191  1.417024 A    
C14   C37   1.437496 S    
C70   C134  1.406239 A    
C85   H9    1.083626 S    
C210  H78   1.109573 S    
N8    C112  1.442004 S    
C23   C28   1.437459 S    
Zn13  O35   1.908368 S    
C137  H17   1.083429 S    
O34   C22   1.268260 A    
Zn14  O36   1.908367 S    
Zn3   O3    1.931786 S    
C76   C108  1.397767 A    
C61   O57   1.349644 S    
C88   C104  1.403788 A    
C208  H72   1.110478 S    
C70   O66   1.349641 S    
Zn3   O45   1.907928 S    
C167  C179  1.422276 A    
C10   C33   1.437496 S    
C92   C156  1.420804 A    
C75   H7    1.083564 S    
C40   C56   1.207048 T    
C162  C165  1.422740 A    
C204  H59   1.109511 S    
C162  C178  1.420647 A    
C103  C211  1.508512 S    
C206  H66   1.110504 S    
C152  H32   1.083506 S    
C200  H48   1.075439 S    
C164  C167  1.425941 A    
C209  H75   1.109545 S    
C125  C141  1.397156 A    
C173  C197  1.415334 A    
C138  H18   1.083430 S    
O28   C16   1.268367 A    
C172  C184  1.422280 A    
C129  C145  1.397165 A    
C144  H24   1.083511 S    
C145  H25   1.083430 S    
C74   C106  1.397119 A    
C77   H1    1.083628 S    
C42   C55   1.414279 S    
C45   C52   1.414279 S    
C86   C102  1.402367 A    
O40   C18   1.268370 A    
C136  C152  1.395812 A    
C47   C50   1.414249 S    
C119  C131  1.407987 A    
C151  C188  1.390115 A    
C69   O65   1.349644 S    
C70   N6    1.370676 A    
C59   O55   1.349549 S    
C91   C207  1.508510 S    
C202  H54   1.110502 S    
C60   O56   1.349557 S    
C72   O68   1.349557 S    
O17   C5    1.274238 A    
C205  H63   1.110505 S    
Zn7   O3    1.931790 S    
C211  H79   1.110889 S    
O9    C1    1.274241 A    
O11   C3    1.274653 A    
C68   N8    1.369589 A    
Zn16  O9    1.904084 S    
C80   H4    1.083571 S    
Zn13  O4    1.930804 S    
C67   N7    1.369366 A    
Zn14  O3    1.930809 S    
C169  C193  1.415336 A    
C170  C182  1.420651 A    
O44   C22   1.268367 A    
C150  C185  1.390335 A    
C67   C131  1.407871 A    
C214  H88   1.110959 S    
C172  C196  1.417040 A    
C209  H74   1.110958 S    
C131  C147  1.395789 A    
C119  C180  1.426793 A    
C69   N5    1.370668 A    
C59   C123  1.407871 A    
C161  C185  1.415333 A    
C161  C166  1.422733 A    
N2    C106  1.442515 S    
C140  C199  1.390107 A    
C73   H5    1.083628 S    
C11   C40   1.437511 S    
Zn15  O33   1.907927 S    
C20   C31   1.437496 S    
C84   H16   1.083570 S    
Zn4   O4    1.931791 S    
C161  C177  1.420650 A    
C149  H29   1.083433 S    
C207  H67   1.110885 S    
C150  H30   1.083437 S    
Zn13  O28   1.908420 S    
Zn9   O12   1.903996 S    
Zn14  O27   1.908422 S    
C212  H83   1.109511 S    
Zn10  O11   1.903996 S    
Zn15  O2    1.931790 S    
O38   C20   1.268228 A    
C146  C189  1.390340 A    
C203  H55   1.110886 S    
C118  C130  1.407460 A    
O27   C15   1.268312 A    
C74   C90   1.402362 A    
C175  C183  1.422277 A    
C216  H94   1.110887 S    
C113  C125  1.407465 A    
N6    C110  1.442527 S    
O46   C12   1.268258 A    
C93   C201  1.509453 S    
O14   C6    1.273984 A    
C94   C202  1.509456 S    
C134  C150  1.397166 A    
C138  C197  1.390339 A    
O43   C21   1.268312 A    
C169  C174  1.422748 A    
C62   C126  1.406239 A    
C69   C133  1.406251 A    
C172  C175  1.425947 A    
C57   O53   1.349645 S    
C188  H36   1.075442 S    
C68   C132  1.407888 A    
C211  H81   1.109511 S    
C99   C159  1.420409 A    
C102  C158  1.423390 A    
C63   O59   1.349551 S    
C4    C157  1.487834 S    
C95   C203  1.508509 S    
C46   C51   1.414278 S    
C43   C54   1.414249 S    
C118  C134  1.407457 A    
C104  C160  1.420804 A    
C57   C121  1.406243 A    
C173  C181  1.420647 A    
C201  H50   1.109549 S    
C214  H90   1.110506 S    
C72   C136  1.407894 A    
C116  C183  1.426805 A    
C127  C143  1.395786 A    
Zn12  O30   1.907929 S    
C86   H10   1.083631 S    
C207  H69   1.109517 S    
C100  C160  1.420802 A    
C213  H86   1.109549 S    
O5    C1    1.274241 A    
C64   C128  1.407888 A    
O31   C19   1.268338 A    
C163  C187  1.417021 A    
C18   C25   1.437547 S    
C198  H46   1.076918 S    
C65   C129  1.406243 A    
C186  H34   1.076927 S    
C71   O67   1.349554 S    
C38   C54   1.207027 T    
O32   C20   1.268395 A    
C210  H76   1.110496 S    
O37   C19   1.268263 A    
C63   N3    1.369372 A    
C132  C148  1.395815 A    
C7    C154  1.487852 S    
C60   C124  1.407888 A    
C87   C111  1.397706 A    
O51   C13   1.268335 A    
C203  H57   1.109515 S    
C98   C214  1.509439 S    
C104  C212  1.508605 S    
C85   C109  1.397121 A    
C176  C200  1.417043 A    
C203  H56   1.110472 S    
C191  H39   1.075434 S    
C94   C154  1.423483 A    
C216  H96   1.110481 S    
C137  C198  1.390336 A    
O8    C4    1.274673 A    
C77   C105  1.397123 A    
C96   C204  1.508604 S    
C120  C132  1.407913 A    
C165  C189  1.415336 A    
Zn5   O44   1.908420 S    
O48   C10   1.268395 A    
Zn6   O43   1.908422 S    
C113  C182  1.423475 A    
C146  H26   1.083437 S    
Zn8   O37   1.907876 S    
O16   C8    1.274649 A    
C100  C216  1.508605 S    
C72   N8    1.369587 A    
C90   C206  1.509458 S    
Zn1   O1    1.930811 S    
C21   C30   1.437510 S    
C87   C103  1.403781 A    
O52   C14   1.268393 A    
C71   N7    1.369368 A    
C26   C42   1.207048 T    
C44   C53   1.414250 S    
C215  H91   1.110885 S    
C114  C122  1.407460 A    
O45   C11   1.268294 A    
C80   C108  1.397767 A    
C210  H77   1.111032 S    
C174  C198  1.415337 A    
C75   C107  1.397707 A    
C163  C168  1.425941 A    
O42   C24   1.268224 A    
O6    C2    1.273984 A    
C187  H35   1.075434 S    
Zn1   O20   1.903996 S    
C25   C41   1.207059 T    
C170  C194  1.415335 A    
Zn2   O19   1.903996 S    
C171  C183  1.422279 A    
C89   C205  1.509452 S    
C143  H23   1.083509 S    
C84   C112  1.397769 A    
C8    C153  1.487750 S    
C32   C48   1.207027 T    
C118  C177  1.423463 A    
C39   C55   1.207057 T    
C185  H33   1.076923 S    
C148  C191  1.390113 A    
C81   H13   1.083629 S    
C204  H58   1.110887 S    
Zn11  O2    1.931786 S    
C117  C129  1.407458 A    
C199  H47   1.075437 S    
C206  H65   1.109550 S    
C60   N4    1.369587 A    
C74   H6    1.083629 S    
Zn16  O34   1.907925 S    
C19   C32   1.437460 S    
C90   C154  1.423482 A    
C31   C47   1.207036 T    
C97   C157  1.423473 A    
C57   N1    1.370655 A    
Zn5   O1    1.930804 S    
C133  C149  1.397165 A    
Zn4   O46   1.907929 S    
C82   C110  1.397154 A    
Zn11  O26   1.907875 S    
C71   C135  1.407871 A    
C189  H37   1.076924 S    
C101  C209  1.509466 S    
C61   C125  1.406243 A    
C58   C122  1.406239 A    
O35   C23   1.268335 A    
Zn16  O1    1.931792 S    
C147  H27   1.083512 S    
Zn12  O1    1.931791 S    
C87   H11   1.083559 S    
C148  H28   1.083506 S    
C202  H53   1.109549 S    
C120  C179  1.426805 A    
C22   C29   1.437545 S    
Zn4   O13   1.904085 S    
Zn16  O21   1.907876 S    
Zn5   O16   1.903999 S    
N3    C107  1.441493 S    
Zn6   O15   1.903999 S    
C113  C121  1.407467 A    
C205  H62   1.109550 S    
C9    C34   1.437461 S    
O12   C4    1.274678 A    
C117  C133  1.407457 A    
C211  H80   1.110467 S    
O7    C3    1.274625 A    
C170  C173  1.422749 A    
C215  H93   1.109512 S    
C83   H15   1.083559 S    
C81   C109  1.397121 A    
C168  C192  1.417043 A    
O21   C9    1.268263 A    
C58   O54   1.349645 S    
Zn9   O24   1.908420 S    
Zn10  O23   1.908418 S    
O23   C11   1.268311 A    
O39   C17   1.268311 A    
C92   C208  1.508605 S    
Zn12  O25   1.907873 S    
C73   C105  1.397127 A    
Zn7   O49   1.907927 S    
C28   C44   1.207026 T    
Zn9   O4    1.930811 S    
O15   C7    1.274680 A    
Zn10  O3    1.930813 S    
O25   C13   1.268261 A    
C78   C94   1.402368 A    
C115  C123  1.407989 A    
C144  C195  1.390107 A    
C91   C155  1.420413 A    
O18   C6    1.273984 A    
Zn9   O31   1.908366 S    
Zn10  O32   1.908368 S    
O10   C2    1.273984 A    
Zn7   O18   1.904084 S    
Zn11  O29   1.907928 S    
C122  C138  1.397161 A    
C204  H60   1.110479 S    
C212  H82   1.110885 S    
O41   C23   1.268261 A    
C141  C194  1.390342 A    
C194  H42   1.076918 S    
C88   C112  1.397769 A    
C171  C176  1.425941 A    
O22   C10   1.268228 A    
C62   N2    1.370669 A    
C33   C49   1.207036 T    
C76   H8    1.083569 S    
C102  C210  1.509415 S    
C83   C111  1.397707 A    
C83   C99   1.403781 A    
C67   O63   1.349553 S    
C192  H40   1.075441 S    
N1    C105  1.442485 S    
O49   C15   1.268292 A    
C97   C213  1.509465 S    
C120  C136  1.407912 A    
Zn3   O42   1.907875 S    
C79   H3    1.083565 S    
C166  C190  1.415332 A    
C115  C184  1.426793 A    
Zn7   O38   1.907874 S    
C68   O64   1.349559 S    
C64   N4    1.369590 A    
C162  C186  1.415334 A    
C36   C52   1.207048 T    
C116  C128  1.407912 A    
Zn8   O50   1.907925 S    
Zn2   O2    1.930813 S    
O26   C14   1.268226 A    
C61   N1    1.370655 A    
N4    C108  1.442004 S    
C5    C156  1.484882 S    
C201  H49   1.110951 S    
C114  C126  1.407463 A    
C214  H89   1.109548 S    
O19   C7    1.274678 A    
Zn8   O4    1.931792 S    
C123  C139  1.395788 A    
N5    C109  1.442515 S    
C207  H68   1.110471 S    
C135  C151  1.395789 A    
C84   C100  1.403788 A    
O13   C5    1.274238 A    
C139  C200  1.390115 A    
C66   O62   1.349641 S    
C48   C49   1.414249 S    
C63   C127  1.407871 A    
C79   C107  1.397708 A    
O20   C8    1.274647 A    
C1    C160  1.484876 S    
C151  H31   1.083512 S    
C75   C91   1.403775 A    
C193  H41   1.076918 S    
C76   C92   1.403788 A    
C139  H19   1.083507 S    
Zn4   O41   1.907873 S    
C95   C155  1.420414 A    
O24   C12   1.268370 A    
C96   C156  1.420804 A    
C166  C178  1.420642 A    
C101  C157  1.423472 A    
C3    C158  1.487714 S    
C34   C50   1.207026 T    
C82   H14   1.083625 S    
C212  H84   1.110479 S    
C176  C184  1.422281 A    
Zn6   O52   1.908367 S    
C99   C215  1.508509 S    
C141  H21   1.083432 S    
C116  C124  1.407912 A    
C163  C179  1.422276 A    
C164  C180  1.422279 A    
Zn1   O47   1.908366 S    
C216  H95   1.109511 S    
Zn2   O48   1.908368 S    
C58   N2    1.370670 A    
Zn6   O2    1.930809 S    
C15   C36   1.437510 S    
C78   H2    1.083628 S    
C64   O60   1.349558 S    
C65   O61   1.349644 S    
C126  C142  1.397160 A    
Zn15  O10   1.904084 S    
C66   C130  1.406252 A    
Zn12  O5    1.904085 S    
C130  C146  1.397168 A    
C24   C27   1.437497 S    
C66   N6    1.370675 A    
Zn13  O8    1.903999 S    
C103  C159  1.420412 A    
Zn14  O7    1.903999 S    
Zn3   O14   1.904085 S    
O29   C17   1.268294 A    
Zn15  O22   1.907874 S    
C213  H87   1.110500 S    
C114  C181  1.423475 A    
C169  C181  1.420651 A    
C17   C26   1.437511 S    
C197  H45   1.076917 S    
C149  C186  1.390344 A    
C140  H20   1.083510 S    
C37   C53   1.207034 T    
C147  C192  1.390115 A    
C174  C182  1.420650 A    
C82   C98   1.402366 A    
C86   C110  1.397155 A    
C29   C45   1.207057 T    
C152  C187  1.390113 A    
C59   N3    1.369368 A    
C78   C106  1.397116 A    
C190  H38   1.076924 S    
C93   C153  1.423436 A    
C208  H70   1.110889 S    
O47   C9    1.268338 A    
C201  H51   1.110500 S    
C13   C38   1.437459 S    
C128  C144  1.395812 A    
C35   C51   1.207059 T    
O33   C21   1.268292 A    
C65   N5    1.370667 A    
C143  C196  1.390115 A    
C41   C56   1.414278 S    
C145  C190  1.390346 A    
C206  H64   1.110951 S    
Zn11  O6    1.904085 S    
C115  C127  1.407989 A    
C142  H22   1.083431 S    
C79   C95   1.403775 A    
C73   C89   1.402360 A    
C117  C178  1.423481 A    
C77   C93   1.402366 A    
C27   C43   1.207034 T    
C209  H73   1.110499 S    
C6    C155  1.484035 S    
C213  H85   1.110957 S    
C80   C96   1.403788 A    
C81   C97   1.402365 A    
C124  C140  1.395814 A    
C168  C180  1.422280 A    
Zn8   O17   1.904084 S    
O36   C24   1.268393 A    
O50   C16   1.268260 A    
C175  C199  1.417025 A    
C16   C35   1.437545 S    
C119  C135  1.407986 A    
C142  C193  1.390338 A    
C208  H71   1.109506 S    
C202  H52   1.110955 S    
C2    C159  1.484035 S    
C164  C188  1.417040 A    
O30   C18   1.268258 A    
