data_mof_unit_58952.cif
_audit_creation_date              2012-12-11T15:35:35-0500
_audit_creation_method            fapswitch 2.2
_symmetry_space_group_name_H-M    P1
_symmetry_Int_Tables_number       1
_space_group_crystal_system       triclinic
_cell_length_a                    17.468555
_cell_length_b                    24.237864
_cell_length_c                    15.078314
_cell_angle_alpha                 90.540863
_cell_angle_beta                  125.210527
_cell_angle_gamma                 88.936406
_cell_volume                      5215.20678371

loop_
_atom_site_label
_atom_site_type_symbol
_atom_type_description
_atom_site_fract_x
_atom_site_fract_y
_atom_site_fract_z
_atom_type_partial_charge
C1    C     C_R   0.308624 0.124035 0.909604 -0.048671
C2    C     C_R   0.588707 0.137982 0.913079 -0.120972
C3    C     C_R   0.269692 0.544530 0.272781 -0.190572
C4    C     C_3   0.414537 0.115583 0.636141 0.141076
C5    C     C_3   0.354208 0.086129 0.525834 -0.305139
C6    C     C_3   0.276024 0.123499 0.437690 -1.004055
C7    C     C_3   0.611430 0.879795 0.761618 0.171573
C8    C     C_3   0.605408 0.821608 0.717979 -0.256775
C9    C     C_3   0.702289 0.795060 0.770471 -0.988945
C10   C     C_3   0.915056 0.615742 0.636452 0.139795
C11   C     C_3   0.854551 0.586353 0.526092 -0.305961
C12   C     C_3   0.776617 0.623868 0.438020 -0.995539
C13   C     C_R   0.053106 0.344660 0.914588 -0.081185
C14   C     C_3   0.111059 0.379676 0.761184 0.175524
C15   C     C_3   0.104793 0.321494 0.717407 -0.262512
C16   C     C_3   0.201576 0.294855 0.769640 -0.983508
C17   C     C_R   0.088574 0.638072 0.913057 -0.119752
C18   C     C_R   0.545274 0.996676 0.721080 -0.284903
C19   C     C_R   0.045265 0.496624 0.721066 -0.281570
C20   C     C_R   0.824993 0.996702 0.302800 0.084535
C21   C     C_R   0.325234 0.497180 0.301654 0.073511
C22   C     C_R   0.674187 0.153113 0.004671 0.056489
C23   C     C_R   0.614394 0.813593 0.005928 0.048830
C24   C     C_R   0.174019 0.653252 0.004613 0.056512
C25   C     C_R   0.349760 0.848736 0.909426 -0.117640
C26   C     C_R   0.114476 0.313622 0.006026 0.048584
C27   C     C_3   0.079217 0.942197 0.474947 0.292867
C28   C     C_3   0.048007 0.003681 0.587960 0.217957
C29   C     C_3   0.581314 0.445545 0.463760 0.240985
C30   C     C_3   0.548826 0.498205 0.586357 0.230026
C31   C     C_3   0.972036 0.937870 0.392092 0.158570
C32   C     C_3   0.942966 0.009045 0.497036 0.334006
C33   C     C_3   0.473880 0.440257 0.384783 0.251783
C34   C     C_3   0.443877 0.505480 0.496821 0.324512
C35   C     C_3   0.074426 0.046466 0.454936 -0.430501
C36   C     C_R   0.808586 0.623980 0.909599 -0.046683
C37   C     C_3   0.573802 0.549551 0.459043 -0.368478
C38   C     C_3   0.105012 0.998606 0.537322 0.069768
C39   C     C_3   0.605759 0.498715 0.535373 0.089908
C40   C     C_3   0.925954 0.994902 0.385917 0.147045
C41   C     C_3   0.426468 0.495681 0.384369 0.109373
C42   C     C_R   0.445095 0.847683 0.091028 -0.140147
C43   C     C_R   0.402119 0.125293 0.091920 -0.135506
C44   C     C_R   0.945101 0.347703 0.091086 -0.139682
C45   C     C_R   0.902089 0.625267 0.091908 -0.134998
C46   C     C_3   0.972737 0.039017 0.358047 -0.644819
C47   C     C_R   0.849713 0.348736 0.909506 -0.111792
C48   C     C_3   0.472339 0.542723 0.361182 -0.596615
C49   C     C_R   0.297481 0.729795 0.909519 0.529011
C50   C     C_R   0.149638 0.179277 0.911388 0.520810
C51   C     C_R   0.797689 0.229733 0.909737 0.528912
C52   C     C_R   0.649543 0.679155 0.911336 0.521940
C53   C     C_R   0.739781 0.191368 0.911029 -0.357801
C54   C     C_R   0.600360 0.724739 0.914069 -0.334286
C55   C     C_R   0.239490 0.691506 0.910831 -0.357271
C56   C     C_R   0.100413 0.224798 0.914198 -0.333524
C57   C     C_R   0.746426 0.182670 0.006977 0.120977
C58   C     C_R   0.679414 0.133977 0.093628 -0.120766
C59   C     C_R   0.639359 0.755262 0.009930 0.120647
C60   C     C_R   0.246244 0.682789 0.006843 0.120838
C61   C     C_R   0.139422 0.255297 0.010065 0.120525
C62   C     C_R   0.822540 0.203020 0.105248 -0.163775
C63   C     C_R   0.714480 0.732706 0.107660 -0.164640
C64   C     C_R   0.322532 0.703019 0.105114 -0.162365
C65   C     C_R   0.214561 0.232739 0.107777 -0.165134
C66   C     C_R   0.379174 0.741079 0.104311 -0.252430
C67   C     C_R   0.263302 0.187803 0.106005 -0.250217
C68   C     C_R   0.879076 0.241163 0.104461 -0.252667
C69   C     C_R   0.646928 0.848033 0.093440 -0.164185
C70   C     C_R   0.763217 0.687754 0.105936 -0.248578
C71   C     C_R   0.358647 0.759881 0.004993 0.063615
C72   C     C_R   0.238426 0.165689 0.006329 0.064103
C73   C     C_R   0.858649 0.259908 0.005159 0.064108
C74   C     C_R   0.738342 0.665599 0.006291 0.064261
C75   C     C_R   0.482103 0.963096 0.540770 -0.169236
C76   C     C_R   0.612565 0.027129 0.626760 -0.106306
C77   C     C_R   0.981798 0.463168 0.540599 -0.175662
C78   C     C_R   0.112553 0.526998 0.626710 -0.106275
C79   C     C_R   0.477799 0.964389 0.447706 -0.219856
C80   C     C_R   0.179306 0.634083 0.093587 -0.120657
C81   C     C_R   0.606827 0.029337 0.531770 -0.207943
C82   C     C_R   0.977421 0.464486 0.447486 -0.216610
C83   C     C_R   0.106740 0.529235 0.531679 -0.209583
C84   C     C_R   0.539169 0.997909 0.443372 0.150870
C85   C     C_R   0.038909 0.497918 0.443203 0.151154
C86   C     C_R   0.532251 0.045554 0.294326 -0.149468
C87   C     C_R   0.526440 0.953502 0.288965 -0.126423
C88   C     C_R   0.032129 0.545556 0.294251 -0.148594
C89   C     C_R   0.026284 0.453503 0.288866 -0.126848
C90   C     C_R   0.549799 0.994107 0.630141 0.181648
C91   C     C_R   0.147051 0.348079 0.093512 -0.162930
C92   C     C_R   0.049684 0.494063 0.630055 0.185127
C93   C     C_R   0.253416 0.954419 0.692560 0.354897
C94   C     C_R   0.249666 0.045690 0.693904 0.518020
C95   C     C_R   0.753460 0.454398 0.692418 0.363437
C96   C     C_R   0.749929 0.545699 0.693722 0.551739
C97   C     C_R   0.311653 0.137306 0.002008 0.045994
C98   C     C_R   0.383967 0.816245 0.000913 0.089429
C99   C     C_R   0.811601 0.637239 0.001995 0.046753
C100  C     C_R   0.883940 0.316266 0.001017 0.086415
C101  C     C_R   0.530290 0.999414 0.344625 0.051506
C102  C     C_R   0.553076 0.844661 0.914535 -0.081537
C103  C     C_R   0.030045 0.499418 0.344468 0.051136
C104  C     C_R   0.206149 0.000058 0.627542 -0.086968
C105  C     C_R   0.706826 0.500064 0.626741 -0.173444
C106  C     C_R   0.512987 0.043268 0.742995 0.492159
C107  C     C_R   0.521954 0.952283 0.756617 0.462510
C108  C     C_R   0.013068 0.543234 0.743053 0.491395
C109  C     C_R   0.021883 0.452248 0.756557 0.455790
C110  C     C_R   0.767840 0.951517 0.261387 -0.058660
C111  C     C_R   0.769851 0.044314 0.273161 -0.201568
C112  C     C_R   0.268202 0.451771 0.261365 -0.062511
H1    H     H_    0.250738 0.129430 0.826258 0.231234
H2    H     H_    0.920281 0.052848 0.494224 0.073259
H3    H     H_    0.237326 0.290509 0.858608 0.265853
H4    H     H_    0.100003 0.958348 0.363017 0.313639
H5    H     H_    0.051766 0.043833 0.702556 0.344672
H6    H     H_    0.688722 0.440248 0.456131 0.354582
H7    H     H_    0.553499 0.530761 0.707694 0.341767
H8    H     H_    0.453544 0.432069 0.300773 0.105735
H9    H     H_    0.422312 0.548901 0.499405 0.076387
H10   H     H_    0.120932 0.049042 0.427063 0.189990
H11   H     H_    0.076162 0.086394 0.492669 0.241580
H12   H     H_    0.619581 0.555063 0.430758 0.205354
H13   H     H_    0.575151 0.587506 0.501758 0.224758
H14   H     H_    0.970149 0.026030 0.285377 0.201785
H15   H     H_    0.936410 0.079850 0.338027 0.203747
H16   H     H_    0.470326 0.532652 0.287670 0.226446
H17   H     H_    0.305017 0.836364 0.825747 0.176286
H18   H     H_    0.435649 0.583155 0.345194 0.184708
H19   H     H_    0.687384 0.170580 0.836663 0.148032
H20   H     H_    0.535983 0.738373 0.839918 0.125373
H21   H     H_    0.186964 0.670790 0.836440 0.148279
H22   H     H_    0.036016 0.238427 0.840070 0.124555
H23   H     H_    0.834579 0.193730 0.182292 0.117572
H24   H     H_    0.742740 0.752818 0.184702 0.123216
H25   H     H_    0.334672 0.693678 0.182194 0.117677
H26   H     H_    0.242818 0.252839 0.184831 0.123839
H27   H     H_    0.431012 0.759941 0.181032 0.136702
H28   H     H_    0.750662 0.629331 0.826253 0.228684
H29   H     H_    0.325998 0.175102 0.182586 0.138943
H30   H     H_    0.930727 0.260124 0.181151 0.136710
H31   H     H_    0.825914 0.675066 0.182531 0.138912
H32   H     H_    0.430161 0.939669 0.541282 0.181978
H33   H     H_    0.663422 0.051809 0.695935 0.135011
H34   H     H_    0.929785 0.439815 0.541103 0.170494
H35   H     H_    0.163553 0.551590 0.695952 0.135699
H36   H     H_    0.493073 0.834000 0.173976 0.091855
H37   H     H_    0.430148 0.131486 0.176003 0.101476
H38   H     H_    0.993113 0.334026 0.174034 0.091770
H39   H     H_    0.804830 0.336326 0.825877 0.178491
H40   H     H_    0.930108 0.631474 0.175983 0.101721
H41   H     H_    0.424610 0.940883 0.377904 0.138069
H42   H     H_    0.654382 0.055073 0.526965 0.123292
H43   H     H_    0.924114 0.441063 0.377624 0.136960
H44   H     H_    0.154386 0.554900 0.526910 0.123930
H45   H     H_    0.547417 0.087256 0.325419 0.096722
H46   H     H_    0.535063 0.910744 0.313513 0.101998
H47   H     H_    0.047302 0.587253 0.325370 0.097182
H48   H     H_    0.034868 0.410746 0.313406 0.101638
H49   H     H_    0.785727 0.908254 0.272073 0.150049
H50   H     H_    0.099901 0.907998 0.533363 0.179034
H51   H     H_    0.792676 0.085234 0.305332 0.095460
H52   H     H_    0.286662 0.408568 0.273179 0.152516
H53   H     H_    0.291918 0.585444 0.305246 0.095232
H54   H     H_    0.730647 0.143750 0.177324 0.088567
H55   H     H_    0.683739 0.835553 0.177281 0.099680
H56   H     H_    0.230507 0.643923 0.177258 0.088558
H57   H     H_    0.184027 0.335664 0.177411 0.099725
H58   H     H_    0.502918 0.828638 0.834282 0.143676
H59   H     H_    0.556071 0.155309 0.833781 0.156342
H60   H     H_    0.002934 0.328620 0.834357 0.142388
H61   H     H_    0.061718 0.965439 0.636227 0.107117
H62   H     H_    0.055849 0.655435 0.833775 0.155563
H63   H     H_    0.953259 0.860321 0.405011 0.315221
H64   H     H_    0.830966 0.991985 0.490260 0.312850
H65   H     H_    0.457755 0.361662 0.392453 0.308357
H66   H     H_    0.332217 0.486807 0.489590 0.313045
H67   H     H_    0.246345 0.714704 0.758049 0.319897
H68   H     H_    0.051999 0.165254 0.758939 0.324736
H69   H     H_    0.746795 0.214568 0.758359 0.319375
H70   H     H_    0.551828 0.664993 0.758974 0.324597
H71   H     H_    0.319864 0.886283 0.711544 0.323609
H72   H     H_    0.606431 0.407586 0.513921 0.166894
H73   H     H_    0.222847 0.101083 0.590139 0.298838
H74   H     H_    0.819714 0.386082 0.712330 0.329678
H75   H     H_    0.723926 0.601438 0.590696 0.296111
H76   H     H_    0.419230 0.159890 0.621856 0.152902
H77   H     H_    0.383010 0.114860 0.682022 0.125976
H78   H     H_    0.398829 0.073041 0.498613 0.238039
H79   H     H_    0.323489 0.048636 0.534771 0.183732
H80   H     H_    0.232838 0.141499 0.463245 0.261621
H81   H     H_    0.230059 0.099224 0.362423 0.273128
H82   H     H_    0.306468 0.157636 0.419349 0.273488
H83   H     H_    0.561999 0.457428 0.627250 0.120965
H84   H     H_    0.659882 0.879499 0.851815 0.112383
H85   H     H_    0.641978 0.906521 0.730500 0.104524
H86   H     H_    0.563372 0.795158 0.733725 0.201735
H87   H     H_    0.569410 0.823707 0.628641 0.199760
H88   H     H_    0.745741 0.820474 0.755023 0.268272
H89   H     H_    0.695142 0.753323 0.735665 0.284886
H90   H     H_    0.737902 0.790747 0.859421 0.266002
H91   H     H_    0.920006 0.660020 0.622228 0.152544
H92   H     H_    0.883559 0.615156 0.682365 0.125815
H93   H     H_    0.899095 0.573118 0.498852 0.238205
H94   H     H_    0.954174 0.927409 0.309924 0.080408
H95   H     H_    0.823583 0.548955 0.534942 0.176813
H96   H     H_    0.733698 0.642134 0.463725 0.259110
H97   H     H_    0.730353 0.599631 0.362783 0.277367
H98   H     H_    0.807291 0.657818 0.419573 0.271544
H99   H     H_    0.159623 0.379338 0.851371 0.113466
H100  H     H_    0.141579 0.406365 0.729985 0.104881
H101  H     H_    0.062781 0.295085 0.733256 0.201641
H102  H     H_    0.068657 0.323623 0.628049 0.199359
H103  H     H_    0.244996 0.320227 0.754080 0.267759
H104  H     H_    0.194247 0.253126 0.734728 0.285280
N1    N     N_R   0.392140 0.102630 0.941800 -0.054116
N2    N     N_R   0.525160 0.972040 0.206160 -0.037631
N3    N     N_R   0.025160 0.527960 0.206160 -0.036088
N4    N     N_R   0.025160 0.472040 0.206160 -0.037487
N5    N     N_R   0.317870 0.971120 0.792790 -0.129402
N6    N     N_R   0.317870 0.028880 0.792790 -0.107835
N7    N     N_R   0.817870 0.471120 0.792790 -0.118133
N8    N     N_R   0.817870 0.528880 0.792790 -0.104773
N9    N     N_R   0.473480 0.027920 0.793480 -0.144691
N10   N     N_R   0.473480 0.972080 0.793480 -0.117223
N11   N     N_R   0.973480 0.527920 0.793480 -0.145703
N12   N     N_R   0.392140 0.897370 0.941800 -0.058138
N13   N     N_R   0.973480 0.472080 0.793480 -0.119371
N14   N     N_R   0.681610 0.971120 0.207570 -0.056110
N15   N     N_R   0.681610 0.028880 0.207570 -0.037000
N16   N     N_R   0.181610 0.471120 0.207570 -0.055618
N17   N     N_R   0.181610 0.528880 0.207570 -0.037609
N18   N     N_R   0.605410 0.102620 0.056870 -0.040708
N19   N     N_R   0.605410 0.897380 0.056870 -0.049207
N20   N     N_R   0.105410 0.602620 0.056870 -0.040875
N21   N     N_R   0.105410 0.397380 0.056870 -0.048763
N22   N     N_R   0.549680 0.896430 0.944180 -0.050468
N23   N     N_R   0.892140 0.602630 0.941800 -0.054923
N24   N     N_R   0.549680 0.103570 0.944180 -0.051277
N25   N     N_R   0.049680 0.396430 0.944180 -0.049695
N26   N     N_R   0.049680 0.603570 0.944180 -0.051218
N27   N     N_R   0.892140 0.397370 0.941800 -0.057207
N28   N     N_R   0.450890 0.896450 0.057150 -0.037948
N29   N     N_R   0.450890 0.103550 0.057150 -0.044838
N30   N     N_R   0.950890 0.396450 0.057150 -0.037959
N31   N     N_R   0.950890 0.603550 0.057150 -0.044988
N32   N     N_R   0.525160 0.027960 0.206160 -0.036066
Ni1   Ni    Ni4+2 0.433410 0.064680 0.868830 0.215666
Ni2   Ni    Ni4+2 0.433410 0.935320 0.868830 0.218732
Ni3   Ni    Ni4+2 0.933410 0.564680 0.868830 0.214987
Ni4   Ni    Ni4+2 0.933410 0.435320 0.868830 0.214714
Ni5   Ni    Ni4+2 0.565650 0.934380 0.131170 0.208117
Ni6   Ni    Ni4+2 0.565650 0.065620 0.131170 0.209605
Ni7   Ni    Ni4+2 0.065650 0.434380 0.131170 0.208233
Ni8   Ni    Ni4+2 0.065650 0.565620 0.131170 0.210309
O1    O     O_3   0.939340 0.896058 0.426080 -0.731925
O2    O     O_3   0.237789 0.100094 0.663808 -0.779633
O3    O     O_3   0.761149 0.404597 0.653424 -0.786446
O4    O     O_3   0.738438 0.600179 0.664143 -0.790643
O5    O     O_3   0.506874 0.094174 0.698164 -0.683015
O6    O     O_3   0.520662 0.897601 0.728244 -0.665737
O7    O     O_3   0.007273 0.594161 0.698472 -0.682669
O8    O     O_3   0.020390 0.397573 0.728025 -0.669507
O9    O     O_3   0.127423 0.933430 0.426507 -0.704985
O10   O     O_3   0.075336 0.049635 0.657187 -0.729840
O11   O     O_3   0.620448 0.447435 0.404316 -0.756406
O12   O     O_3   0.892821 0.974049 0.519841 -0.713513
O13   O     O_3   0.577064 0.540411 0.663686 -0.734939
O14   O     O_3   0.445114 0.396072 0.418548 -0.747260
O15   O     O_3   0.393142 0.468613 0.515523 -0.712935
O16   O     O_3   0.292942 0.739564 0.816533 -0.789013
O17   O     O_3   0.114194 0.149683 0.817017 -0.765730
O18   O     O_3   0.793265 0.239486 0.816819 -0.790281
O19   O     O_3   0.614034 0.649440 0.817060 -0.760926
O20   O     O_3   0.261861 0.905172 0.652435 -0.716488

loop_
_geom_bond_atom_site_label_1
_geom_bond_atom_site_label_2
_ccdc_geom_bond_type
N7    Ni4   S    
C102  H58   S    
C73   C100  S    
C47   N27   A    
C96   C105  A    
C107  N10   A    
C77   C92   A    
N2    Ni5   S    
C29   H72   S    
C33   O14   S    
C70   C74   A    
C111  N15   A    
C80   N20   A    
C33   H8    S    
C8    H86   S    
N7    N8    A    
C15   H101  S    
N14   Ni5   S    
C42   H36   S    
H65   O14   S    
C45   N31   A    
C22   C57   S    
C18   C106  A    
C57   C62   A    
C54   C59   A    
C94   O2    S    
H67   O16   S    
C10   O7    S    
C95   O3    S    
C30   O13   S    
C70   H31   S    
H68   O17   S    
C11   H95   S    
C14   H99   S    
C108  O7    S    
N26   Ni3   S    
C12   H96   S    
C26   C61   S    
N1    N29   A    
C12   H97   S    
C76   C81   A    
C52   C74   A    
C42   C98   A    
C27   H50   S    
C5    C6    S    
C20   C40   S    
N32   Ni6   S    
C28   H61   S    
C87   N2    A    
C23   C102  A    
C79   H41   S    
N30   Ni7   S    
C27   C38   S    
C15   C16   S    
C37   H12   S    
N4    Ni7   S    
C29   C33   S    
C28   O10   S    
C31   C40   S    
C7    O6    S    
N23   N31   A    
C67   C72   A    
C88   H47   S    
N20   N26   A    
C16   H104  S    
N15   Ni6   S    
C50   C72   A    
C18   C107  A    
C38   C104  S    
C19   C92   S    
C95   C105  A    
C75   C90   A    
C76   H33   S    
C87   C101  A    
C58   H54   S    
C109  N13   A    
C78   C83   A    
C24   C80   A    
C13   H60   S    
C13   N25   A    
C66   H27   S    
C66   C71   A    
C1    N1    A    
C4    O5    S    
C65   C67   A    
C46   H14   S    
C2    C22   A    
C86   N32   A    
C68   H30   S    
C1    H1    S    
C53   H19   S    
C28   C38   S    
C36   C99   A    
C110  N14   A    
C10   H91   S    
N18   Ni6   S    
N12   Ni2   S    
H5    O10   S    
N17   Ni8   S    
C9    H88   S    
C44   N30   A    
C2    H59   S    
C64   H25   S    
C19   C108  A    
C36   N23   A    
C25   H17   S    
N24   Ni1   S    
C55   C60   A    
C89   C103  A    
C84   C101  S    
C79   C84   A    
N5    Ni2   S    
C48   H18   S    
N16   Ni7   S    
N1    Ni1   S    
C15   H102  S    
H7    O13   S    
C4    H77   S    
C93   C104  A    
H69   O18   S    
C110  H49   S    
C52   C54   A    
C52   O19   S    
C37   H13   S    
C72   C97   S    
C19   C109  A    
C112  H52   S    
C71   C98   S    
H75   O4    S    
C102  N22   A    
C17   C24   A    
N3    Ni8   S    
C91   H57   S    
H64   O12   S    
C27   C31   S    
C18   C90   S    
C43   C97   A    
C46   H15   S    
C7    C8    S    
C35   C38   S    
C111  H51   S    
C5    H79   S    
C31   H94   S    
H4    O9    S    
C45   C99   A    
C1    C97   A    
N3    N4    A    
C96   N8    A    
C30   C34   S    
C8    C9    S    
C83   H44   S    
C78   C92   A    
C68   C73   A    
C49   C55   A    
C44   C100  A    
N23   Ni3   S    
C23   C69   A    
C106  O5    S    
C44   H38   S    
C47   C100  A    
C51   C53   A    
N2    N32   A    
C62   H23   S    
C7    H85   S    
C16   H103  S    
C23   C59   S    
C69   H55   S    
C34   C41   S    
N5    N6    A    
C48   H16   S    
C20   C111  A    
C25   C98   A    
C30   H83   S    
N12   N28   A    
C63   C70   A    
N25   Ni4   S    
H74   O3    S    
C96   O4    S    
N27   N30   A    
C28   C32   S    
C29   C39   S    
N9    N10   A    
C65   H26   S    
C106  N9    A    
C31   O1    S    
N18   N24   A    
N20   Ni8   S    
C109  O8    S    
C36   H28   S    
N19   Ni5   S    
C9    H89   S    
C78   H35   S    
C93   O20   S    
C20   C110  A    
C82   H43   S    
C83   C85   A    
N22   Ni2   S    
H63   O1    S    
C17   N26   A    
C76   C90   A    
C34   H9    S    
N28   Ni5   S    
C29   O11   S    
N19   N22   A    
C21   C41   S    
C34   O15   S    
C3    C21   A    
C40   C46   S    
C67   H29   S    
C16   H3    S    
C6    H82   S    
C88   C103  A    
H66   O15   S    
C3    H53   S    
C89   H48   S    
N11   Ni3   S    
N10   Ni2   S    
N9    Ni1   S    
N27   Ni4   S    
C51   O18   S    
N11   N13   A    
C43   H37   S    
C56   C61   A    
C91   N21   A    
N21   Ni7   S    
C35   H10   S    
C51   C73   A    
C17   H62   S    
C47   H39   S    
C4    C5    S    
C58   N18   A    
C53   C57   A    
C85   C103  S    
C22   C58   A    
C39   C105  S    
C56   H22   S    
C11   C12   S    
C88   N3    A    
C81   C84   A    
C74   C99   S    
C108  N11   A    
N21   N25   A    
C82   C85   A    
C54   H20   S    
N29   Ni6   S    
C35   C46   S    
C25   N12   A    
C59   C63   A    
C112  N16   A    
C87   H46   S    
C62   C68   A    
C9    H90   S    
C60   C64   A    
C45   H40   S    
C33   C41   S    
C21   C112  A    
C4    H76   S    
C35   H11   S    
C26   C91   A    
N31   Ni8   S    
C12   H98   S    
C14   H100  S    
C37   C39   S    
C55   H21   S    
C50   C56   A    
C63   H24   S    
C89   N4    A    
C37   C48   S    
N8    Ni3   S    
C2    N24   A    
H71   O20   S    
C27   O9    S    
C75   C79   A    
C77   C82   A    
C43   N29   A    
C50   O17   S    
C42   N28   A    
N16   N17   A    
C41   C48   S    
C30   C39   S    
C32   O12   S    
C107  O6    S    
C32   C40   S    
C69   N19   A    
N14   N15   A    
C13   C26   A    
C86   H45   S    
C95   N7    A    
N13   Ni4   S    
C10   C11   S    
C81   H42   S    
C94   C104  A    
H6    O11   S    
C49   O16   S    
C61   C65   A    
H73   O2    S    
C14   O8    S    
N6    Ni1   S    
C75   H32   S    
C49   C71   A    
C6    H80   S    
C94   N6    A    
C14   C15   S    
C8    H87   S    
C93   N5    A    
C24   C60   S    
C11   H93   S    
C32   H2    S    
C7    H84   S    
C86   C101  A    
C10   H92   S    
C77   H34   S    
C80   H56   S    
C6    H81   S    
C3    N17   A    
C5    H78   S    
C64   C66   A    
H70   O19   S    
