data_mof_unit_55520.cif
_audit_creation_date              2012-12-10T17:19:53-0500
_audit_creation_method            fapswitch 2.2
_symmetry_space_group_name_H-M    P1
_symmetry_Int_Tables_number       1
_space_group_crystal_system       triclinic
_cell_length_a                    9.646296
_cell_length_b                    10.849398
_cell_length_c                    15.42228
_cell_angle_alpha                 84.325219
_cell_angle_beta                  73.782326
_cell_angle_gamma                 88.676505
_cell_volume                      1542.20268253

loop_
_atom_site_label
_atom_site_type_symbol
_atom_type_description
_atom_site_fract_x
_atom_site_fract_y
_atom_site_fract_z
_atom_type_partial_charge
C1    C     C_R   0.005697 0.263321 0.492271 0.865834
C2    C     C_R   0.663796 0.449245 0.908178 0.096020
C3    C     C_R   0.759820 0.402366 0.957886 0.096191
C4    C     C_R   0.513181 0.452986 0.952054 0.033887
C5    C     C_R   0.463080 0.424606 0.047867 -0.004759
C6    C     C_R   0.560064 0.366008 0.093792 0.234092
C7    C     C_R   0.706526 0.358681 0.049005 -0.227680
C8    C     C_R   0.410404 0.480213 0.902949 -0.158746
C9    C     C_R   0.264727 0.490510 0.947031 -0.211990
C10   C     C_R   0.217483 0.481295 0.041280 0.157098
C11   C     C_R   0.317401 0.453597 0.092524 0.104441
C12   C     C_R   0.917496 0.497061 0.672497 0.813766
C13   C     C_R   0.072226 0.504265 0.084919 -0.198016
C14   C     C_R   0.026200 0.505418 0.178767 -0.154445
C15   C     C_R   0.271469 0.468178 0.185541 -0.155839
C16   C     C_R   0.270607 0.105774 0.494057 -0.059678
C17   C     C_R   0.368546 0.038495 0.531401 -0.067635
C18   C     C_R   0.330565 0.922283 0.577335 -0.137436
C19   C     C_R   0.200887 0.868275 0.577758 -0.142339
C20   C     C_R   0.107303 0.930890 0.531969 0.102137
C21   C     C_R   0.131321 0.057707 0.503093 0.056750
C22   C     C_R   0.016560 0.129160 0.482421 -0.182563
C23   C     C_R   0.995971 0.736335 0.506725 0.829169
C24   C     C_R   0.902361 0.067418 0.463737 0.282159
C25   C     C_R   0.893422 0.939484 0.477228 -0.220204
C26   C     C_R   0.993965 0.870323 0.511148 -0.145577
C27   C     C_R   0.696348 0.678918 0.390709 -0.122379
C28   C     C_R   0.649955 0.788592 0.356361 -0.269100
C29   C     C_R   0.506874 0.803302 0.362008 -0.152488
C30   C     C_R   0.411067 0.703076 0.392428 0.310714
C31   C     C_R   0.448839 0.593691 0.445189 0.074416
C32   C     C_R   0.598953 0.589075 0.445195 0.107027
C33   C     C_R   0.550622 0.417839 0.555804 0.341133
C34   C     C_R   0.081872 0.496996 0.327999 0.837631
C35   C     C_R   0.403124 0.418069 0.555796 0.270460
C36   C     C_R   0.869110 0.478166 0.772248 -0.056160
C37   C     C_R   0.126444 0.490150 0.229422 -0.043323
C38   C     C_R   0.908103 0.394472 0.914806 -0.186459
C39   C     C_R   0.962478 0.432510 0.822699 -0.163276
C40   C     C_R   0.722167 0.491146 0.816044 -0.185807
Cu1   Cu    Cu3+1 0.140660 0.499990 0.500010 1.010423
Cu2   Cu    Cu3+1 0.859340 0.500010 0.499990 1.011055
H1    H     H_    0.994814 0.524192 0.046392 0.144329
H2    H     H_    0.308613 0.192850 0.455521 0.195069
H3    H     H_    0.472647 0.077934 0.526536 0.204180
H4    H     H_    0.403764 0.872114 0.609827 0.149127
H5    H     H_    0.175171 0.777459 0.613971 0.150155
H6    H     H_    0.808937 0.893849 0.458687 0.183465
H7    H     H_    0.726690 0.860817 0.321302 0.200665
H8    H     H_    0.476588 0.889319 0.329874 0.215703
H9    H     H_    0.189785 0.511910 0.906921 0.143836
H10   H     H_    0.981610 0.355618 0.951926 0.151270
H11   H     H_    0.076450 0.422313 0.790681 0.193189
H12   H     H_    0.655247 0.534146 0.776342 0.150572
H13   H     H_    0.438449 0.490076 0.829889 0.162055
N1    N     N_R   0.648320 0.501210 0.499140 -0.228657
N2    N     N_R   0.352470 0.501290 0.499110 -0.228570
O1    O     O_R   0.118810 0.319640 0.500010 -0.570115
O2    O     O_R   0.881240 0.319660 0.500000 -0.495623
O3    O     O_R   0.055570 0.499980 0.629840 -0.561530
O4    O     O_R   0.818000 0.500010 0.629830 -0.555496
O5    O     O_R   0.118760 0.680340 0.500000 -0.563410
O6    O     O_R   0.881190 0.680360 0.499990 -0.611282
O7    O     O_R   0.182000 0.499990 0.370170 -0.542854
O8    O     O_R   0.944430 0.500020 0.370160 -0.601308
H14   H     H_    0.778955 0.314839 0.085209 0.189334
Br1   Br    Br    0.766209 0.148945 0.406871 -0.496534
Br2   Br    Br    0.609171 0.300376 0.640941 -0.432794
H15   H     H_    0.810138 0.670827 0.375429 0.212636
H16   H     H_    0.349437 0.469421 0.223701 0.204935
Br3   Br    Br    0.276524 0.735048 0.320871 -0.521706
Br4   Br    Br    0.271526 0.306374 0.643407 -0.487392
H17   H     H_    0.913547 0.523246 0.211071 0.170543
Br5   Br    Br    0.500985 0.265757 0.208662 -0.512296

loop_
_geom_bond_atom_site_label_1
_geom_bond_atom_site_label_2
_ccdc_geom_bond_type
C16   C21   A    
C34   C37   S    
Cu1   Cu2   S    
C19   C20   A    
C9    H9    S    
C4    C8    A    
C30   Br3   S    
C5    C6    A    
C28   C29   A    
C17   H3    S    
Cu1   O1    S    
C5    C11   A    
C3    C7    A    
C1    O2    A    
C30   C31   A    
C19   H5    S    
C38   H10   S    
C34   O8    A    
C18   C19   A    
C23   C26   S    
C15   C37   A    
C24   Br1   S    
Cu2   N1    S    
C11   C15   A    
C23   O5    A    
C3    C38   A    
C16   C17   A    
Cu2   O8    S    
C12   C36   S    
C9    C10   A    
C16   H2    S    
C27   H15   S    
C33   N1    A    
C23   O6    A    
C1    C22   S    
C21   C22   A    
Cu1   O5    S    
C18   H4    S    
C8    H13   S    
C6    Br5   S    
C29   H8    S    
C38   C39   A    
C14   H17   S    
C36   C40   A    
C24   C25   A    
C8    C9    A    
C25   C26   A    
C2    C4    A    
C29   C30   A    
C28   H7    S    
C31   C32   A    
C25   H6    S    
C34   O7    A    
C17   C18   A    
Cu2   O4    S    
C35   Br4   S    
C40   H12   S    
C22   C24   A    
C13   H1    S    
C15   H16   S    
C27   C32   A    
C36   C39   A    
Cu1   O3    S    
C4    C5    A    
C10   C13   A    
Cu2   O2    S    
C6    C7    A    
C35   N2    A    
C31   N2    A    
C2    C3    A    
Cu1   N2    S    
C1    O1    A    
C14   C37   A    
C12   O4    A    
C39   H11   S    
C20   C26   A    
C33   C35   A    
C10   C11   A    
C12   O3    A    
C2    C40   A    
C20   C21   A    
C27   C28   A    
Cu1   O7    S    
C13   C14   A    
Cu2   O6    S    
C32   N1    A    
C33   Br2   S    
C7    H14   S    
