data_mof_unit_46478.cif
_audit_creation_date              2012-10-26T20:33:43-0400
_audit_creation_method            fapswitch 2.2
_symmetry_space_group_name_H-M    P1
_symmetry_Int_Tables_number       1
_space_group_crystal_system       triclinic
_cell_length_a                    10.785228
_cell_length_b                    9.087884
_cell_length_c                    7.781097
_cell_angle_alpha                 89.983961
_cell_angle_beta                  89.889725
_cell_angle_gamma                 90.07151
_cell_volume                      762.661414974

loop_
_atom_site_label
_atom_site_type_symbol
_atom_type_description
_atom_site_fract_x
_atom_site_fract_y
_atom_site_fract_z
_atom_type_partial_charge
C1    C     C_R   0.499958 0.220016 0.500020 0.546157
C2    C     C_1   0.499705 0.934595 0.500029 -0.001074
C3    C     C_3   0.074742 0.671617 0.555620 -0.033119
C4    C     C_3   0.925623 0.665658 0.576648 0.011339
C5    C     C_3   0.121656 0.511679 0.501906 -0.007138
C6    C     C_3   0.878164 0.512244 0.500449 0.012519
C7    C     C_2   0.134794 0.723338 0.723922 0.170885
C8    C     C_2   0.121885 0.780924 0.418477 0.240793
C9    C     C_2   0.886541 0.672699 0.767416 0.252918
C10   C     C_2   0.865594 0.799811 0.490305 0.334405
C11   C     C_R   0.259365 0.502673 0.500273 0.514107
C12   C     C_R   0.740581 0.502625 0.499841 0.581131
C13   C     C_R   0.499642 0.779970 0.500007 0.581221
C14   C     C_1   0.499822 0.065356 0.500050 -0.020100
C15   C     C_3   0.069864 0.393229 0.627581 -0.264591
C16   C     C_3   0.070886 0.470815 0.319976 -0.230873
C17   C     C_3   0.928435 0.381447 0.609779 -0.281727
C18   C     C_3   0.929944 0.489636 0.315105 -0.226199
Cu1   Cu    Cu3+1 0.500000 0.500010 0.669080 1.067334
Cu2   Cu    Cu3+1 0.500000 0.500010 0.330920 1.074223
H1    H     H_    0.093774 0.419405 0.762859 0.117668
H2    H     H_    0.208372 0.839824 0.439019 0.132165
H3    H     H_    0.929485 0.600094 0.860557 0.096268
H4    H     H_    0.889630 0.909083 0.536104 0.143802
H5    H     H_    0.113672 0.537370 0.215726 0.180848
H6    H     H_    0.885251 0.376221 0.739452 0.136645
H7    H     H_    0.905664 0.583435 0.230288 0.221240
H8    H     H_    0.111837 0.283945 0.599255 0.155578
H9    H     H_    0.094430 0.354225 0.290156 0.134641
H10   H     H_    0.904620 0.275382 0.546017 0.140550
H11   H     H_    0.888724 0.389511 0.255490 0.127417
H12   H     H_    0.172443 0.645663 0.815455 0.141085
N1    N     N_1   0.500000 0.499970 0.076820 -0.070914
N2    N     N_1   0.500000 0.499970 0.923180 -0.069840
O1    O     O_R   0.500000 0.288400 0.642760 -0.498345
O2    O     O_2   0.069506 0.798263 0.280915 -0.497283
O3    O     O_2   0.807807 0.758697 0.819464 -0.458301
O4    O     O_2   0.792303 0.789113 0.371613 -0.482810
O5    O     O_R   0.500000 0.288400 0.357240 -0.500986
O6    O     O_R   0.317700 0.499990 0.642790 -0.532837
O7    O     O_R   0.317700 0.499990 0.357210 -0.516286
O8    O     O_R   0.682300 0.499990 0.642790 -0.495567
O9    O     O_R   0.682300 0.499990 0.357210 -0.482582
O10   O     O_R   0.500000 0.711620 0.642810 -0.476743
O11   O     O_R   0.500000 0.711620 0.357190 -0.473216
O12   O     O_2   0.133108 0.853256 0.764642 -0.494410

loop_
_geom_bond_atom_site_label_1
_geom_bond_atom_site_label_2
_ccdc_geom_bond_type
C8    H2    S    
C11   O7    A    
C18   H11   S    
C1    C14   S    
Cu1   Cu2   S    
Cu1   O8    S    
C10   O4    D    
C9    O3    D    
N1    N2    T    
C16   H9    S    
Cu1   O1    S    
C13   O11   A    
C17   H10   S    
C2    C13   S    
C15   H8    S    
Cu2   O7    S    
Cu2   N1    S    
C4    C6    S    
C5    C11   S    
C12   O9    A    
C3    C7    S    
C6    C12   S    
C11   O6    A    
C2    C14   T    
C6    C18   S    
C5    C15   S    
Cu1   O6    S    
C17   H6    S    
C4    C10   S    
C3    C4    S    
C7    O12   D    
C15   H1    S    
Cu2   O9    S    
Cu1   O10   S    
C1    O1    A    
C16   C18   S    
C3    C8    S    
C8    O2    D    
C16   H5    S    
C6    C17   S    
Cu2   O5    S    
C1    O5    A    
C9    H3    S    
C5    C16   S    
C12   O8    A    
C7    H12   S    
C10   H4    S    
C4    C9    S    
C15   C17   S    
C13   O10   A    
C18   H7    S    
Cu2   O11   S    
C3    C5    S    
Cu1   N2    S    
