data_mof_unit_35318.cif
_audit_creation_date              2012-12-11T15:18:41-0500
_audit_creation_method            fapswitch 2.2
_symmetry_space_group_name_H-M    P1
_symmetry_Int_Tables_number       1
_space_group_crystal_system       triclinic
_cell_length_a                    6.93884
_cell_length_b                    19.859641
_cell_length_c                    23.887308
_cell_angle_alpha                 93.712065
_cell_angle_beta                  91.027025
_cell_angle_gamma                 88.406934
_cell_volume                      3283.13495541

loop_
_atom_site_label
_atom_site_type_symbol
_atom_type_description
_atom_site_fract_x
_atom_site_fract_y
_atom_site_fract_z
_atom_type_partial_charge
O1    O     O_R   0.620100 0.812200 0.810870 -0.543878
O2    O     O_R   0.379900 0.187800 0.189130 -0.541937
O3    O     O_R   0.296960 0.671650 0.794750 -0.531097
O4    O     O_R   0.703040 0.328350 0.205250 -0.531563
O5    O     O_R   0.120160 0.687800 0.689130 -0.539356
O6    O     O_R   0.879840 0.312200 0.310870 -0.539807
C1    C     C_R   0.468847 0.647185 0.804963 0.726149
C2    C     C_R   0.531122 0.352598 0.194818 0.717293
O7    O     O_R   0.290810 0.810670 0.817290 -0.525556
O8    O     O_R   0.709190 0.189330 0.182710 -0.520443
O9    O     O_R   0.113980 0.827820 0.711840 -0.524600
O10   O     O_R   0.886020 0.172180 0.288160 -0.523999
C3    C     C_R   0.459075 0.830798 0.834782 0.762945
C4    C     C_R   0.540592 0.170289 0.164412 0.754188
O11   O     O_R   0.626290 0.672180 0.788160 -0.541381
O12   O     O_R   0.373710 0.327820 0.211840 -0.541844
O13   O     O_3   0.451520 0.755460 0.715370 -0.363529
O14   O     O_3   0.548480 0.244540 0.284630 -0.364006
V1    V     V_3+5 0.179200 0.748980 0.756420 1.521502
V2    V     V_3+5 0.820800 0.251020 0.243580 1.531397
O15   O     O_R   0.783880 0.828350 0.705250 -0.542054
O16   O     O_R   0.216120 0.171650 0.294750 -0.542115
C5    C     C_R   0.950058 0.852454 0.694798 0.756263
C6    C     C_R   0.049933 0.147570 0.305230 0.757278
O17   O     O_R   0.790030 0.689320 0.682700 -0.543921
O18   O     O_R   0.209970 0.310680 0.317300 -0.544407
C7    C     C_R   0.959465 0.668228 0.665681 0.728889
C8    C     C_R   0.040535 0.331770 0.334321 0.726775
V3    V     V_3+5 0.678400 0.751010 0.743570 1.486550
V4    V     V_3+5 0.321600 0.248990 0.256430 1.492612
O19   O     O_3   0.955950 0.744540 0.784620 -0.361268
O20   O     O_3   0.044050 0.255460 0.215380 -0.356192
C9    C     C_R   0.175757 0.427209 0.395011 -0.151585
C10   C     C_R   0.824254 0.572781 0.604998 -0.151546
C11   C     C_R   0.029592 0.380654 0.383968 -0.083977
C12   C     C_R   0.970411 0.619340 0.616037 -0.084532
C13   C     C_R   0.871045 0.381717 0.419837 -0.180372
C14   C     C_R   0.128960 0.618275 0.580169 -0.180368
C15   C     C_R   0.859232 0.427409 0.467686 0.021285
C16   C     C_R   0.140787 0.572576 0.532326 0.021377
C17   C     C_R   0.005171 0.475806 0.477008 -0.016528
C18   C     C_R   0.994853 0.524177 0.523006 -0.016554
C19   C     C_R   0.162534 0.475595 0.440398 0.074231
C20   C     C_R   0.837485 0.524391 0.559614 0.074206
C21   C     C_R   0.704819 0.426201 0.505970 0.275830
C22   C     C_R   0.295208 0.573781 0.494044 0.275816
C23   C     C_R   0.695200 0.475995 0.550928 -0.179414
C24   C     C_R   0.304817 0.523991 0.449084 -0.179371
H1    H     H_    0.297549 0.427026 0.367162 0.116149
H2    H     H_    0.702460 0.572965 0.632847 0.116148
H3    H     H_    0.757898 0.346334 0.409888 0.160938
H4    H     H_    0.242097 0.653664 0.590112 0.161106
H5    H     H_    0.578609 0.477040 0.580432 0.134497
H6    H     H_    0.421394 0.522954 0.419576 0.134429
C25   C     C_R   0.950668 0.912774 0.661988 -0.071596
C26   C     C_R   0.049304 0.087272 0.338070 -0.072992
C27   C     C_R   0.910144 0.033795 0.661229 -0.142622
C28   C     C_R   0.089717 0.966253 0.338858 -0.140898
C29   C     C_R   0.898897 0.974834 0.689054 -0.218146
C30   C     C_R   0.101017 0.025200 0.311021 -0.216636
C31   C     C_R   0.002423 0.909066 0.604748 0.177573
C32   C     C_R   0.997545 0.091008 0.395312 0.177379
C33   C     C_R   0.982229 0.968184 0.573256 0.043747
C34   C     C_R   0.017651 0.031896 0.426820 0.044033
C35   C     C_R   0.955050 0.031151 0.604200 0.098063
C36   C     C_R   0.044790 0.968919 0.395884 0.096990
C37   C     C_R   0.992624 0.968698 0.513160 0.065681
C38   C     C_R   0.007210 0.031390 0.486918 0.065892
C39   C     C_R   0.022035 0.090704 0.521958 -0.117978
C40   C     C_R   0.977743 0.909383 0.478126 -0.117940
C41   C     C_R   0.982308 0.091288 0.578689 -0.173843
C42   C     C_R   0.017467 0.908789 0.421397 -0.172785
H7    H     H_    0.980449 0.139112 0.603316 0.139527
H8    H     H_    0.019291 0.860962 0.396775 0.140344
H9    H     H_    0.139688 0.022030 0.267146 0.114423
H10   H     H_    0.860214 0.977985 0.732928 0.112076
H11   H     H_    0.883203 0.081782 0.684400 0.132706
H12   H     H_    0.116622 0.918257 0.315697 0.135167
H13   H     H_    0.067804 0.137299 0.506532 0.179164
H14   H     H_    0.931947 0.862794 0.493559 0.179199
C43   C     C_R   0.489737 0.585417 0.836073 -0.098458
C44   C     C_R   0.510120 0.414139 0.163506 -0.095498
C45   C     C_R   0.598145 0.468449 0.837002 0.285167
C46   C     C_R   0.400568 0.530910 0.162370 0.285758
C47   C     C_R   0.560606 0.526325 0.808208 -0.184197
C48   C     C_R   0.439021 0.473232 0.191278 -0.183294
C49   C     C_R   0.457168 0.586803 0.893988 -0.194999
C50   C     C_R   0.542189 0.412495 0.105531 -0.195123
C51   C     C_R   0.498591 0.529203 0.925347 0.046220
C52   C     C_R   0.499856 0.469938 0.074054 0.047101
C53   C     C_R   0.569216 0.469401 0.895573 0.075077
C54   C     C_R   0.428929 0.529762 0.103775 0.064021
C55   C     C_R   0.475359 0.529273 0.985163 0.072923
C56   C     C_R   0.522579 0.469753 0.014198 0.081595
C57   C     C_R   0.589939 0.411896 0.982353 -0.188322
C58   C     C_R   0.407274 0.587046 0.016953 -0.180039
C59   C     C_R   0.612082 0.411836 0.924745 -0.145135
C60   C     C_R   0.385127 0.587173 0.074536 -0.131187
H15   H     H_    0.665107 0.365561 0.903332 0.172977
H16   H     H_    0.331426 0.633416 0.095870 0.189461
H17   H     H_    0.594336 0.365072 0.086343 0.141175
H18   H     H_    0.405496 0.634198 0.913241 0.153363
H19   H     H_    0.411822 0.474326 0.235881 0.135812
H20   H     H_    0.588182 0.525365 0.763633 0.136489
H21   H     H_    0.627938 0.365117 0.000634 0.146757
H22   H     H_    0.368425 0.633712 0.998648 0.165385
C61   C     C_R   0.402493 0.070461 0.113452 -0.211515
C62   C     C_R   0.580693 0.936349 0.881304 -0.247523
C63   C     C_R   0.530143 0.123580 0.113231 -0.139611
C64   C     C_R   0.466639 0.879897 0.884178 -0.137285
C65   C     C_R   0.641594 0.131557 0.064878 0.232991
C66   C     C_R   0.360386 0.871476 0.933121 0.230896
C67   C     C_R   0.621732 0.085097 0.016549 0.017215
C68   C     C_R   0.358963 0.923168 0.977789 0.013950
C69   C     C_R   0.497029 0.029360 0.019571 -0.035713
C70   C     C_R   0.481269 0.979370 0.974337 -0.035970
C71   C     C_R   0.387651 0.023186 0.067921 0.088118
C72   C     C_R   0.590560 0.985238 0.925928 0.073672
C73   C     C_R   0.721025 0.091086 0.965327 0.301063
C74   C     C_R   0.241951 0.921195 0.025985 0.300609
C75   C     C_R   0.707389 0.040589 0.921865 -0.257617
C76   C     C_R   0.261172 0.970110 0.070431 -0.239677
H23   H     H_    0.316897 0.064877 0.150379 0.125207
H24   H     H_    0.662539 0.942242 0.843717 0.125704
H25   H     H_    0.786605 0.045747 0.883696 0.127659
H26   H     H_    0.171939 0.967303 0.106997 0.124865
Br1   Br    Br    0.694326 0.390177 0.793447 -0.563681
Br2   Br    Br    0.303943 0.609168 0.205856 -0.546435
Br3   Br    Br    0.818311 0.205894 0.067895 -0.553314
Br4   Br    Br    0.249675 0.783868 0.940112 -0.570218
N1    N     N_2   0.829055 0.148593 0.955010 -0.469129
H27   H     H_    0.956954 0.136931 0.934739 0.261234
C77   C     C_3   0.718222 0.200842 0.928392 -0.449041
H28   H     H_    0.808922 0.245551 0.925071 0.209512
H29   H     H_    0.589956 0.216629 0.953718 0.213668
H30   H     H_    0.670616 0.182458 0.885556 0.180452
N2    N     N_2   0.094713 0.873355 0.029445 -0.468154
H31   H     H_    0.077136 0.857494 0.069287 0.265860
C78   C     C_3   0.913269 0.893628 0.004045 -0.442157
H32   H     H_    0.808820 0.852472 0.005685 0.216224
H33   H     H_    0.933481 0.903828 0.959369 0.215954
H34   H     H_    0.853100 0.939659 0.027091 0.170904
N3    N     N_2   0.564824 0.374157 0.499257 -0.520156
H35   H     H_    0.622341 0.326636 0.489022 0.279873
C79   C     C_3   0.406929 0.372841 0.538003 -0.494325
H36   H     H_    0.307116 0.332349 0.523439 0.211546
H37   H     H_    0.323644 0.421340 0.539637 0.201515
H38   H     H_    0.462698 0.362274 0.580518 0.202872
N4    N     N_2   0.435214 0.625821 0.500763 -0.520228
H39   H     H_    0.377688 0.673348 0.510968 0.279923
C80   C     C_3   0.593226 0.627101 0.462053 -0.493662
H40   H     H_    0.693107 0.667560 0.476646 0.211643
H41   H     H_    0.537602 0.637692 0.419529 0.203044
H42   H     H_    0.676396 0.578579 0.460422 0.201373
Br5   Br    Br    0.857128 0.172128 0.422312 -0.616583
Br6   Br    Br    0.142962 0.827979 0.577726 -0.615763

loop_
_geom_bond_atom_site_label_1
_geom_bond_atom_site_label_2
_ccdc_geom_bond_type
C46   Br2   S    
C4    C63   S    
V4    O20   S    
C33   C35   A    
C55   C56   A    
O11   V3    S    
C25   C29   A    
C61   C63   A    
C17   C18   A    
C61   H23   S    
O4    C2    A    
V1    O19   S    
C66   C68   A    
C50   H17   S    
C54   C60   A    
C15   C17   A    
C16   C22   A    
N2    C78   S    
O9    V1    S    
C2    C44   S    
C34   C38   A    
O16   C6    A    
C11   C13   A    
C46   C48   A    
O3    C1    A    
N4    C80   S    
C79   H36   S    
C13   H3    S    
C78   H34   S    
C27   C29   A    
C14   H4    S    
C28   C30   A    
C69   C70   A    
O13   V3    S    
C32   Br5   S    
C31   C33   A    
O7    V1    S    
C80   H42   S    
C39   C41   A    
O7    C3    A    
C32   C34   A    
C57   H21   S    
C59   H15   S    
O5    C7    A    
C28   C36   A    
C36   C42   A    
C8    C11   S    
C74   C76   A    
C38   C39   A    
C69   C71   A    
C58   C60   A    
C77   H30   S    
C73   N1    S    
C80   H40   S    
O3    V1    S    
O14   V4    S    
C51   C53   A    
C19   C24   A    
C10   C12   A    
C20   C23   A    
C15   C21   A    
C21   C23   A    
C2    O12   A    
C67   C73   A    
C17   C19   A    
C18   C20   A    
C62   H24   S    
C48   H19   S    
C79   H37   S    
C65   Br3   S    
C52   C56   A    
C22   C24   A    
C73   C75   A    
O17   V3    S    
C33   C37   A    
C10   H2    S    
C40   H14   S    
C37   C38   A    
C9    C19   A    
C62   C72   A    
C10   C20   A    
C42   H8    S    
O8    C4    A    
O8    V2    S    
C41   H7    S    
O13   V1    S    
C1    O11   A    
C44   C48   A    
O15   V3    S    
C26   C30   A    
C72   C75   A    
C34   C36   A    
C76   H26   S    
C24   H6    S    
C71   C76   A    
C75   H25   S    
C3    C64   S    
C27   H11   S    
C49   H18   S    
C52   C54   A    
C27   C35   A    
O10   V2    S    
O1    V3    S    
C65   C67   A    
C68   C74   A    
C53   C59   A    
C43   C49   A    
C47   H20   S    
C70   C72   A    
C45   C47   A    
C50   C52   A    
O18   V4    S    
C55   C58   A    
C60   H16   S    
O15   C5    A    
C77   H28   S    
C26   C32   A    
C39   H13   S    
O1    C3    A    
O12   V4    S    
N1    H27   S    
C31   Br6   S    
C79   H38   S    
O6    V2    S    
C21   N3    S    
V2    O20   S    
N3    C79   S    
C58   H22   S    
O16   V4    S    
C1    C43   S    
C45   Br1   S    
C16   C18   A    
N1    C77   S    
C68   C70   A    
C78   H32   S    
C57   C59   A    
C5    C25   S    
O5    V1    S    
C7    C12   S    
C6    C26   S    
C45   C53   A    
N2    H31   S    
O10   C6    A    
C30   H9    S    
O18   C8    A    
C23   H5    S    
O2    V4    S    
C37   C40   A    
C63   C65   A    
V3    O19   S    
C35   C41   A    
N4    H39   S    
C12   C14   A    
C14   C16   A    
C78   H33   S    
C44   C50   A    
C25   C31   A    
O9    C5    A    
C9    C11   A    
C62   C64   A    
O14   V2    S    
C80   H41   S    
C51   C55   A    
C56   C57   A    
O2    C4    A    
C64   C66   A    
C28   H12   S    
O4    V2    S    
O6    C8    A    
C22   N4    S    
C13   C15   A    
C77   H29   S    
C49   C51   A    
C40   C42   A    
C74   N2    S    
C46   C54   A    
C66   Br4   S    
C9    H1    S    
C29   H10   S    
C61   C71   A    
C43   C47   A    
N3    H35   S    
C67   C69   A    
O17   C7    A    
