data_mof_unit_66783.cif
_audit_creation_date              2013-03-05T15:41:05-0500
_audit_creation_method            fapswitch 2.2
_symmetry_space_group_name_H-M    P1
_symmetry_Int_Tables_number       1
_space_group_crystal_system       triclinic
_cell_length_a                    8.909207
_cell_length_b                    14.961824
_cell_length_c                    15.1835
_cell_angle_alpha                 95.724657
_cell_angle_beta                  99.691503
_cell_angle_gamma                 92.432181
_cell_volume                      1981.47277358

loop_
_atom_site_label
_atom_site_type_symbol
_atom_site_description
_atom_site_fract_x
_atom_site_fract_y
_atom_site_fract_z
_atom_type_partial_charge
P1    P     P_3+3 0.947560 0.714050 0.560480 0.547932
O1    O     O_2   0.113690 0.728200 0.532750 -0.317381
O2    O     O_3   0.871900 0.612110 0.540440 -0.353911
O3    O     O_3   0.325660 0.668890 0.372600 -0.296997
O4    O     O_2   0.247201 0.828900 0.439244 -0.367841
O5    O     O_3   0.947899 0.765708 0.670517 -0.573318
O6    O     O_3   0.314095 0.825279 0.281440 -0.551091
C1    C     C_3   0.401513 0.845383 0.138964 -0.440485
P2    P     P_3+3 0.325150 0.423860 0.297970 0.569081
P3    P     P_3+3 0.852515 0.592305 0.213292 0.523308
O7    O     O_2   0.147570 0.451710 0.282630 -0.311888
O8    O     O_3   0.905540 0.621350 0.329600 -0.356703
O9    O     O_2   0.969861 0.528872 0.185251 -0.326151
O10   O     O_3   0.316429 0.306507 0.257508 -0.547131
O11   O     O_3   0.891528 0.686961 0.161142 -0.456037
C2    C     C_3   0.803113 0.756885 0.188073 0.250483
H1    H     H_    0.809038 0.765238 0.262402 0.084693
H2    H     H_    0.684063 0.740714 0.154880 0.095955
C3    C     C_3   0.861376 0.846281 0.158831 -0.432525
C4    C     C_3   0.818440 0.306933 0.252141 0.237745
H3    H     H_    0.893125 0.368633 0.275937 0.156239
C5    C     C_3   0.847104 0.265304 0.156110 -0.679398
H4    H     H_    0.766083 0.292442 0.102592 0.145820
Ba1   Ba    Ba6+2 0.142880 0.544780 0.454020 1.660280
C6    C     C_3   0.014193 0.733910 0.750478 0.329522
C7    C     C_3   0.008692 0.811791 0.824069 -0.800125
H5    H     H_    0.062295 0.875023 0.807410 0.274672
H6    H     H_    0.070807 0.798053 0.889306 0.233775
H7    H     H_    0.893148 0.826699 0.833265 0.253499
C8    C     C_3   0.321777 0.240851 0.319406 0.349747
H8    H     H_    0.390773 0.263181 0.386459 -0.018933
C9    C     C_3   0.374408 0.150255 0.275817 -0.148037
P4    P     P_3+3 0.862730 0.285940 0.439440 0.545079
O12   O     O_2   0.696600 0.271740 0.467230 -0.386168
O13   O     O_3   0.938380 0.387880 0.459490 -0.302809
O14   O     O_3   0.484630 0.331100 0.627330 -0.339745
O15   O     O_3   0.829064 0.245423 0.319366 -0.610628
P5    P     P_3+3 0.965036 0.390987 0.787813 0.477975
O16   O     O_3   0.389110 0.548970 0.605210 -0.367346
O17   O     O_3   0.904740 0.378630 0.670330 -0.365791
O18   O     O_2   0.849008 0.450974 0.825123 -0.328915
O19   O     O_3   0.926576 0.287542 0.826776 -0.528695
Ba2   Ba    Ba6+2 0.667290 0.455210 0.545900 1.624043
P6    P     P_3+3 0.366636 0.787098 0.387266 0.510750
C10   C     C_3   0.408689 0.790851 0.221789 0.242368
H9    H     H_    0.529501 0.795418 0.256470 -0.007708
H10   H     H_    0.500557 0.829443 0.106266 0.161345
O20   O     O_3   0.421180 0.451020 0.394720 -0.400472
C11   C     C_3   0.605432 0.759468 0.765216 0.350532
H11   H     H_    0.709149 0.724114 0.778472 0.077389
C12   C     C_3   0.572601 0.809554 0.852595 -1.015050
H12   H     H_    0.575178 0.765634 0.905827 0.282812
H13   H     H_    0.660380 0.865059 0.878510 0.269248
H14   H     H_    0.460724 0.840413 0.841972 0.286385
P7    P     P_3+3 0.492186 0.580504 0.718104 0.491569
O21   O     O_2   0.662730 0.548230 0.717350 -0.359063
O22   O     O_3   0.482811 0.699208 0.721971 -0.536136
C13   C     C_3   0.005166 0.219297 0.786035 0.358915
H15   H     H_    0.085514 0.244239 0.743710 -0.005496
C14   C     C_3   0.888086 0.152588 0.725423 -0.771107
H16   H     H_    0.825837 0.186764 0.669935 0.272713
H17   H     H_    0.945661 0.095503 0.696138 0.202548
H18   H     H_    0.804678 0.125582 0.764259 0.284162
P8    P     P_3+3 0.442932 0.214883 0.614193 0.434237
C15   C     C_3   0.495838 0.243351 0.787149 0.381573
H19   H     H_    0.373785 0.259324 0.780667 0.048282
O23   O     O_2   0.549675 0.174100 0.552723 -0.413700
O24   O     O_3   0.517992 0.178167 0.717776 -0.531717
H20   H     H_    0.568006 0.305812 0.786743 0.150311
H21   H     H_    0.475678 0.144495 0.880494 0.268050
C16   C     C_3   0.544123 0.207581 0.877356 -0.786452
H22   H     H_    0.526042 0.258419 0.932555 0.237940
H23   H     H_    0.666943 0.193570 0.886821 0.264760
C17   C     C_R   0.010319 0.945730 0.549335 0.022991
C18   C     C_R   0.824365 0.804418 0.505629 0.222624
C19   C     C_R   0.665397 0.781386 0.489304 -0.220768
C20   C     C_R   0.563358 0.834021 0.440126 0.190579
C21   C     C_R   0.609789 0.922591 0.430813 -0.329515
C22   C     C_R   0.757611 0.959820 0.467841 0.145191
C23   C     C_R   0.868405 0.901609 0.505780 0.023060
C24   C     C_R   0.937380 0.097735 0.503267 -0.056823
C25   C     C_R   0.050334 0.039616 0.541186 0.065632
C26   C     C_R   0.978320 0.194792 0.502115 0.214186
C27   C     C_R   0.131303 0.222992 0.534950 -0.374660
C28   C     C_R   0.241198 0.168120 0.572044 0.174191
C29   C     C_R   0.202694 0.076426 0.572010 -0.133756
C30   C     C_R   0.791829 0.054875 0.467745 -0.156392
H24   H     H_    0.527725 0.963313 0.396595 0.162895
H25   H     H_    0.172827 0.284968 0.518061 0.178447
H26   H     H_    0.702866 0.095315 0.439497 0.151197
C31   C     C_R   0.247343 0.479905 0.772773 -0.363497
C32   C     C_R   0.165037 0.440315 0.831043 0.117313
C33   C     C_R   0.234589 0.437612 0.920972 -0.170508
C34   C     C_R   0.381498 0.480021 0.955947 0.021515
C35   C     C_R   0.455558 0.527617 0.895339 -0.171463
C36   C     C_R   0.394204 0.522188 0.802005 0.142591
C37   C     C_R   0.609301 0.499476 0.088186 -0.103109
C38   C     C_R   0.662538 0.532723 0.178095 0.144933
C39   C     C_R   0.419708 0.482572 0.215774 0.343464
C40   C     C_R   0.360259 0.465944 0.122601 -0.216276
C41   C     C_R   0.451185 0.479606 0.055993 0.159807
C42   C     C_R   0.569483 0.522808 0.242161 -0.441503
H27   H     H_    0.691335 0.495690 0.043449 0.123535
H28   H     H_    0.171625 0.401937 0.962701 0.171539
H29   H     H_    0.243291 0.443085 0.103350 0.163773
C43   C     C_2   0.361679 0.695672 0.187685 0.964398
O25   O     O_2   0.437991 0.655893 0.139336 -0.667995
O26   O     O_R   0.219621 0.658811 0.196436 -0.688172
H30   H     H_    0.189752 0.602752 0.153184 0.347502
C44   C     C_2   0.817636 0.165437 0.136383 1.204766
O27   O     O_2   0.703196 0.134351 0.084297 -0.601057
O28   O     O_R   0.928556 0.109155 0.169384 -0.764388
H31   H     H_    0.924890 0.050950 0.129191 0.349692
C45   C     C_2   0.992326 0.296758 0.128137 1.086764
O29   O     O_2   0.008250 0.374953 0.114658 -0.639486
O30   O     O_R   0.095308 0.236177 0.102248 -0.760151
H32   H     H_    0.184183 0.266857 0.080904 0.359307
C46   C     C_2   0.176465 0.722459 0.756496 1.047115
O31   O     O_2   0.249025 0.770254 0.716488 -0.567598
O32   O     O_R   0.245275 0.677362 0.827071 -0.853086
H33   H     H_    0.354673 0.696545 0.849880 0.348732
N1    N     N_3   0.930750 0.653328 0.768194 -0.205881
H34   H     H_    0.985170 0.626545 0.825348 0.140776
H35   H     H_    0.918854 0.604813 0.713358 0.195688
C47   C     C_2   0.168175 0.227130 0.336942 0.923490
O33   O     O_2   0.107155 0.294577 0.356976 -0.633142
O34   O     O_R   0.097552 0.140914 0.332303 -0.822386
H36   H     H_    0.988797 0.135664 0.340912 0.372271
C48   C     C_2   0.264039 0.821716 0.064644 1.012763
O35   O     O_2   0.180208 0.879920 0.039330 -0.660714
O36   O     O_R   0.237950 0.733714 0.022257 -0.744471
H37   H     H_    0.127440 0.717373 0.995394 0.331188
N2    N     N_3   0.273791 0.126839 0.188266 -0.120572
H38   H     H_    0.332258 0.115769 0.134401 0.173748
H39   H     H_    0.195015 0.073465 0.187585 0.179087
N3    N     N_3   0.370947 0.077373 0.334671 -0.244733
H40   H     H_    0.272786 0.034286 0.320276 0.192025
H41   H     H_    0.386267 0.103539 0.402189 0.120952
N4    N     N_3   0.530691 0.162105 0.260866 -0.168266
H42   H     H_    0.557088 0.105973 0.221111 0.157662
H43   H     H_    0.601538 0.161250 0.322530 0.130984
C49   C     C_2   0.618449 0.834046 0.705891 0.992827
O37   O     O_2   0.738007 0.878741 0.710802 -0.642908
O38   O     O_R   0.489304 0.855932 0.648672 -0.771317
H44   H     H_    0.515898 0.902278 0.608890 0.300915
N5    N     N_3   0.414088 0.940966 0.169521 -0.180022
H45   H     H_    0.413932 0.976660 0.113729 0.192081
H46   H     H_    0.316241 0.954968 0.195338 0.143573
C50   C     C_2   0.765168 0.920890 0.186141 0.949809
O39   O     O_2   0.691081 0.961629 0.129653 -0.625791
O40   O     O_R   0.768547 0.947138 0.276901 -0.788076
H47   H     H_    0.706300 0.001077 0.286561 0.314138
C51   C     C_2   0.098606 0.173937 0.859155 0.969295
O41   O     O_2   0.200842 0.217792 0.911419 -0.680137
O42   O     O_R   0.069683 0.082822 0.867883 -0.774810
H48   H     H_    0.140783 0.061293 0.919897 0.355135
N6    N     N_3   0.604623 0.711738 0.534381 -0.164819
H49   H     H_    0.667236 0.708146 0.597922 0.111140
H50   H     H_    0.492318 0.721403 0.542655 0.198205
N7    N     N_3   0.323328 0.018530 0.594476 -0.209935
H51   H     H_    0.402593 0.024943 0.551684 0.152151
H52   H     H_    0.374813 0.035045 0.661461 0.180268
N8    N     N_3   0.100273 0.900611 0.616167 -0.139961
H53   H     H_    0.126450 0.942872 0.676504 0.141211
H54   H     H_    0.198834 0.879790 0.594283 0.237906
C52   C     C_2   0.587313 0.590825 0.930448 0.979878
O43   O     O_2   0.580824 0.647614 0.993005 -0.588378
O44   O     O_R   0.723187 0.579949 0.898428 -0.763971
H55   H     H_    0.816333 0.602720 0.944003 0.350709
C53   C     C_2   0.636520 0.543744 0.337312 1.091390
O45   O     O_2   0.747218 0.506140 0.371715 -0.525227
O46   O     O_R   0.567706 0.601851 0.389968 -0.809621
H56   H     H_    0.577301 0.580244 0.451011 0.353536
C54   C     C_2   0.179192 0.476273 0.679267 1.097086
O47   O     O_2   0.107281 0.537782 0.650913 -0.638511
O48   O     O_R   0.212237 0.406235 0.621313 -0.811497
H57   H     H_    0.188668 0.420802 0.557369 0.349031
N9    N     N_3   0.016708 0.867905 0.206565 -0.142818
H58   H     H_    0.083481 0.818449 0.183403 0.207769
H59   H     H_    0.057427 0.929220 0.189532 0.129260
C55   C     C_2   0.859966 0.838249 0.057880 1.112956
O49   O     O_2   0.879753 0.905140 0.019991 -0.596352
O50   O     O_R   0.842035 0.753908 0.008998 -0.783894
H60   H     H_    0.845905 0.755844 0.943476 0.301980
C56   C     C_2   0.660691 0.333023 0.241004 0.863411
O51   O     O_2   0.567004 0.317068 0.171702 -0.629376
O52   O     O_R   0.615614 0.363974 0.318196 -0.749108
H61   H     H_    0.574255 0.313289 0.343931 0.342075

loop_
_geom_bond_atom_site_label_1
_geom_bond_atom_site_label_2
_geom_bond_distance
_ccdc_geom_bond_type
C42   C53   1.464717 S    
C8    C9    1.573116 S    
P7    O21   1.615224 D    
C18   C19   1.417521 A    
C33   C34   1.423371 A    
C7    H7    1.091137 S    
C35   C36   1.423420 A    
P2    O10   1.795417 S    
C6    C46   1.451713 S    
C3    C55   1.523372 S    
C46   O32   1.391953 S    
C22   C30   1.441994 A    
N9    H58   1.039715 S    
C25   C29   1.426935 A    
C20   C21   1.399197 A    
O30   H32   1.013858 S    
C48   O36   1.398730 S    
O2    Ba2   2.926977 S    
C40   H29   1.065654 S    
N6    H49   1.037566 S    
C43   O26   1.391272 S    
C14   H18   1.110295 S    
P8    O24   1.752689 S    
P6    C20   1.875724 S    
N8    H54   1.038905 S    
O46   H56   1.003141 S    
C17   C25   1.456929 A    
P5    O19   1.751786 S    
P3    O11   1.740132 S    
C50   O40   1.389690 S    
C28   C29   1.399882 A    
C17   N8    1.427039 S    
O3    Ba1   2.916727 S    
C56   O52   1.347377 S    
O5    C6    1.395297 S    
C53   O45   1.222414 D    
C13   C14   1.528517 S    
O11   C2    1.405433 S    
P5    C32   1.883749 S    
O7    Ba1   2.833972 S    
Ba1   O16   2.889666 S    
C11   O22   1.412182 S    
O26   H30   1.008908 S    
C14   H17   1.108383 S    
P1    O1    1.616709 D    
P3    C38   1.848608 S    
C1    C10   1.559905 S    
C40   C41   1.422611 A    
P4    O13   1.619947 S    
C4    C56   1.461467 S    
C54   O47   1.216121 D    
O17   Ba2   2.940990 S    
O16   P7    1.809981 S    
N8    H53   1.045707 S    
C34   C41   1.541974 S    
C2    H1    1.115046 S    
C11   C12   1.535655 S    
O40   H47   1.010995 S    
H21   C16   1.111273 S    
C51   O42   1.400049 S    
O13   Ba2   3.095006 S    
C6    N1    1.461010 S    
C31   C36   1.409742 A    
C8    C47   1.447581 S    
N6    H50   1.043440 S    
C17   C23   1.425561 A    
C46   O31   1.215701 D    
C52   O44   1.388283 S    
O19   C13   1.412784 S    
O2    Ba1   3.094236 S    
O10   C8    1.422537 S    
C9    N2    1.473989 S    
C33   H28   1.078297 S    
O28   H31   1.008332 S    
C24   C26   1.484700 A    
C37   C38   1.400888 A    
N5    H46   1.035201 S    
C55   O50   1.387397 S    
C19   N6    1.437585 S    
Ba1   O13   2.926427 S    
C12   H12   1.089314 S    
P1    C18   1.941442 S    
P8    O23   1.543471 D    
C19   C20   1.397748 A    
P5    O18   1.539307 D    
N3    H41   1.044578 S    
C31   C32   1.399077 A    
C9    N3    1.479667 S    
C21   C22   1.409523 A    
P7    C36   1.917719 S    
O16   Ba2   3.116992 S    
O3    P6    1.774844 S    
C5    C44   1.497399 S    
C6    C7    1.540211 S    
C15   C16   1.521469 S    
P4    O15   1.833372 S    
P1    O5    1.768968 S    
C31   C54   1.441828 S    
C14   H16   1.109756 S    
C12   H13   1.110022 S    
P4    Ba2   3.544561 S    
C55   O49   1.223805 D    
O50   H60   1.004480 S    
C13   C51   1.507735 S    
N2    H38   1.044689 S    
P2    O7    1.637730 D    
Ba1   O20   3.117858 S    
N9    H59   1.044388 S    
C39   C40   1.417781 A    
C8    H8    1.109060 S    
C15   O24   1.407477 S    
C11   C49   1.514779 S    
C39   C42   1.416761 A    
C24   C25   1.442013 A    
P4    O12   1.617189 D    
C7    H5    1.112282 S    
C44   O27   1.223185 D    
C37   H27   1.077848 S    
O6    P6    1.754948 S    
C27   C28   1.387306 A    
P4    C26   1.968260 S    
C3    N9    1.456921 S    
C24   C30   1.417253 A    
P3    O8    1.754781 S    
C9    N4    1.454350 S    
C2    H2    1.100649 S    
O44   H55   1.009561 S    
O4    P6    1.545003 D    
C4    C5    1.592752 S    
C15   H19   1.113527 S    
P7    O22   1.777121 S    
O1    Ba1   2.922083 S    
C47   O33   1.203086 D    
C49   O38   1.392136 S    
C26   C27   1.401670 A    
C27   H25   1.054860 S    
N1    H35   1.036599 S    
O36   H37   1.009938 S    
C35   C52   1.466606 S    
O6    C10   1.413035 S    
P8    C28   1.883088 S    
O42   H48   1.014076 S    
C10   C43   1.483472 S    
C16   H23   1.111068 S    
N5    H45   1.045340 S    
Ba2   O20   2.888898 S    
C21   H24   1.071806 S    
Ba1   Ba2   4.855575 S    
O48   H57   1.005831 S    
C49   O37   1.220737 D    
C13   H15   1.115679 S    
C5    H4    1.113291 S    
C1    N5    1.452425 S    
O12   Ba2   2.922669 S    
N3    H40   1.043003 S    
P3    O9    1.525929 D    
C45   O30   1.392401 S    
N4    H42   1.043262 S    
P2    Ba1   3.494817 S    
C45   O29   1.214178 D    
O8    Ba1   2.940216 S    
C7    H6    1.093322 S    
O38   H44   1.009772 S    
C12   H14   1.110159 S    
N7    H51   1.044624 S    
C48   O35   1.220343 D    
C1    H10   1.106227 S    
O52   H61   0.973359 S    
C38   C42   1.394782 A    
C50   O39   1.220929 D    
P5    O17   1.762917 S    
C4    O15   1.435296 S    
N4    H43   1.038883 S    
C56   O51   1.223988 D    
C52   O43   1.220296 D    
C53   O46   1.357395 S    
C2    C3    1.546828 S    
C15   H20   1.112776 S    
C32   C33   1.406526 A    
C3    C50   1.503751 S    
C54   O48   1.374229 S    
P2    O20   1.575856 S    
C34   C35   1.443826 A    
C44   O28   1.387384 S    
C22   C23   1.430505 A    
C10   H9    1.111854 S    
Ba2   O21   2.834244 S    
C5    C45   1.499673 S    
C18   C23   1.489670 A    
C16   H22   1.111572 S    
C4    H3    1.107191 S    
P1    Ba1   3.543921 S    
P2    C39   1.883827 S    
C11   H11   1.083632 S    
C43   O25   1.212683 D    
C30   H26   1.075289 S    
C1    C48   1.522163 S    
C47   O34   1.401028 S    
N2    H39   1.038632 S    
O32   H33   0.997513 S    
O14   Ba2   2.916169 S    
P1    O2    1.619975 S    
N1    H34   1.045438 S    
O14   P8    1.747096 S    
C29   N7    1.427009 S    
C37   C41   1.419634 A    
O34   H36   1.000150 S    
N7    H52   1.043575 S    
C51   O41   1.221442 D    
