data_mof_unit_63131.cif
_audit_creation_date              2012-12-10T17:53:38-0500
_audit_creation_method            fapswitch 2.2
_symmetry_space_group_name_H-M    P1
_symmetry_Int_Tables_number       1
_space_group_crystal_system       triclinic
_cell_length_a                    19.645638
_cell_length_b                    19.647652
_cell_length_c                    51.608696
_cell_angle_alpha                 90.000581
_cell_angle_beta                  89.998449
_cell_angle_gamma                 89.988842
_cell_volume                      19920.4741798

loop_
_atom_site_label
_atom_site_type_symbol
_atom_type_description
_atom_site_fract_x
_atom_site_fract_y
_atom_site_fract_z
_atom_type_partial_charge
C1    C     C_R   0.624177 0.991514 0.013840 0.193088
C2    C     C_R   0.375480 0.000556 0.986085 0.190361
C3    C     C_R   0.993503 0.626248 0.013578 0.187555
C4    C     C_R   0.022379 0.378472 0.986311 0.164899
C5    C     C_R   0.374835 0.001748 0.013345 0.152394
C6    C     C_R   0.624945 0.992633 0.986579 0.150660
C7    C     C_R   0.020459 0.378079 0.013671 0.157010
C8    C     C_R   0.993799 0.626164 0.986372 0.186329
C9    C     C_R   0.124653 0.492265 0.513845 0.192515
C10   C     C_R   0.875879 0.498851 0.486102 0.190716
C11   C     C_R   0.475478 0.121206 0.513779 0.193432
C12   C     C_R   0.507182 0.873921 0.486360 0.182350
C13   C     C_R   0.875220 0.499980 0.513361 0.151853
C14   C     C_R   0.125403 0.493440 0.486583 0.151079
C15   C     C_R   0.509648 0.874212 0.513548 0.191451
C16   C     C_R   0.474712 0.121268 0.486510 0.146010
C17   C     C_R   0.439083 0.997419 0.055025 0.571444
C18   C     C_R   0.560597 0.993572 0.944881 0.570933
C19   C     C_R   0.007921 0.441210 0.055006 0.592450
C20   C     C_R   0.001814 0.561895 0.944917 0.585602
C21   C     C_R   0.560214 0.999981 0.054936 0.584460
C22   C     C_R   0.439849 0.003740 0.944959 0.583677
C23   C     C_R   0.996772 0.561928 0.055101 0.583128
C24   C     C_R   0.004156 0.440839 0.945300 0.580285
C25   C     C_R   0.939527 0.496533 0.555042 0.571448
C26   C     C_R   0.061027 0.493879 0.444887 0.570905
C27   C     C_R   0.501922 0.937952 0.555070 0.580599
C28   C     C_R   0.495133 0.059286 0.445276 0.575577
C29   C     C_R   0.060631 0.500159 0.554947 0.584241
C30   C     C_R   0.940197 0.502985 0.444982 0.583806
C31   C     C_R   0.493371 0.058830 0.554945 0.583090
C32   C     C_R   0.497571 0.938183 0.444860 0.571420
C33   C     C_R   0.561923 0.996047 0.027567 -0.112560
C34   C     C_R   0.437884 0.000314 0.972339 -0.112183
C35   C     C_R   0.998798 0.564248 0.027644 -0.132496
C36   C     C_R   0.010845 0.439897 0.972586 -0.098084
C37   C     C_R   0.436986 0.999072 0.027517 -0.111499
C38   C     C_R   0.562773 0.994686 0.972393 -0.111378
C39   C     C_R   0.011003 0.439761 0.027575 -0.097238
C40   C     C_R   0.000214 0.564211 0.972395 -0.132001
C41   C     C_R   0.062367 0.496228 0.527577 -0.112643
C42   C     C_R   0.938280 0.499383 0.472357 -0.112023
C43   C     C_R   0.487913 0.060001 0.527583 -0.111334
C44   C     C_R   0.499248 0.935774 0.472339 -0.133721
C45   C     C_R   0.937403 0.498047 0.527533 -0.111355
C46   C     C_R   0.063209 0.494954 0.472401 -0.111728
C47   C     C_R   0.502446 0.935937 0.527597 -0.132493
C48   C     C_R   0.487885 0.060295 0.472549 -0.099786
C49   C     C_R   0.499648 0.997526 0.013736 -0.092755
C50   C     C_R   0.500132 0.997493 0.986169 -0.091731
C51   C     C_R   0.005292 0.502084 0.013835 -0.093191
C52   C     C_R   0.005447 0.502105 0.986295 -0.095480
C53   C     C_R   0.000076 0.497129 0.513749 -0.092535
C54   C     C_R   0.000553 0.497138 0.486182 -0.091832
C55   C     C_R   0.494485 0.997898 0.513795 -0.089217
C56   C     C_R   0.493782 0.997939 0.486238 -0.084702
C57   C     C_R   0.972005 0.444185 0.390235 0.455799
C58   C     C_R   0.026813 0.443322 0.609742 0.456074
C59   C     C_R   0.555689 0.975481 0.390569 0.460037
C60   C     C_R   0.555985 0.024143 0.609468 0.456180
C61   C     C_R   0.028226 0.554776 0.390365 0.459642
C62   C     C_R   0.974156 0.555654 0.609555 0.459969
C63   C     C_R   0.441922 0.024947 0.390217 0.454857
C64   C     C_R   0.442616 0.973866 0.609775 0.457882
C65   C     C_R   0.471384 0.944480 0.890225 0.455805
C66   C     C_R   0.526083 0.943289 0.109698 0.456284
C67   C     C_R   0.057686 0.475100 0.890279 0.457114
C68   C     C_R   0.056675 0.527869 0.109818 0.455513
C69   C     C_R   0.528308 0.054715 0.890354 0.459538
C70   C     C_R   0.474140 0.055950 0.109580 0.459931
C71   C     C_R   0.944036 0.524831 0.890529 0.459503
C72   C     C_R   0.944787 0.474348 0.109487 0.456757
C73   C     C_R   0.000253 0.499297 0.403976 0.040030
C74   C     C_R   0.000433 0.499301 0.595967 0.038899
C75   C     C_R   0.498371 0.999916 0.404083 0.044729
C76   C     C_R   0.499109 0.998852 0.595958 0.035111
C77   C     C_R   0.499926 0.999443 0.903964 0.040248
C78   C     C_R   0.500019 0.999475 0.095956 0.038630
C79   C     C_R   0.001188 0.500236 0.904097 0.035192
C80   C     C_R   0.000971 0.501213 0.095988 0.037808
C81   C     C_R   0.000016 0.500080 0.179686 0.892181
C82   C     C_R   0.000013 0.499939 0.820329 0.890732
C83   C     C_R   0.500029 0.999993 0.179682 0.891783
C84   C     C_R   0.499971 0.999994 0.820299 0.893974
C85   C     C_R   0.499983 0.999930 0.679678 0.891050
C86   C     C_R   0.499976 0.000093 0.320327 0.890902
C87   C     C_R   0.000058 0.499989 0.679685 0.892073
C88   C     C_R   0.999981 0.499991 0.320302 0.893640
C89   C     C_R   0.870510 0.629488 0.250000 0.826870
C90   C     C_R   0.129487 0.370515 0.750000 0.827448
C91   C     C_R   0.370507 0.870510 0.250000 0.827066
C92   C     C_R   0.629491 0.129486 0.750000 0.827647
C93   C     C_R   0.129491 0.370513 0.250000 0.826872
C94   C     C_R   0.870512 0.629484 0.750000 0.827295
C95   C     C_R   0.629492 0.129490 0.250000 0.827118
C96   C     C_R   0.370511 0.870513 0.750000 0.827646
C97   C     C_R   0.870507 0.370510 0.750001 0.827159
C98   C     C_R   0.129489 0.629488 0.249999 0.827670
C99   C     C_R   0.370510 0.129488 0.750000 0.827002
C100  C     C_R   0.629487 0.870516 0.250000 0.827337
C101  C     C_R   0.129492 0.629490 0.750000 0.827033
C102  C     C_R   0.870510 0.370514 0.250000 0.827803
C103  C     C_R   0.629490 0.870513 0.749999 0.826851
C104  C     C_R   0.370513 0.129485 0.250001 0.827321
C105  C     C_R   0.968841 0.445863 0.362954 0.036004
C106  C     C_R   0.029891 0.444934 0.637026 0.036079
C107  C     C_R   0.555134 0.972547 0.363267 0.033075
C108  C     C_R   0.555037 0.027744 0.636762 0.032929
C109  C     C_R   0.031038 0.553706 0.363066 0.034220
C110  C     C_R   0.971000 0.554638 0.636848 0.034419
C111  C     C_R   0.443872 0.028434 0.362951 0.037500
C112  C     C_R   0.444309 0.970804 0.637057 0.033191
C113  C     C_R   0.468367 0.946108 0.862940 0.035984
C114  C     C_R   0.529299 0.944819 0.136980 0.035970
C115  C     C_R   0.055913 0.471641 0.863007 0.037188
C116  C     C_R   0.054905 0.530770 0.137104 0.035236
C117  C     C_R   0.531216 0.053573 0.863058 0.034176
C118  C     C_R   0.471070 0.054876 0.136874 0.034514
C119  C     C_R   0.944769 0.527759 0.863227 0.033512
C120  C     C_R   0.945739 0.470898 0.136786 0.033035
C121  C     C_1   0.181167 0.681163 0.249997 -0.154386
C122  C     C_1   0.818825 0.318828 0.750002 -0.149010
C123  C     C_1   0.318835 0.181160 0.250002 -0.154485
C124  C     C_1   0.681174 0.818832 0.749998 -0.149272
C125  C     C_1   0.818831 0.318839 0.250000 -0.154041
C126  C     C_1   0.181176 0.681171 0.750001 -0.149195
C127  C     C_1   0.681166 0.818841 0.250000 -0.154269
C128  C     C_1   0.318827 0.181169 0.749999 -0.149043
C129  C     C_1   0.181164 0.318840 0.750001 -0.154361
C130  C     C_1   0.818828 0.681170 0.249999 -0.149058
C131  C     C_1   0.318833 0.818838 0.749998 -0.154405
C132  C     C_1   0.681175 0.181172 0.250001 -0.148993
C133  C     C_1   0.818834 0.681159 0.750001 -0.154297
C134  C     C_1   0.181175 0.318833 0.249999 -0.149289
C135  C     C_1   0.681170 0.181160 0.749999 -0.154035
C136  C     C_1   0.318823 0.818830 0.250001 -0.149335
C137  C     C_1   0.224572 0.724571 0.249998 -0.001964
C138  C     C_1   0.775418 0.275418 0.750001 -0.000044
C139  C     C_1   0.275428 0.224571 0.250002 -0.002190
C140  C     C_1   0.724583 0.775420 0.749999 -0.000524
C141  C     C_1   0.775425 0.275431 0.250001 -0.001640
C142  C     C_1   0.224583 0.724581 0.750000 -0.000249
C143  C     C_1   0.724574 0.775431 0.249999 -0.001980
C144  C     C_1   0.275417 0.224581 0.750000 -0.000260
C145  C     C_1   0.224573 0.275430 0.750000 -0.001948
C146  C     C_1   0.775419 0.724582 0.249999 -0.000322
C147  C     C_1   0.275427 0.775430 0.749999 -0.001892
C148  C     C_1   0.724582 0.224582 0.250001 -0.000033
C149  C     C_1   0.775426 0.724570 0.750001 -0.002135
C150  C     C_1   0.224584 0.275420 0.250000 -0.000535
C151  C     C_1   0.724575 0.224568 0.750000 -0.001661
C152  C     C_1   0.275415 0.775420 0.250000 -0.000361
C153  C     C_R   0.999922 0.499895 0.349149 -0.227112
C154  C     C_R   0.000329 0.499884 0.650816 -0.228406
C155  C     C_R   0.499742 0.000413 0.349214 -0.230456
C156  C     C_R   0.499820 0.999485 0.650799 -0.228019
C157  C     C_R   0.499835 0.999920 0.849141 -0.226813
C158  C     C_R   0.500148 0.999922 0.150810 -0.228692
C159  C     C_R   0.000171 0.499740 0.849220 -0.229851
C160  C     C_R   0.000176 0.500588 0.150821 -0.227208
N1    N     N_R   0.499755 0.999070 0.067924 -0.313845
N2    N     N_R   0.500147 0.999017 0.931989 -0.312765
N3    N     N_R   0.001667 0.501418 0.067970 -0.313810
N4    N     N_R   0.002101 0.501017 0.932130 -0.315924
N5    N     N_R   0.000184 0.498778 0.567936 -0.313688
N6    N     N_R   0.000522 0.498834 0.432002 -0.312867
N7    N     N_R   0.498532 0.998573 0.567944 -0.310832
N8    N     N_R   0.497217 0.999094 0.432116 -0.307028
O1    O     O_3   1.000000 0.500000 0.250000 -0.482060
O2    O     O_3   0.000000 0.500000 0.750000 -0.482003
O3    O     O_3   0.500000 1.000000 0.250000 -0.481978
O4    O     O_3   0.500000 1.000000 0.750000 -0.482039
O5    O     O_R   0.055830 0.500000 0.192320 -0.621944
O6    O     O_R   0.944170 0.500000 0.807680 -0.621155
O7    O     O_R   0.500000 0.055830 0.192320 -0.621470
O8    O     O_R   0.500000 0.944170 0.807680 -0.622457
O9    O     O_R   0.944170 0.500000 0.192320 -0.621958
O10   O     O_R   0.055830 0.500000 0.807680 -0.621555
O11   O     O_R   0.500000 0.944170 0.192320 -0.621749
O12   O     O_R   0.500000 0.055830 0.807680 -0.622223
O13   O     O_R   0.555830 0.000000 0.692320 -0.621654
O14   O     O_R   0.444170 1.000000 0.307680 -0.621438
O15   O     O_R   0.000000 0.555830 0.692320 -0.621659
O16   O     O_R   1.000000 0.444170 0.307680 -0.622397
O17   O     O_R   0.444170 0.000000 0.692320 -0.621506
O18   O     O_R   0.555830 1.000000 0.307680 -0.621290
O19   O     O_R   1.000000 0.444170 0.692320 -0.621754
O20   O     O_R   1.000000 0.555830 0.307680 -0.622095
O21   O     O_R   0.865940 0.578550 0.235150 -0.635494
O22   O     O_R   0.134060 0.421450 0.764850 -0.632156
O23   O     O_R   0.421450 0.865940 0.235150 -0.635354
O24   O     O_R   0.578550 0.134060 0.764850 -0.631665
O25   O     O_R   0.134060 0.421450 0.235150 -0.635512
O26   O     O_R   0.865940 0.578550 0.764850 -0.632292
O27   O     O_R   0.578550 0.134060 0.235150 -0.635230
O28   O     O_R   0.421450 0.865940 0.764850 -0.631655
O29   O     O_R   0.865940 0.421450 0.764850 -0.635221
O30   O     O_R   0.134060 0.578550 0.235150 -0.631961
O31   O     O_R   0.421450 0.134060 0.764850 -0.635408
O32   O     O_R   0.578550 0.865940 0.235150 -0.632013
O33   O     O_R   0.134060 0.578550 0.764850 -0.635383
O34   O     O_R   0.865940 0.421450 0.235150 -0.631988
O35   O     O_R   0.578550 0.865940 0.764850 -0.635572
O36   O     O_R   0.421450 0.134060 0.235150 -0.632019
O37   O     O_R   0.365940 0.078550 0.735150 -0.635430
O38   O     O_R   0.634060 0.921450 0.264850 -0.632266
O39   O     O_R   0.921450 0.365940 0.735150 -0.635347
O40   O     O_R   0.078550 0.634060 0.264850 -0.631782
O41   O     O_R   0.634060 0.921450 0.735150 -0.635374
O42   O     O_R   0.365940 0.078550 0.264850 -0.632196
O43   O     O_R   0.078550 0.634060 0.735150 -0.635301
O44   O     O_R   0.921450 0.365940 0.264850 -0.631769
O45   O     O_R   0.365940 0.921450 0.264850 -0.635370
O46   O     O_R   0.634060 0.078550 0.735150 -0.632266
O47   O     O_R   0.921450 0.634060 0.264850 -0.635413
O48   O     O_R   0.078550 0.365940 0.735150 -0.631937
O49   O     O_R   0.634060 0.078550 0.264850 -0.635286
O50   O     O_R   0.365940 0.921450 0.735150 -0.632153
O51   O     O_R   0.078550 0.365940 0.264850 -0.635532
O52   O     O_R   0.921450 0.634060 0.735150 -0.631996
O53   O     O_2   0.381457 0.993305 0.069072 -0.568789
O54   O     O_2   0.617877 0.986322 0.930811 -0.570302
O55   O     O_2   0.011437 0.383147 0.068878 -0.524073
O56   O     O_2   0.003794 0.619577 0.930840 -0.569432
O57   O     O_2   0.618332 0.006112 0.068668 -0.524470
O58   O     O_2   0.382235 0.013148 0.931187 -0.527025
O59   O     O_2   0.988643 0.619181 0.069119 -0.570436
O60   O     O_2   0.998087 0.382168 0.931905 -0.525253
O61   O     O_2   0.881947 0.491998 0.569098 -0.568588
O62   O     O_2   0.118360 0.487150 0.430811 -0.570236
O63   O     O_2   0.504807 0.880168 0.569082 -0.566903
O64   O     O_2   0.502104 0.117667 0.431830 -0.575200
O65   O     O_2   0.118700 0.506768 0.568677 -0.525305
O66   O     O_2   0.882493 0.512006 0.431226 -0.526727
O67   O     O_2   0.493296 0.117237 0.568680 -0.519430
O68   O     O_2   0.496005 0.880627 0.430700 -0.570654
Zn1   Zn    Zn3+2 0.000000 0.579740 0.272110 0.979540
Zn2   Zn    Zn3+2 1.000000 0.420260 0.727890 0.979322
Zn3   Zn    Zn3+2 0.420260 1.000000 0.272110 0.978812
Zn4   Zn    Zn3+2 0.579740 1.000000 0.727890 0.978931
Zn5   Zn    Zn3+2 0.000000 0.420260 0.272110 0.979333
Zn6   Zn    Zn3+2 0.000000 0.579740 0.727890 0.979304
Zn7   Zn    Zn3+2 0.579740 1.000000 0.272110 0.979057
Zn8   Zn    Zn3+2 0.420260 1.000000 0.727890 0.978923
Zn9   Zn    Zn3+2 0.500000 0.079740 0.772110 0.979704
Zn10  Zn    Zn3+2 0.500000 0.920260 0.227890 0.979109
Zn11  Zn    Zn3+2 0.920260 0.500000 0.772110 0.979150
Zn12  Zn    Zn3+2 0.079740 0.500000 0.227890 0.979030
Zn13  Zn    Zn3+2 0.500000 0.920260 0.772110 0.979359
Zn14  Zn    Zn3+2 0.500000 0.079740 0.227890 0.979393
Zn15  Zn    Zn3+2 0.079740 0.500000 0.772110 0.978890
Zn16  Zn    Zn3+2 0.920260 0.500000 0.227890 0.979255
N9    N     N_2   0.686775 0.982417 0.027438 -0.246480
H1    H     H_    0.727240 0.010216 0.020410 0.240611
C161  C     C_3   0.704172 0.911998 0.032278 -0.680758
H2    H     H_    0.750761 0.909533 0.044419 0.235544
H3    H     H_    0.714049 0.885126 0.013704 0.207165
H4    H     H_    0.662271 0.885959 0.042820 0.262704
N10   N     N_2   0.312320 0.996600 0.972514 -0.248693
H5    H     H_    0.274375 0.027820 0.979510 0.239178
C162  C     C_3   0.289041 0.927838 0.967827 -0.673304
H6    H     H_    0.242427 0.929153 0.955674 0.235987
H7    H     H_    0.276914 0.902187 0.986456 0.209231
H8    H     H_    0.328605 0.898173 0.957359 0.261925
N11   N     N_2   0.990476 0.690733 0.026186 -0.272214
H9    H     H_    0.028877 0.702728 0.039006 0.264346
C163  C     C_3   0.923482 0.718025 0.031687 -0.678301
H10   H     H_    0.915301 0.720906 0.052938 0.256603
H11   H     H_    0.882495 0.686231 0.023061 0.222478
H12   H     H_    0.919750 0.770192 0.023584 0.225551
N12   N     N_2   0.040323 0.317877 0.972599 -0.252054
H13   H     H_    0.023631 0.272706 0.980444 0.216745
C164  C     C_3   0.110510 0.315141 0.964036 -0.668016
H14   H     H_    0.118821 0.268205 0.952480 0.233888
H15   H     H_    0.145521 0.314646 0.980902 0.203791
H16   H     H_    0.122932 0.359655 0.951649 0.273799
N13   N     N_2   0.310096 0.004779 0.025743 -0.304794
H17   H     H_    0.298577 0.965947 0.038411 0.270275
C165  C     C_3   0.287539 0.072187 0.033143 -0.705952
H18   H     H_    0.235004 0.069314 0.040989 0.232070
H19   H     H_    0.287206 0.106489 0.016035 0.214275
H20   H     H_    0.321493 0.094117 0.048169 0.284906
N14   N     N_2   0.689725 0.990311 0.974190 -0.307405
H21   H     H_    0.697865 0.950898 0.961400 0.268267
C166  C     C_3   0.717987 0.055671 0.966979 -0.697314
H22   H     H_    0.770069 0.048427 0.959102 0.232194
H23   H     H_    0.721278 0.089485 0.984181 0.216666
H24   H     H_    0.686030 0.080770 0.952036 0.284510
N15   N     N_2   0.028803 0.315385 0.027222 -0.251748
H25   H     H_    0.997064 0.276018 0.021923 0.216069
C167  C     C_3   0.097975 0.295713 0.033402 -0.702635
H26   H     H_    0.133520 0.339670 0.032165 0.225170
H27   H     H_    0.115237 0.255018 0.020001 0.207723
H28   H     H_    0.099573 0.275482 0.053465 0.262385
N16   N     N_2   0.987916 0.690307 0.973676 -0.273912
H29   H     H_    0.028187 0.706078 0.962374 0.255778
C168  C     C_3   0.920360 0.711029 0.965611 -0.655154
H30   H     H_    0.917044 0.711943 0.944146 0.268708
H31   H     H_    0.910051 0.763082 0.972957 0.216715
H32   H     H_    0.880484 0.676166 0.973220 0.222907
N17   N     N_2   0.187333 0.483693 0.527439 -0.247003
H33   H     H_    0.227556 0.511842 0.520413 0.240139
C169  C     C_3   0.205331 0.413419 0.532269 -0.679874
H34   H     H_    0.251943 0.411339 0.544407 0.235715
H35   H     H_    0.215426 0.386648 0.513691 0.207665
H36   H     H_    0.163658 0.387015 0.542810 0.262248
N18   N     N_2   0.812781 0.494074 0.472525 -0.248828
H37   H     H_    0.774380 0.524693 0.479545 0.239676
C170  C     C_3   0.790507 0.425015 0.467766 -0.671816
H38   H     H_    0.743873 0.425739 0.455617 0.236056
H39   H     H_    0.778765 0.399056 0.486369 0.209762
H40   H     H_    0.830493 0.396006 0.457264 0.262028
N19   N     N_2   0.463580 0.183556 0.527263 -0.242134
H41   H     H_    0.484503 0.226163 0.518728 0.233385
C171  C     C_3   0.394074 0.194154 0.535689 -0.684301
H42   H     H_    0.392414 0.237460 0.549488 0.239290
H43   H     H_    0.373939 0.148260 0.545664 0.233191
H44   H     H_    0.361035 0.206542 0.518934 0.215618
N20   N     N_2   0.515221 0.809758 0.473844 -0.279602
H45   H     H_    0.477467 0.795267 0.461148 0.265319
C172  C     C_3   0.584190 0.792288 0.466597 -0.667919
H46   H     H_    0.603937 0.828378 0.451846 0.272822
H47   H     H_    0.585209 0.740031 0.458424 0.227282
H48   H     H_    0.617880 0.793542 0.483880 0.222035
N21   N     N_2   0.810449 0.502083 0.525762 -0.305334
H49   H     H_    0.799530 0.463134 0.538455 0.270687
C173  C     C_3   0.786890 0.569172 0.533129 -0.701774
H50   H     H_    0.734419 0.565534 0.540990 0.232832
H51   H     H_    0.786016 0.603401 0.516003 0.215070
H52   H     H_    0.820534 0.591676 0.548133 0.284429
N22   N     N_2   0.190196 0.491743 0.474191 -0.306267
H53   H     H_    0.198693 0.452436 0.461387 0.268441
C174  C     C_3   0.217851 0.557377 0.467000 -0.701085
H54   H     H_    0.269997 0.550633 0.459120 0.231966
H55   H     H_    0.220833 0.591183 0.484212 0.215624
H56   H     H_    0.185661 0.582209 0.452064 0.284444
N23   N     N_2   0.522237 0.810884 0.526144 -0.280313
H57   H     H_    0.561746 0.807936 0.539233 0.251382
C175  C     C_3   0.464517 0.766269 0.530132 -0.653013
H58   H     H_    0.451567 0.764120 0.551052 0.262204
H59   H     H_    0.477897 0.714281 0.523453 0.223032
H60   H     H_    0.419015 0.783769 0.519169 0.223736
N24   N     N_2   0.455782 0.182931 0.473846 -0.305876
H61   H     H_    0.493126 0.206192 0.462991 0.267815
C176  C     C_3   0.387822 0.184676 0.462954 -0.695277
H62   H     H_    0.374178 0.238022 0.458150 0.226514
H63   H     H_    0.350031 0.164754 0.477029 0.218505
H64   H     H_    0.384866 0.153716 0.445032 0.293486
O69   O     O_3   0.941882 0.391036 0.403554 -0.579364
C177  C     C_3   0.992524 0.342908 0.409853 -0.337182
H65   H     H_    0.029311 0.363783 0.424137 0.178825
H66   H     H_    0.020022 0.324601 0.392317 0.154844
H67   H     H_    0.967621 0.298199 0.418920 0.193443
O70   O     O_3   0.055239 0.389168 0.596461 -0.579796
C178  C     C_3   0.003053 0.342802 0.590098 -0.336809
H68   H     H_    0.967031 0.364967 0.575807 0.179455
H69   H     H_    0.974903 0.325353 0.607608 0.155733
H70   H     H_    0.026495 0.297324 0.581013 0.192833
O71   O     O_3   0.610251 0.948649 0.404085 -0.579507
C179  C     C_3   0.654315 0.002313 0.411002 -0.331847
H71   H     H_    0.630093 0.037080 0.425264 0.183224
H72   H     H_    0.671596 0.031553 0.393727 0.154030
H73   H     H_    0.700164 0.980308 0.420335 0.193239
O72   O     O_3   0.610371 0.051137 0.595908 -0.569792
C180  C     C_3   0.655794 0.997924 0.589765 -0.321525
H74   H     H_    0.632850 0.961759 0.575713 0.174080
H75   H     H_    0.672977 0.970121 0.607395 0.149302
H76   H     H_    0.701570 0.020214 0.580484 0.195453
O73   O     O_3   0.058450 0.607664 0.403799 -0.579354
C181  C     C_3   0.007791 0.655488 0.410403 -0.328956
H77   H     H_    0.971355 0.634162 0.424723 0.181507
H78   H     H_    0.979896 0.674118 0.393008 0.153441
H79   H     H_    0.032736 0.700064 0.419548 0.193594
O74   O     O_3   0.945831 0.609550 0.596096 -0.579737
C182  C     C_3   0.998150 0.655541 0.589504 -0.330192
H80   H     H_    0.033995 0.632847 0.575267 0.181469
H81   H     H_    0.026468 0.673353 0.606922 0.153950
H82   H     H_    0.974827 0.700864 0.580265 0.193638
O75   O     O_3   0.386755 0.051674 0.403408 -0.589405
C183  C     C_3   0.341861 0.998121 0.409647 -0.345757
H83   H     H_    0.364952 0.962581 0.423901 0.180811
H84   H     H_    0.325339 0.969704 0.392070 0.158054
H85   H     H_    0.295678 0.020158 0.418729 0.193532
O76   O     O_3   0.387845 0.946605 0.596516 -0.571041
C184  C     C_3   0.342046 0.999629 0.590535 -0.328598
H86   H     H_    0.364360 0.035705 0.576311 0.168942
H87   H     H_    0.325425 0.027588 0.608207 0.150718
H88   H     H_    0.296005 0.977115 0.581527 0.195333
O77   O     O_3   0.440854 0.891563 0.903544 -0.579492
C185  C     C_3   0.491143 0.843098 0.909878 -0.336895
H89   H     H_    0.527996 0.863729 0.924189 0.178990
H90   H     H_    0.518608 0.824603 0.892364 0.154868
H91   H     H_    0.465897 0.798558 0.918928 0.193198
O78   O     O_3   0.554094 0.888978 0.096382 -0.579528
C186  C     C_3   0.501562 0.843010 0.090013 -0.337915
H92   H     H_    0.465640 0.865497 0.075758 0.179231
H93   H     H_    0.473359 0.825673 0.107528 0.155525
H94   H     H_    0.524652 0.797415 0.080883 0.192964
O79   O     O_3   0.112706 0.448232 0.903518 -0.584423
C187  C     C_3   0.157649 0.501687 0.909828 -0.349462
H95   H     H_    0.134518 0.537222 0.924075 0.179385
H96   H     H_    0.174348 0.530129 0.892281 0.158802
H97   H     H_    0.203727 0.479540 0.918948 0.193284
O80   O     O_3   0.110624 0.556757 0.096569 -0.576468
C188  C     C_3   0.157910 0.505095 0.090531 -0.332515
H98   H     H_    0.136649 0.468522 0.076252 0.175952
H99   H     H_    0.175291 0.477461 0.108170 0.152474
H100  H     H_    0.203312 0.528982 0.081565 0.194853
O81   O     O_3   0.558834 0.107424 0.903790 -0.579082
C189  C     C_3   0.508475 0.155606 0.910349 -0.328477
H101  H     H_    0.471850 0.134564 0.924660 0.181252
H102  H     H_    0.480761 0.174374 0.892934 0.153241
H103  H     H_    0.533686 0.200039 0.919489 0.193979
O82   O     O_3   0.446120 0.110069 0.096157 -0.580029
C190  C     C_3   0.498713 0.155745 0.089563 -0.329732
H104  H     H_    0.534379 0.132859 0.075304 0.181720
H105  H     H_    0.527185 0.173333 0.106977 0.154263
H106  H     H_    0.475653 0.201236 0.080348 0.193421
O83   O     O_3   0.889434 0.551755 0.903997 -0.576955
C191  C     C_3   0.845211 0.498167 0.910853 -0.325196
H107  H     H_    0.869283 0.463280 0.925110 0.181800
H108  H     H_    0.827946 0.469037 0.893550 0.152511
H109  H     H_    0.799367 0.520239 0.920168 0.193019
O84   O     O_3   0.891239 0.445744 0.095922 -0.571939
C192  C     C_3   0.844379 0.497615 0.089681 -0.320454
H110  H     H_    0.866279 0.534111 0.075514 0.180510
H111  H     H_    0.826536 0.525276 0.107249 0.149315
H112  H     H_    0.799171 0.473943 0.080494 0.194817
N25   N     N_2   0.933384 0.393481 0.349418 -0.258574
H113  H     H_    0.936725 0.345934 0.357760 0.253916
C193  C     C_3   0.864195 0.410925 0.342500 -0.691493
H114  H     H_    0.832957 0.417967 0.360259 0.252281
H115  H     H_    0.841748 0.369259 0.330742 0.225313
H116  H     H_    0.862979 0.458343 0.330785 0.217066
N26   N     N_2   0.063735 0.391503 0.650570 -0.257728
H117  H     H_    0.058863 0.344054 0.642257 0.253575
C194  C     C_3   0.133469 0.406774 0.657432 -0.689380
H118  H     H_    0.164839 0.412708 0.639649 0.251578
H119  H     H_    0.154642 0.364487 0.669216 0.225362
H120  H     H_    0.136219 0.454205 0.669103 0.217291
N27   N     N_2   0.610086 0.940499 0.349982 -0.257339
H121  H     H_    0.657105 0.947315 0.358457 0.253027
C195  C     C_3   0.597591 0.870106 0.343295 -0.685562
H122  H     H_    0.592500 0.838896 0.361155 0.250934
H123  H     H_    0.640876 0.850308 0.331688 0.225638
H124  H     H_    0.550513 0.865337 0.331508 0.217379
N28   N     N_2   0.609344 0.060846 0.650056 -0.258176
H125  H     H_    0.656531 0.054928 0.641621 0.253151
C196  C     C_3   0.595489 0.130995 0.656738 -0.684848
H126  H     H_    0.589813 0.162089 0.638874 0.252622
H127  H     H_    0.638376 0.151613 0.668346 0.225508
H128  H     H_    0.548323 0.134898 0.668521 0.216765
N29   N     N_2   0.066215 0.606441 0.349628 -0.258474
H129  H     H_    0.062708 0.653826 0.358095 0.253482
C197  C     C_3   0.135457 0.589400 0.342640 -0.692464
H130  H     H_    0.166784 0.582225 0.360367 0.251404
H131  H     H_    0.157687 0.631337 0.330962 0.225509
H132  H     H_    0.136838 0.542163 0.330821 0.217137
N30   N     N_2   0.937274 0.608437 0.650219 -0.257922
H133  H     H_    0.942480 0.655714 0.641792 0.253215
C198  C     C_3   0.867379 0.593622 0.656987 -0.689334
H134  H     H_    0.836199 0.587575 0.639162 0.251076
H135  H     H_    0.846273 0.636192 0.668640 0.225444
H136  H     H_    0.864245 0.546382 0.668756 0.217497
N31   N     N_2   0.389761 0.061097 0.349376 -0.256644
H137  H     H_    0.342322 0.054830 0.357567 0.253761
C199  C     C_3   0.403313 0.131316 0.342723 -0.689976
H138  H     H_    0.408142 0.162517 0.360596 0.249545
H139  H     H_    0.360672 0.151581 0.330891 0.225850
H140  H     H_    0.450849 0.135497 0.331171 0.217784
N32   N     N_2   0.390456 0.937747 0.650640 -0.257258
H141  H     H_    0.343023 0.943305 0.642374 0.253201
C200  C     C_3   0.404768 0.867797 0.657483 -0.687899
H142  H     H_    0.410133 0.836354 0.639694 0.250424
H143  H     H_    0.362256 0.847247 0.669308 0.225794
H144  H     H_    0.452238 0.864337 0.669107 0.216949
N33   N     N_2   0.432669 0.893911 0.849392 -0.258713
H145  H     H_    0.435667 0.846366 0.857755 0.253873
C201  C     C_3   0.363629 0.911759 0.842409 -0.692266
H146  H     H_    0.332330 0.919040 0.860138 0.252276
H147  H     H_    0.340996 0.870199 0.830648 0.225269
H148  H     H_    0.362770 0.959150 0.830674 0.217112
N34   N     N_2   0.562870 0.891142 0.150481 -0.257743
H149  H     H_    0.557611 0.843739 0.142162 0.253502
C202  C     C_3   0.632756 0.905927 0.157270 -0.688396
H150  H     H_    0.664038 0.911661 0.139456 0.251618
H151  H     H_    0.653723 0.863487 0.169027 0.225290
H152  H     H_    0.635915 0.953330 0.168943 0.217421
N35   N     N_2   0.110066 0.438925 0.849474 -0.257290
H153  H     H_    0.157461 0.445146 0.857706 0.253898
C203  C     C_3   0.096486 0.368716 0.842812 -0.686906
H154  H     H_    0.091528 0.337523 0.860681 0.251273
H155  H     H_    0.139173 0.348410 0.831013 0.225657
H156  H     H_    0.049010 0.364576 0.831223 0.217351
N36   N     N_2   0.107868 0.565130 0.150725 -0.257883
H157  H     H_    0.155405 0.561010 0.142424 0.253638
C204  C     C_3   0.091650 0.634556 0.157727 -0.690737
H158  H     H_    0.085308 0.666087 0.140007 0.250866
H159  H     H_    0.133643 0.656115 0.169559 0.225688
H160  H     H_    0.044174 0.636533 0.169397 0.216875
N37   N     N_2   0.566753 0.106067 0.849619 -0.258717
H161  H     H_    0.563541 0.153482 0.858078 0.253688
C205  C     C_3   0.635892 0.088573 0.842646 -0.692102
H162  H     H_    0.667147 0.081203 0.860380 0.251778
H163  H     H_    0.658411 0.130361 0.830970 0.225598
H164  H     H_    0.636984 0.041325 0.830830 0.216959
N38   N     N_2   0.437686 0.108833 0.150276 -0.257623
H165  H     H_    0.443152 0.156104 0.141869 0.253179
C206  C     C_3   0.367719 0.094404 0.157058 -0.689356
H166  H     H_    0.336467 0.088599 0.139240 0.250786
H167  H     H_    0.346887 0.137057 0.168739 0.225535
H168  H     H_    0.364335 0.047143 0.168805 0.217475
N39   N     N_2   0.889979 0.559945 0.849894 -0.257088
H169  H     H_    0.842896 0.553302 0.858338 0.252825
C207  C     C_3   0.902731 0.630278 0.843185 -0.688318
H170  H     H_    0.907847 0.661523 0.861035 0.249469
H171  H     H_    0.859560 0.650182 0.831545 0.225813
H172  H     H_    0.949873 0.634860 0.831424 0.217708
N40   N     N_2   0.892258 0.436511 0.150094 -0.258673
H173  H     H_    0.844974 0.441119 0.141620 0.253530
C208  C     C_3   0.907901 0.366811 0.156883 -0.687276
H174  H     H_    0.914497 0.335710 0.139067 0.252841
H175  H     H_    0.865493 0.345188 0.168483 0.225687
H176  H     H_    0.955075 0.364248 0.168712 0.216521

loop_
_geom_bond_atom_site_label_1
_geom_bond_atom_site_label_2
_ccdc_geom_bond_type
C98   C121  S    
N30   H133  S    
C161  H3    S    
C5    C37   A    
C130  C146  T    
C100  C127  S    
C192  H110  S    
C167  H26   S    
C66   O78   S    
O41   Zn4   S    
C102  C125  S    
C4    C36   A    
N23   H57   S    
C169  H35   S    
C104  C123  S    
C194  H118  S    
C26   O62   S    
C200  H144  S    
C104  O36   A    
C191  H107  S    
C20   C40   A    
N38   C206  S    
C21   C33   A    
N12   H13   S    
C164  H16   S    
C84   O12   A    
C82   O6    A    
C196  H127  S    
O15   Zn6   S    
C117  N37   S    
O37   Zn8   S    
C129  C145  T    
N13   C165  S    
C2    C34   A    
C198  H135  S    
O2    Zn2   S    
O36   Zn14  S    
C203  H155  S    
C98   O40   A    
C24   N4    A    
C13   N21   S    
C90   O48   A    
C136  C152  T    
C205  H163  S    
C93   O25   A    
C65   C77   A    
C57   C105  A    
C1    C6    A    
C67   C79   A    
C3    C8    A    
C206  H167  S    
O7    Zn14  S    
C185  H90   S    
O3    Zn10  S    
C174  H54   S    
C91   O23   A    
C60   C76   A    
O51   Zn5   S    
O46   Zn4   S    
N28   C196  S    
C80   N3    S    
C206  H168  S    
C178  H68   S    
C208  H174  S    
C82   O10   A    
C20   O56   S    
C133  C149  T    
C127  C143  T    
C176  H64   S    
C128  C144  T    
C116  N36   S    
C29   O65   S    
C68   C116  A    
O13   Zn4   S    
C199  H139  S    
C31   N7    A    
C32   N8    A    
C35   C51   A    
O77   C185  S    
C192  H112  S    
C188  H100  S    
C92   C135  S    
N9    C161  S    
C32   O68   S    
C174  H56   S    
C77   N2    S    
C94   O26   A    
C65   C113  A    
C191  H109  S    
C144  C145  S    
N10   C162  S    
O40   Zn1   S    
C182  H80   S    
C99   C128  S    
C8    N16   S    
C138  C151  S    
C139  C150  S    
C9    C41   A    
C71   C119  A    
O48   Zn2   S    
C18   C38   A    
C12   C44   A    
C101  O33   A    
C180  H74   S    
C13   C45   A    
O18   Zn7   S    
O4    Zn9   S    
C95   O49   A    
C165  H19   S    
C63   C111  A    
C177  H65   S    
C195  H123  S    
C17   O53   S    
O78   C186  S    
C28   N8    A    
C173  H50   S    
N36   H157  S    
C91   O45   A    
C172  H46   S    
O71   C179  S    
C120  C160  A    
C7    C39   A    
C8    C40   A    
C113  C157  A    
O81   C189  S    
C188  H98   S    
C111  C155  A    
C74   N5    S    
C107  C155  A    
C183  H83   S    
C184  H87   S    
C105  C153  A    
C111  N31   S    
O69   C177  S    
C7    N15   S    
C69   C77   A    
O83   C191  S    
C190  H104  S    
C104  O42   A    
C207  H172  S    
C71   C79   A    
C181  H77   S    
C193  H115  S    
N25   H113  S    
N30   C198  S    
C202  H150  S    
C31   C43   A    
C99   O37   A    
O21   Zn16  S    
C167  H27   S    
N32   C200  S    
C87   O15   A    
N9    H1    S    
C163  H12   S    
N19   C171  S    
O79   C187  S    
C123  C139  T    
O4    Zn13  S    
C115  N35   S    
O72   C180  S    
C121  C137  T    
N21   C173  S    
O74   C182  S    
O39   Zn2   S    
C90   C129  S    
C91   C136  S    
C193  H114  S    
C125  C141  T    
C201  H146  S    
C63   O75   S    
C6    C38   A    
C131  C147  T    
O47   Zn1   S    
O50   Zn8   S    
C28   O64   S    
C36   C52   A    
C14   N22   S    
C2    N10   S    
C45   C53   A    
C81   C160  S    
N13   H17   S    
C168  H31   S    
O43   Zn6   S    
C4    C7    A    
C179  H71   S    
O14   Zn3   S    
C101  C126  S    
O17   Zn8   S    
C170  H39   S    
C85   O17   A    
C22   C34   A    
C62   O74   S    
C97   O29   A    
O80   C188  S    
C180  H76   S    
C173  H51   S    
C166  H23   S    
C87   O19   A    
O33   Zn15  S    
O9    Zn16  S    
C31   O67   S    
O29   Zn11  S    
C59   C107  A    
N39   C207  S    
C81   O5    A    
O44   Zn5   S    
C72   O84   S    
C208  H175  S    
C109  N29   S    
N34   H149  S    
C3    C35   A    
C172  H48   S    
C67   O79   S    
C72   C120  A    
N15   H25   S    
C15   N23   S    
C19   N3    A    
N11   C163  S    
C41   C53   A    
C189  H101  S    
C17   N1    A    
C183  H85   S    
C100  O32   A    
O5    Zn12  S    
C43   C55   A    
O84   C192  S    
C178  H69   S    
N24   C176  S    
C2    C5    A    
C207  H170  S    
C25   C45   A    
O19   Zn2   S    
C58   C74   A    
C197  H131  S    
C90   O22   A    
C182  H82   S    
C27   C47   A    
N40   C208  S    
N32   H141  S    
C28   C48   A    
C171  H44   S    
C85   O13   A    
C29   C41   A    
C142  C147  S    
C62   C74   A    
O1    Zn5   S    
C187  H95   S    
C64   O76   S    
C162  H8    S    
C205  H162  S    
C53   C54   A    
C22   O58   S    
O4    Zn4   S    
C83   O11   A    
C93   O51   A    
O42   Zn3   S    
C191  H108  S    
C81   O9    A    
C72   C80   A    
C57   O69   S    
C63   C75   A    
C70   C118  A    
C10   N18   S    
O22   Zn15  S    
C164  H15   S    
O25   Zn12  S    
O1    Zn12  S    
C197  H130  S    
C175  H60   S    
O4    Zn8   S    
C78   N1    S    
C49   C50   A    
C112  C156  A    
N14   H21   S    
C12   N20   S    
N27   C195  S    
N26   C194  S    
C140  C149  S    
C179  H73   S    
N10   H5    S    
N17   C169  S    
C55   C56   A    
C10   C42   A    
C39   C51   A    
C6    N14   S    
C79   N4    S    
C103  O41   A    
N20   C172  S    
C201  H148  S    
O75   C183  S    
C14   C46   A    
C101  O43   A    
C25   O61   S    
C119  N39   S    
C116  C160  A    
C202  H152  S    
C206  H166  S    
C22   N2    A    
C186  H94   S    
C198  H136  S    
N14   C166  S    
C33   C49   A    
C20   N4    A    
O27   Zn14  S    
C106  N26   S    
C94   C133  S    
C48   C56   A    
C29   N5    A    
N29   C197  S    
C114  C158  A    
O20   Zn1   S    
O35   Zn13  S    
O10   Zn15  S    
O38   Zn7   S    
O30   Zn12  S    
C106  C154  A    
C165  H18   S    
C137  C152  S    
C92   O46   A    
C75   N8    S    
C176  H63   S    
C109  C153  A    
C107  N27   S    
C60   C108  A    
O3    Zn7   S    
O12   Zn9   S    
C4    N12   S    
C174  H55   S    
C161  H4    S    
C171  H42   S    
O1    Zn1   S    
C192  H111  S    
C187  H97   S    
C103  C124  S    
N23   C175  S    
C1    N9    S    
O6    Zn11  S    
C169  H36   S    
C194  H119  S    
C66   C78   A    
N28   H125  S    
N40   H173  S    
C19   O55   S    
C122  C138  T    
N16   C168  S    
C143  C146  S    
O8    Zn13  S    
C177  H67   S    
C61   C73   A    
C198  H134  S    
O52   Zn6   S    
C126  C142  T    
C65   O77   S    
C89   C130  S    
N18   H37   S    
C115  C159  A    
C85   C156  S    
C86   C155  S    
N33   H145  S    
C37   C49   A    
C11   C16   A    
C44   C56   A    
C175  H58   S    
C58   O70   S    
C12   C15   A    
C163  H10   S    
C196  H128  S    
C46   C54   A    
C94   O52   A    
C87   C154  S    
C24   C36   A    
C30   O66   S    
C177  H66   S    
C71   O83   S    
N34   C202  S    
C86   O18   A    
C23   C35   A    
O26   Zn11  S    
O82   C190  S    
C203  H156  S    
O2    Zn11  S    
C200  H143  S    
N16   H29   S    
O11   Zn10  S    
C183  H84   S    
C184  H86   S    
C205  H164  S    
N33   C201  S    
C95   O27   A    
C66   C114  A    
C114  N34   S    
C124  C140  T    
C119  C159  A    
N17   H33   S    
C207  H171  S    
C16   N24   S    
C181  H78   S    
C186  H92   S    
C108  N28   S    
C185  H89   S    
C171  H43   S    
C68   O80   S    
C204  H159  S    
C25   N5    A    
C188  H99   S    
C102  O34   A    
C51   C52   A    
N22   H53   S    
C11   N19   S    
C42   C54   A    
C61   O73   S    
C82   C159  S    
C163  H11   S    
C102  O44   A    
N19   H41   S    
C162  H6    S    
C83   C158  S    
C135  C151  T    
N21   H49   S    
C18   O54   S    
C181  H79   S    
C88   O16   A    
C26   C46   A    
N20   H45   S    
C96   O28   A    
C199  H140  S    
C99   O31   A    
C86   O14   A    
O23   Zn10  S    
C89   O21   A    
C30   C42   A    
C84   O8    A    
O70   C178  S    
C92   O24   A    
C68   C80   A    
O34   Zn16  S    
N24   H61   S    
C3    N11   S    
C83   O7    A    
C70   C78   A    
C186  H93   S    
C168  H30   S    
C15   C47   A    
C9    C14   A    
C120  N40   S    
C61   C109  A    
O76   C184  S    
C16   C48   A    
C185  H91   S    
C179  H72   S    
C1    C33   A    
N38   H165  S    
N35   C203  S    
C170  H38   S    
O3    Zn14  S    
C113  N33   S    
C166  H22   S    
C96   C131  S    
O1    Zn16  S    
N39   H169  S    
C166  H24   S    
C180  H75   S    
C57   C73   A    
C134  C150  T    
C76   N7    S    
C204  H158  S    
C165  H20   S    
C67   C115  A    
C195  H124  S    
C141  C148  S    
N31   C199  S    
C169  H34   S    
C172  H47   S    
C108  C156  A    
O28   Zn13  S    
C197  H132  S    
C203  H154  S    
C11   C43   A    
N11   H9    S    
C189  H102  S    
C89   O47   A    
C184  H88   S    
C59   O71   S    
C193  H116  S    
C23   N3    A    
C182  H81   S    
C34   C50   A    
C21   N1    A    
C98   O30   A    
N25   C193  S    
C117  C157  A    
C132  C148  T    
C167  H28   S    
C5    N13   S    
C30   N6    A    
C189  H103  S    
C187  H96   S    
C93   C134  S    
O32   Zn10  S    
C162  H7    S    
C100  O38   A    
C200  H142  S    
C40   C52   A    
O24   Zn9   S    
C58   C106  A    
O49   Zn7   S    
C9    N17   S    
C97   C122  S    
C110  C154  A    
C199  H138  S    
C62   C110  A    
O16   Zn5   S    
C190  H105  S    
N31   H137  S    
C64   C76   A    
C190  H106  S    
N36   C204  S    
C17   C37   A    
C97   O39   A    
N22   C174  S    
C19   C39   A    
C112  N32   S    
C27   O63   S    
C175  H59   S    
C196  H126  S    
C118  N38   S    
N37   C205  S    
C168  H32   S    
C161  H2    S    
C59   C75   A    
C47   C55   A    
O73   C181  S    
N35   H153  S    
C170  H40   S    
N12   C164  S    
C26   N6    A    
O2    Zn6   S    
C73   N6    S    
O45   Zn3   S    
C10   C13   A    
C173  H52   S    
C23   O59   S    
C84   C157  S    
C201  H147  S    
C38   C50   A    
C18   N2    A    
C21   O57   S    
C60   O72   S    
C204  H160  S    
C88   C153  S    
N18   C170  S    
C195  H122  S    
C202  H151  S    
C105  N25   S    
C64   C112  A    
N27   H121  S    
C95   C132  S    
O3    Zn3   S    
C96   O50   A    
C69   C117  A    
N15   C167  S    
C194  H120  S    
O2    Zn15  S    
C24   O60   S    
N29   H129  S    
C208  H176  S    
C103  O35   A    
C118  C158  A    
O31   Zn9   S    
N26   H117  S    
C88   O20   A    
C178  H70   S    
C32   C44   A    
C176  H62   S    
N37   H161  S    
C69   O81   S    
C27   N7    A    
C110  N30   S    
C70   O82   S    
C164  H14   S    
