data_mof_unit_28670.cif
_audit_creation_date              2012-12-10T20:34:56-0500
_audit_creation_method            fapswitch 2.2
_symmetry_space_group_name_H-M    P1
_symmetry_Int_Tables_number       1
_space_group_crystal_system       triclinic
_cell_length_a                    10.661321
_cell_length_b                    10.68438
_cell_length_c                    9.932539
_cell_angle_alpha                 90.077365
_cell_angle_beta                  89.890294
_cell_angle_gamma                 89.937894
_cell_volume                      1131.40781955

loop_
_atom_site_label
_atom_site_type_symbol
_atom_type_description
_atom_site_fract_x
_atom_site_fract_y
_atom_site_fract_z
_atom_type_partial_charge
C1    C     C_R   0.506673 0.260458 0.499957 0.950601
C2    C     C_3   0.877968 0.488216 0.499763 0.127057
C3    C     C_3   0.931439 0.622232 0.494434 -0.409199
C4    C     C_3   0.924515 0.411629 0.376366 -0.435840
C5    C     C_R   0.537262 0.064716 0.620550 0.125190
C6    C     C_R   0.532521 0.129893 0.499860 -0.133048
C7    C     C_R   0.556343 0.067454 0.378660 -0.307249
C8    C     C_R   0.558269 0.937425 0.376070 0.206926
C9    C     C_R   0.533150 0.871826 0.497551 -0.161052
C10   C     C_R   0.535838 0.936874 0.619315 0.067425
C11   C     C_3   0.449063 0.931650 0.737564 -0.380990
C12   C     C_R   0.258547 0.487390 0.499876 0.929531
C13   C     C_3   0.452772 0.073004 0.740031 -0.506365
C14   C     C_R   0.400732 0.453686 0.071773 0.200334
C15   C     C_R   0.604005 0.532784 0.071507 -0.121015
C16   C     C_R   0.603970 0.533035 0.928009 -0.100942
C17   C     C_R   0.399461 0.455686 0.930055 0.136407
C18   C     C_3   0.266794 0.503810 0.932087 -0.254606
C19   C     C_3   0.270153 0.498539 0.083541 -0.538075
C20   C     C_R   0.506914 0.740087 0.499418 0.885216
C21   C     C_R   0.741873 0.495559 0.499895 0.827818
C22   C     C_3   0.068165 0.407596 0.624054 0.054216
C23   C     C_3   0.924592 0.422231 0.629296 -0.442124
C24   C     C_3   0.074471 0.617248 0.506241 -0.485274
C25   C     C_3   0.068237 0.420389 0.365184 -0.167601
C26   C     C_3   0.121216 0.479333 0.498618 0.039341
H1    H     H_    0.105083 0.454530 0.714004 0.165131
H2    H     H_    0.883447 0.447344 0.280803 0.193277
H3    H     H_    0.116660 0.674445 0.424098 0.181398
H4    H     H_    0.905725 0.667093 0.397434 0.174651
H5    H     H_    0.565792 0.118416 0.284905 0.175562
H6    H     H_    0.354855 0.895321 0.710076 0.228696
H7    H     H_    0.493831 0.888391 0.827189 0.231952
H8    H     H_    0.361161 0.116787 0.715814 0.227397
H9    H     H_    0.501299 0.111829 0.829802 0.205596
H10   H     H_    0.687414 0.561614 0.124796 0.146757
H11   H     H_    0.687112 0.562899 0.874520 0.143913
H12   H     H_    0.199974 0.434527 0.893965 0.132434
H13   H     H_    0.262313 0.590278 0.136225 0.215185
H14   H     H_    0.209207 0.423375 0.121063 0.210739
H15   H     H_    0.877357 0.329880 0.640698 0.168316
H16   H     H_    0.898992 0.478739 0.719677 0.190038
H17   H     H_    0.103527 0.660783 0.603141 0.202290
H18   H     H_    0.892139 0.680618 0.577396 0.178038
H19   H     H_    0.087138 0.488517 0.283448 0.133791
H20   H     H_    0.892969 0.312773 0.387616 0.171935
N1    N     N_R   0.499150 0.499140 0.142800 -0.098935
N2    N     N_R   0.499150 0.499180 0.857150 -0.084360
O1    O     O_R   0.500020 0.316790 0.614690 -0.624379
O2    O     O_R   0.500000 0.316760 0.385350 -0.605855
O3    O     O_R   0.314800 0.500000 0.614670 -0.623718
O4    O     O_R   0.314790 0.499960 0.385330 -0.620068
O5    O     O_R   0.500000 0.683240 0.614650 -0.575033
O6    O     O_R   0.499980 0.683210 0.385310 -0.585343
O7    O     O_R   0.685210 0.500040 0.614670 -0.641225
O8    O     O_R   0.685200 0.500000 0.385330 -0.643876
Zn1   Zn    Zn3+2 0.500010 0.500020 0.653130 0.975611
Zn2   Zn    Zn3+2 0.499990 0.499980 0.346870 0.964074
N3    N     N_2   0.575930 0.875581 0.250361 -0.269028
H21   H     H_    0.539945 0.923788 0.169132 0.222453
C27   C     C_3   0.703575 0.835393 0.226922 -0.747096
H22   H     H_    0.768098 0.917065 0.228159 0.234396
H23   H     H_    0.710442 0.789358 0.126959 0.227836
H24   H     H_    0.732341 0.767311 0.305148 0.238230
N4    N     N_2   0.103307 0.275459 0.624884 -0.271827
H25   H     H_    0.053213 0.221306 0.557953 0.252238
C28   C     C_3   0.112001 0.216169 0.755470 -0.800589
H26   H     H_    0.117115 0.112940 0.742829 0.237035
H27   H     H_    0.028823 0.238985 0.818517 0.250391
H28   H     H_    0.199012 0.246013 0.806731 0.245293
C29   C     C_2   0.243963 0.634332 0.881168 0.961711
O9    O     O_2   0.330574 0.698271 0.840278 -0.637102
O10   O     O_R   0.122092 0.682488 0.883411 -0.838711
H29   H     H_    0.117519 0.771088 0.847292 0.326356
C30   C     C_2   0.123876 0.295619 0.319718 0.858702
O11   O     O_2   0.077512 0.241326 0.223372 -0.646812
O12   O     O_R   0.229152 0.244218 0.382670 -0.804269
H30   H     H_    0.256413 0.161937 0.340844 0.340124

loop_
_geom_bond_atom_site_label_1
_geom_bond_atom_site_label_2
_ccdc_geom_bond_type
C3    H4    S    
O10   H29   S    
C17   N2    A    
C15   N1    A    
C16   N2    A    
C4    C25   S    
N2    Zn1   S    
C4    H20   S    
O12   H30   S    
C23   H16   S    
C19   H13   S    
C24   C26   S    
C13   H9    S    
C8    N3    S    
O6    Zn2   S    
C5    C6    A    
C15   C16   A    
O1    Zn1   S    
C18   C19   S    
C27   H23   S    
C24   H3    S    
C13   H8    S    
C12   O4    A    
C8    C9    A    
N4    C28   S    
O3    Zn1   S    
C1    O2    A    
C5    C13   S    
C16   H11   S    
N3    H21   S    
C14   C17   A    
C3    C24   S    
C4    H2    S    
C3    H18   S    
N3    C27   S    
C7    H5    S    
C28   H26   S    
O2    Zn2   S    
C7    C8    A    
C20   O6    A    
C10   C11   S    
C21   O7    A    
O5    Zn1   S    
C25   C26   S    
C1    C6    S    
C12   C26   S    
C25   C30   S    
C27   H24   S    
C2    C4    S    
C30   O11   D    
C22   N4    S    
C9    C20   S    
C11   H7    S    
C2    C21   S    
C17   C18   S    
C30   O12   S    
C6    C7    A    
O4    Zn2   S    
C11   H6    S    
C22   H1    S    
O7    Zn1   S    
C25   H19   S    
C15   H10   S    
C12   O3    A    
C29   O10   S    
C9    C10   A    
C18   C29   S    
C14   C19   S    
C20   O5    A    
C21   O8    A    
C14   N1    A    
C23   H15   S    
C28   H28   S    
C2    C3    S    
C18   H12   S    
C29   O9    D    
N1    Zn2   S    
C11   C13   S    
O8    Zn2   S    
C27   H22   S    
C19   H14   S    
C5    C10   A    
N4    H25   S    
C22   C26   S    
C2    C23   S    
C24   H17   S    
C22   C23   S    
C28   H27   S    
C1    O1    A    
