data_mof_unit_53931.cif
_audit_creation_date              2012-12-10T19:10:03-0500
_audit_creation_method            fapswitch 2.2
_symmetry_space_group_name_H-M    P1
_symmetry_Int_Tables_number       1
_space_group_crystal_system       triclinic
_cell_length_a                    10.781412
_cell_length_b                    10.832756
_cell_length_c                    9.535163
_cell_angle_alpha                 89.417708
_cell_angle_beta                  90.200968
_cell_angle_gamma                 90.066676
_cell_volume                      1113.5695549

loop_
_atom_site_label
_atom_site_type_symbol
_atom_type_description
_atom_site_fract_x
_atom_site_fract_y
_atom_site_fract_z
_atom_type_partial_charge
C1    C     C_R   0.496740 0.262651 0.500385 0.848309
C2    C     C_R   0.242343 0.841320 0.135341 -0.070837
C3    C     C_R   0.932829 0.577652 0.410486 -0.226520
C4    C     C_R   0.871683 0.494367 0.499591 -0.049615
C5    C     C_R   0.939461 0.411607 0.585495 0.042395
C6    C     C_R   0.067982 0.420108 0.587354 -0.216169
C7    C     C_R   0.128791 0.503897 0.499214 -0.072425
C8    C     C_R   0.061534 0.582337 0.408323 -0.001619
C9    C     C_R   0.890583 0.302365 0.809808 -0.223135
C10   C     C_R   0.844281 0.200847 0.884498 -0.102300
C11   C     C_R   0.791661 0.101855 0.812967 -0.177161
C12   C     C_R   0.262518 0.502906 0.499679 0.788667
C13   C     C_R   0.784735 0.104343 0.666615 -0.164819
C14   C     C_R   0.830040 0.206102 0.590819 0.269839
C15   C     C_R   0.881437 0.307418 0.662841 0.060245
C16   C     C_R   0.436396 0.061234 0.606390 0.091907
C17   C     C_R   0.488616 0.129958 0.497325 -0.147027
C18   C     C_R   0.528015 0.068567 0.376843 -0.211790
C19   C     C_R   0.534175 0.940554 0.374671 0.245979
C20   C     C_R   0.496919 0.871473 0.494562 -0.172684
C21   C     C_R   0.441567 0.934422 0.605297 0.052491
C22   C     C_3   0.460357 0.926449 0.760496 -0.412181
C23   C     C_R   0.502400 0.737840 0.498881 0.838908
C24   C     C_3   0.451991 0.066773 0.761711 -0.442243
C25   C     C_R   0.576067 0.578203 0.073060 0.349220
C26   C     C_R   0.418091 0.430044 0.074944 -0.077043
C27   C     C_R   0.418411 0.429644 0.925998 -0.083119
C28   C     C_R   0.574619 0.579772 0.925503 0.260194
C29   C     C_3   0.712469 0.585244 0.918523 -0.518428
C30   C     C_3   0.714580 0.579500 0.077094 -0.493301
C31   C     C_R   0.737643 0.496341 0.500187 0.827785
C32   C     C_R   0.231172 0.866594 0.278223 -0.087624
C33   C     C_R   0.172809 0.781831 0.367798 -0.149905
C34   C     C_R   0.123129 0.672205 0.314012 0.116599
C35   C     C_R   0.133085 0.647905 0.170145 -0.109831
C36   C     C_R   0.193487 0.731956 0.081341 -0.143209
Cu1   Cu    Cu3+1 0.499990 0.499980 0.640670 0.943766
Cu2   Cu    Cu3+1 0.500010 0.500020 0.359330 0.985573
H1    H     H_    0.288580 0.906622 0.066531 0.133723
H2    H     H_    0.756987 0.022671 0.870914 0.166003
H3    H     H_    0.745783 0.026118 0.612007 0.170265
H4    H     H_    0.562139 0.119981 0.286823 0.220333
H5    H     H_    0.381328 0.880311 0.814242 0.191999
H6    H     H_    0.553726 0.890883 0.789926 0.205868
H7    H     H_    0.538998 0.113138 0.794245 0.222035
H8    H     H_    0.353565 0.371492 0.131323 0.143326
H9    H     H_    0.267938 0.951793 0.319641 0.136175
H10   H     H_    0.753158 0.502344 0.870222 0.229055
H11   H     H_    0.745950 0.674779 0.874905 0.204296
H12   H     H_    0.754482 0.491753 0.118573 0.222849
H13   H     H_    0.753410 0.664189 0.124710 0.234751
H14   H     H_    0.165842 0.801708 0.478597 0.119909
H15   H     H_    0.095421 0.563461 0.127374 0.124147
H16   H     H_    0.202225 0.712438 0.970697 0.127333
H17   H     H_    0.880096 0.640496 0.344185 0.158553
H18   H     H_    0.121322 0.356593 0.652388 0.142108
H19   H     H_    0.934702 0.376752 0.866462 0.136727
N1    N     N_R   0.500790 0.500930 0.147930 -0.190417
N2    N     N_R   0.500790 0.500890 0.852020 -0.189575
O1    O     O_R   0.500000 0.319640 0.618810 -0.581250
O2    O     O_R   0.500010 0.319680 0.381230 -0.580238
O3    O     O_R   0.319640 0.499990 0.618790 -0.595102
O4    O     O_R   0.319650 0.500030 0.381210 -0.577826
O5    O     O_R   0.499990 0.680320 0.618770 -0.589795
O6    O     O_R   0.500000 0.680360 0.381190 -0.533776
O7    O     O_R   0.680350 0.499970 0.618790 -0.590760
O8    O     O_R   0.680360 0.500010 0.381210 -0.565416
Br1   Br    Br    0.831029 0.197578 0.389792 -0.575145
Br2   Br    Br    0.606747 0.872624 0.209120 -0.591563
H20   H     H_    0.366993 0.101077 0.814160 0.185710
H21   H     H_    0.354370 0.370530 0.870488 0.136918
H22   H     H_    0.850707 0.198224 0.997811 0.179892

loop_
_geom_bond_atom_site_label_1
_geom_bond_atom_site_label_2
_ccdc_geom_bond_type
C31   O7    A    
C30   H13   S    
Cu2   O6    S    
C16   C21   A    
C35   H15   S    
C29   C30   S    
C12   O3    A    
C9    C10   A    
C1    C17   S    
C19   C20   A    
C27   N2    A    
C20   C23   S    
Cu2   O2    S    
C32   C33   A    
C23   O6    A    
C13   H3    S    
C17   C18   A    
C30   H12   S    
C24   H20   S    
C7    C8    A    
C16   C24   S    
C8    C34   S    
C13   C14   A    
Cu1   O7    S    
C25   C28   A    
C31   O8    A    
C11   C13   A    
C26   C27   A    
Cu1   N2    S    
C5    C6    A    
C28   C29   S    
C28   N2    A    
Cu1   Cu2   S    
C33   C34   A    
C6    C7    A    
C9    H19   S    
C18   H4    S    
C3    C8    A    
C9    C15   A    
C11   H2    S    
C34   C35   A    
C32   H9    S    
C22   C24   S    
C7    C12   S    
C19   Br2   S    
C4    C31   S    
C5    C15   S    
C25   N1    A    
C24   H7    S    
C29   H10   S    
Cu2   N1    S    
C3    C4    A    
Cu1   O1    S    
C16   C17   A    
Cu1   O5    S    
C36   H16   S    
Cu2   O8    S    
C2    C32   A    
C18   C19   A    
C10   C11   A    
C1    O1    A    
C2    C36   A    
C25   C30   S    
Cu2   O4    S    
C12   O4    A    
Cu1   O3    S    
C14   C15   A    
C23   O5    A    
C29   H11   S    
C20   C21   A    
C21   C22   S    
C26   H8    S    
C3    H17   S    
C2    H1    S    
C26   N1    A    
C22   H5    S    
C22   H6    S    
C10   H22   S    
C14   Br1   S    
C27   H21   S    
C6    H18   S    
C4    C5    A    
C33   H14   S    
C35   C36   A    
C1    O2    A    
