data_mof_unit_5485.cif
_audit_creation_date              2012-12-10T16:57:12-0500
_audit_creation_method            fapswitch 2.2
_symmetry_space_group_name_H-M    P1
_symmetry_Int_Tables_number       1
_space_group_crystal_system       triclinic
_cell_length_a                    20.906287
_cell_length_b                    15.869623
_cell_length_c                    13.143722
_cell_angle_alpha                 90.36076
_cell_angle_beta                  90.881757
_cell_angle_gamma                 90.23365
_cell_volume                      4360.11613358

loop_
_atom_site_label
_atom_site_type_symbol
_atom_type_description
_atom_site_fract_x
_atom_site_fract_y
_atom_site_fract_z
_atom_type_partial_charge
C1    C     C_R   0.620509 0.839321 0.469486 0.491497
C2    C     C_2   0.993591 0.471218 0.946125 0.278831
C3    C     C_R   0.380244 0.160654 0.531802 0.518513
C4    C     C_R   0.379354 0.839552 0.529844 0.519073
C5    C     C_R   0.880244 0.660620 0.531746 0.518823
C6    C     C_R   0.879345 0.339561 0.529821 0.519621
C7    C     C_R   0.530127 0.997542 0.772291 0.516771
C8    C     C_R   0.030077 0.498051 0.772266 0.522577
C9    C     C_R   0.468600 0.999647 0.228615 0.479768
C10   C     C_R   0.969041 0.499648 0.228427 0.480752
C11   C     C_2   0.330436 0.773271 0.537712 0.260095
C12   C     C_R   0.620216 0.161770 0.472205 0.494451
C13   C     C_2   0.329668 0.223302 0.542746 0.266090
C14   C     C_2   0.830465 0.273224 0.537668 0.260724
C15   C     C_2   0.829820 0.723411 0.542758 0.266709
C16   C     C_2   0.268295 0.795082 0.538912 0.280459
C17   C     C_2   0.279587 0.221772 0.476605 0.277895
C18   C     C_2   0.768317 0.294981 0.539168 0.281545
C19   C     C_2   0.779354 0.721333 0.477384 0.277434
C20   C     C_2   0.665949 0.233611 0.473626 0.272576
C21   C     C_2   0.668001 0.772111 0.456070 0.276643
C22   C     C_2   0.165948 0.733603 0.473490 0.271759
C23   C     C_R   0.120531 0.339340 0.469433 0.491679
C24   C     C_2   0.168132 0.272280 0.455704 0.277399
C25   C     C_2   0.719413 0.227580 0.531496 -0.069798
C26   C     C_2   0.728446 0.784735 0.488816 -0.065738
C27   C     C_2   0.219369 0.727696 0.531467 -0.070430
C28   C     C_2   0.228606 0.285059 0.488203 -0.064573
C29   C     C_2   0.453457 0.997995 0.119619 0.282775
C30   C     C_2   0.954417 0.498088 0.119217 0.284798
C31   C     C_3   0.221273 0.900123 0.628893 -0.115382
C32   C     C_3   0.265774 0.085062 0.418734 -0.050114
C33   C     C_3   0.721293 0.399604 0.629841 -0.116107
C34   C     C_R   0.120214 0.661769 0.472190 0.493992
C35   C     C_3   0.765078 0.584204 0.421290 -0.050486
C36   C     C_3   0.598943 0.344917 0.437678 -0.083868
C37   C     C_3   0.611036 0.649951 0.467958 -0.126425
C38   C     C_3   0.099019 0.844883 0.437054 -0.083655
C39   C     C_3   0.111356 0.149950 0.467400 -0.126400
C40   C     C_3   0.395472 0.663253 0.586080 -0.002933
C41   C     C_3   0.411112 0.571100 0.563175 -0.245136
C42   C     C_3   0.464042 0.538309 0.633509 -0.508988
C43   C     C_3   0.385829 0.314011 0.651541 -0.013461
C44   C     C_3   0.419517 0.272601 0.742533 -0.245505
C45   C     C_2   0.502138 0.981366 0.057594 -0.080448
C46   C     C_3   0.482217 0.317588 0.769527 -0.490444
C47   C     C_3   0.895660 0.163060 0.585084 -0.002782
C48   C     C_3   0.911824 0.071319 0.560761 -0.244702
C49   C     C_3   0.965032 0.038378 0.630454 -0.509211
C50   C     C_3   0.887151 0.814805 0.649164 -0.012251
C51   C     C_3   0.921725 0.773246 0.739266 -0.245249
C52   C     C_3   0.984991 0.817635 0.764148 -0.490131
C53   C     C_3   0.423532 0.860977 0.925923 0.025998
C54   C     C_3   0.456720 0.805661 0.846561 -0.283756
C55   C     C_3   0.444052 0.712388 0.865272 -0.498351
C56   C     C_2   0.002766 0.478781 0.057514 -0.079218
C57   C     C_3   0.924293 0.359306 0.925482 0.023355
C58   C     C_3   0.957529 0.304512 0.845674 -0.281983
C59   C     C_3   0.945105 0.211090 0.863752 -0.496270
C60   C     C_3   0.644863 0.941859 0.903478 0.003334
C61   C     C_3   0.648416 0.882031 0.994353 -0.289525
C62   C     C_3   0.697973 0.813113 0.977919 -0.461785
C63   C     C_3   0.141054 0.441993 0.918947 -0.007770
C64   C     C_3   0.207663 0.465555 0.959553 -0.245738
C65   C     C_3   0.253210 0.390730 0.954752 -0.477525
C66   C     C_3   0.342560 0.003240 0.148436 0.023305
C67   C     C_2   0.541889 0.990788 0.883263 0.259291
C68   C     C_3   0.326639 0.909022 0.158081 -0.299672
C69   C     C_3   0.276796 0.893664 0.239630 -0.434634
C70   C     C_3   0.843557 0.507572 0.145815 0.024149
C71   C     C_3   0.825904 0.413708 0.153052 -0.297609
C72   C     C_3   0.774717 0.398766 0.232578 -0.437856
C73   C     C_2   0.041659 0.492421 0.883089 0.251904
C74   C     C_2   0.493190 0.972429 0.946261 0.283133
H1    H     H_    0.729268 0.170273 0.573726 0.112350
H2    H     H_    0.310663 0.048025 0.418198 0.118382
H3    H     H_    0.731408 0.436623 0.215018 0.152785
H4    H     H_    0.242498 0.078126 0.494018 0.120829
H5    H     H_    0.233038 0.056842 0.360588 0.155786
H6    H     H_    0.754550 0.389451 0.695575 0.125731
H7    H     H_    0.676327 0.363209 0.640161 0.101524
H8    H     H_    0.708557 0.467374 0.628995 0.129283
H9    H     H_    0.809833 0.546897 0.420134 0.120413
H10   H     H_    0.742447 0.577925 0.497169 0.120035
H11   H     H_    0.731747 0.555789 0.364148 0.156667
H12   H     H_    0.585797 0.338674 0.519215 0.072083
H13   H     H_    0.740611 0.843005 0.528713 0.118772
H14   H     H_    0.559422 0.321356 0.387717 0.154245
H15   H     H_    0.604556 0.413221 0.422522 0.126827
H16   H     H_    0.563000 0.678860 0.475326 0.136110
H17   H     H_    0.633129 0.639959 0.544603 0.081271
H18   H     H_    0.604112 0.586972 0.432287 0.128475
H19   H     H_    0.085829 0.838844 0.518592 0.072156
H20   H     H_    0.059502 0.821262 0.387126 0.154493
H21   H     H_    0.104689 0.913144 0.421681 0.127053
H22   H     H_    0.063271 0.178707 0.474820 0.136288
H23   H     H_    0.133479 0.139937 0.544020 0.081728
H24   H     H_    0.229170 0.670500 0.573947 0.112537
H25   H     H_    0.104541 0.086989 0.431631 0.128931
H26   H     H_    0.379267 0.668691 0.666157 0.117635
H27   H     H_    0.439905 0.701068 0.576390 0.132867
H28   H     H_    0.367486 0.531761 0.572449 0.171353
H29   H     H_    0.426838 0.565237 0.483030 0.176784
H30   H     H_    0.507707 0.577991 0.627608 0.133584
H31   H     H_    0.476261 0.472762 0.611350 0.132813
H32   H     H_    0.447761 0.538325 0.713529 0.145223
H33   H     H_    0.375134 0.380390 0.672297 0.151926
H34   H     H_    0.418373 0.317146 0.585046 0.112253
H35   H     H_    0.240738 0.343293 0.528211 0.117750
H36   H     H_    0.387622 0.274579 0.809399 0.183319
H37   H     H_    0.429990 0.205654 0.724829 0.188258
H38   H     H_    0.515071 0.315798 0.703897 0.132227
H39   H     H_    0.505727 0.285681 0.834996 0.164244
H40   H     H_    0.472994 0.384189 0.791009 0.145300
H41   H     H_    0.879398 0.167499 0.665207 0.118064
H42   H     H_    0.939909 0.201375 0.576057 0.132572
H43   H     H_    0.868445 0.031422 0.569553 0.171545
H44   H     H_    0.927501 0.066455 0.480500 0.177593
H45   H     H_    0.008462 0.078554 0.624985 0.133618
H46   H     H_    0.549903 0.974214 0.090103 0.084509
H47   H     H_    0.977598 0.973177 0.607327 0.132680
H48   H     H_    0.948858 0.037469 0.710519 0.145723
H49   H     H_    0.876935 0.881257 0.670190 0.152636
H50   H     H_    0.918914 0.817751 0.581704 0.112925
H51   H     H_    0.890692 0.775678 0.807130 0.184009
H52   H     H_    0.931626 0.706159 0.721542 0.187150
H53   H     H_    0.016993 0.815377 0.697475 0.131457
H54   H     H_    0.009129 0.785605 0.828958 0.164704
H55   H     H_    0.976437 0.884367 0.785754 0.145984
H56   H     H_    0.371202 0.849126 0.920081 0.153845
H57   H     H_    0.050269 0.468256 0.089854 0.080371
H58   H     H_    0.438438 0.842261 0.004377 0.115057
H59   H     H_    0.438955 0.822283 0.769146 0.174334
H60   H     H_    0.509213 0.816709 0.850086 0.130186
H61   H     H_    0.461921 0.694308 0.942078 0.156285
H62   H     H_    0.469464 0.674213 0.807690 0.138842
H63   H     H_    0.392008 0.698546 0.859061 0.140049
H64   H     H_    0.871994 0.347202 0.919715 0.152793
H65   H     H_    0.939332 0.340416 0.003804 0.115165
H66   H     H_    0.939631 0.321421 0.768423 0.174166
H67   H     H_    0.009991 0.315860 0.849128 0.127540
H68   H     H_    0.254493 0.890226 0.694735 0.125959
H69   H     H_    0.963123 0.192693 0.940359 0.157660
H70   H     H_    0.970505 0.173302 0.805785 0.138520
H71   H     H_    0.893085 0.197075 0.857642 0.141698
H72   H     H_    0.693074 0.969543 0.891832 0.168723
H73   H     H_    0.632891 0.904934 0.833214 0.134170
H74   H     H_    0.661443 0.918262 0.064344 0.182479
H75   H     H_    0.600955 0.851878 0.005134 0.144931
H76   H     H_    0.685283 0.775041 0.909257 0.151364
H77   H     H_    0.699334 0.770851 0.044926 0.170262
H78   H     H_    0.746228 0.841307 0.968502 0.157007
H79   H     H_    0.176291 0.863802 0.639381 0.101685
H80   H     H_    0.145699 0.418001 0.839575 0.156080
H81   H     H_    0.121199 0.390889 0.967141 0.109443
H82   H     H_    0.227351 0.517906 0.913570 0.177749
H83   H     H_    0.204179 0.487452 0.039779 0.175974
H84   H     H_    0.234912 0.337878 0.001232 0.162673
H85   H     H_    0.300982 0.409852 0.985153 0.150647
H86   H     H_    0.258572 0.369064 0.874791 0.163048
H87   H     H_    0.299429 0.035283 0.117327 0.164405
H88   H     H_    0.351837 0.033440 0.223834 0.140353
H89   H     H_    0.307944 0.884970 0.083770 0.158633
H90   H     H_    0.208564 0.967898 0.627601 0.129933
H91   H     H_    0.370291 0.872748 0.178029 0.176855
H92   H     H_    0.296112 0.912740 0.315548 0.169894
H93   H     H_    0.264576 0.825549 0.241899 0.187672
H94   H     H_    0.232545 0.929762 0.222590 0.154796
H95   H     H_    0.801302 0.541371 0.114407 0.163429
H96   H     H_    0.852630 0.536334 0.222078 0.141945
H97   H     H_    0.807793 0.391193 0.077708 0.160872
H98   H     H_    0.868667 0.375911 0.173780 0.175104
H99   H     H_    0.793427 0.415975 0.309498 0.169172
H100  H     H_    0.761141 0.331049 0.232820 0.187494
O1    O     O_3   0.500000 0.000000 0.500000 -0.439643
O2    O     O_R   0.880760 0.402800 0.590320 -0.544491
O3    O     O_R   0.577210 0.000000 0.711160 -0.549654
O4    O     O_R   0.077210 0.500000 0.711160 -0.545990
O5    O     O_R   0.475030 0.069050 0.275760 -0.527141
O6    O     O_R   0.475030 0.930950 0.275760 -0.566140
O7    O     O_R   0.975030 0.569050 0.275760 -0.526768
O8    O     O_R   0.975030 0.430950 0.275760 -0.565189
O9    O     O_R   0.632300 0.097230 0.527310 -0.563275
O10   O     O_R   0.632300 0.902770 0.527310 -0.571345
O11   O     O_R   0.132300 0.597230 0.527310 -0.563199
O12   O     O_3   0.000000 0.500000 0.500000 -0.440476
O13   O     O_R   0.132300 0.402770 0.527310 -0.571174
O14   O     O_R   0.419940 0.833680 0.459580 -0.539361
O15   O     O_R   0.419940 0.166320 0.459580 -0.550491
O16   O     O_R   0.919940 0.333680 0.459580 -0.538502
O17   O     O_R   0.919940 0.666320 0.459580 -0.550709
O18   O     O_R   0.472710 0.000000 0.737340 -0.510301
O19   O     O_R   0.972710 0.500000 0.737340 -0.510563
O20   O     O_3   0.250816 0.879355 0.536418 -0.561700
O21   O     O_3   0.278686 0.169470 0.391118 -0.550317
O22   O     O_3   0.750793 0.379249 0.537198 -0.561217
O23   O     O_R   0.566980 0.833700 0.422750 -0.522394
O24   O     O_3   0.778041 0.668325 0.392530 -0.551902
O25   O     O_3   0.656751 0.304276 0.413175 -0.540491
O26   O     O_3   0.650877 0.698444 0.405044 -0.527398
O27   O     O_3   0.156807 0.804110 0.412751 -0.541546
O28   O     O_3   0.151102 0.198635 0.404553 -0.526863
O29   O     O_3   0.346354 0.689586 0.518626 -0.601715
O30   O     O_3   0.326671 0.273221 0.630150 -0.621848
O31   O     O_3   0.846388 0.189621 0.518045 -0.600917
O32   O     O_3   0.827622 0.774417 0.629344 -0.621133
O33   O     O_3   0.433901 0.947672 0.906694 -0.510116
O34   O     O_R   0.566980 0.166300 0.422750 -0.536047
O35   O     O_3   0.934386 0.446076 0.906551 -0.510613
O36   O     O_3   0.602299 0.009242 0.923183 -0.602368
O37   O     O_3   0.101535 0.513983 0.922177 -0.597415
O38   O     O_3   0.392854 0.016540 0.079061 -0.533664
O39   O     O_3   0.894767 0.520419 0.078002 -0.533331
O40   O     O_R   0.066980 0.333700 0.422750 -0.522033
O41   O     O_R   0.066980 0.666300 0.422750 -0.536306
O42   O     O_R   0.380760 0.097200 0.590320 -0.544463
O43   O     O_R   0.380760 0.902800 0.590320 -0.544461
O44   O     O_R   0.880760 0.597200 0.590320 -0.545461
Zn1   Zn    Zn3+2 0.434690 0.000000 0.602700 0.937442
Zn2   Zn    Zn3+2 0.934690 0.500000 0.602700 0.937489
Zn3   Zn    Zn3+2 0.584000 0.000000 0.565300 0.912105
Zn4   Zn    Zn3+2 0.084000 0.500000 0.565300 0.913821
Zn5   Zn    Zn3+2 0.490640 0.098690 0.416020 0.938589
Zn6   Zn    Zn3+2 0.490640 0.901310 0.416020 0.926826
Zn7   Zn    Zn3+2 0.990640 0.598690 0.416020 0.938371
Zn8   Zn    Zn3+2 0.990640 0.401310 0.416020 0.928963

loop_
_geom_bond_atom_site_label_1
_geom_bond_atom_site_label_2
_ccdc_geom_bond_type
C36   H15   S    
O19   Zn2   S    
C66   C68   S    
C21   C26   D    
C27   H24   S    
C1    C21   S    
C46   H38   S    
C41   C42   S    
C14   C18   D    
O42   Zn1   S    
C65   H85   S    
O23   Zn6   S    
C52   H54   S    
C53   C54   S    
C36   H14   S    
O34   Zn5   S    
C47   H41   S    
C57   H65   S    
C62   H78   S    
C37   H16   S    
C52   H55   S    
C12   O34   A    
C61   H74   S    
C34   O41   A    
C3    O15   A    
C37   H18   S    
C39   H23   S    
C12   O9    A    
C20   C25   D    
C39   O28   S    
C55   H62   S    
C54   H60   S    
C41   H28   S    
C7    O3    A    
C67   O36   S    
C26   H13   S    
C37   O26   S    
C19   C26   S    
O3    Zn3   S    
C69   H92   S    
C53   O33   S    
C40   H27   S    
C31   H90   S    
C39   H25   S    
C52   H53   S    
C47   C48   S    
C33   O22   S    
C68   C69   S    
C19   O24   S    
C38   O27   S    
C38   H21   S    
O1    Zn6   S    
C36   O25   S    
C70   C71   S    
C60   H73   S    
C72   H100  S    
C36   H12   S    
C33   H8    S    
O4    Zn4   S    
C9    O5    A    
C9    C29   S    
C68   H91   S    
C16   C27   S    
O12   Zn4   S    
C59   H69   S    
O17   Zn7   S    
C70   O39   S    
C6    O16   A    
O10   Zn3   S    
C18   C25   S    
C60   H72   S    
C65   H86   S    
C31   H79   S    
C1    O10   A    
C44   C46   S    
C74   O33   S    
C33   H7    S    
C47   H42   S    
C22   C34   S    
C57   O35   S    
C50   O32   S    
C62   H77   S    
C37   H17   S    
C18   O22   S    
C51   C52   S    
C51   H51   S    
C73   O37   S    
C50   H50   S    
C5    O17   A    
C38   H20   S    
C67   C74   D    
C47   O31   S    
O8    Zn8   S    
C11   O29   S    
O7    Zn7   S    
C58   C59   S    
C54   H59   S    
O12   Zn2   S    
C22   O27   S    
C41   H29   S    
C66   H87   S    
O5    Zn5   S    
C60   C61   S    
C25   H1    S    
C3    C13   S    
C64   H83   S    
C34   O11   A    
C15   C19   D    
C43   C44   S    
C69   H93   S    
C20   O25   S    
C32   H2    S    
C72   H3    S    
C6    C14   S    
C11   C16   D    
C10   C30   S    
O44   Zn2   S    
C5    O44   A    
O12   Zn8   S    
C40   O29   S    
C23   C24   S    
C24   O28   S    
C12   C20   S    
C50   C51   S    
O1    Zn3   S    
C8    O19   A    
C53   H58   S    
C43   H33   S    
C72   H99   S    
C4    C11   S    
C42   H32   S    
C2    C73   D    
C59   H71   S    
C45   H46   S    
C48   C49   S    
C32   H4    S    
C32   O21   S    
C59   H70   S    
O11   Zn4   S    
C10   O8    A    
C71   H97   S    
C7    O18   A    
C17   O21   S    
C66   H88   S    
C21   O26   S    
C66   O38   S    
O14   Zn6   S    
C29   O38   S    
C68   H89   S    
C58   H66   S    
C54   C55   S    
C40   C41   S    
C2    O35   S    
C35   H9    S    
C62   H76   S    
C46   H39   S    
O16   Zn8   S    
C17   C28   S    
O1    Zn1   S    
C70   H95   S    
C1    O23   A    
C50   H49   S    
C24   C28   D    
C63   H80   S    
C63   O37   S    
C65   H84   S    
C51   H52   S    
C42   H30   S    
C40   H26   S    
C31   O20   S    
C48   H44   S    
C35   H10   S    
O15   Zn5   S    
C33   H6    S    
C48   H43   S    
O13   Zn4   S    
C28   H35   S    
O43   Zn1   S    
C64   H82   S    
C55   H63   S    
C13   O30   S    
C13   C17   D    
C22   C27   D    
C9    O6    A    
C46   H40   S    
C4    O14   A    
C31   H68   S    
C3    O42   A    
C69   H94   S    
C63   H81   S    
C71   C72   S    
C2    C56   S    
C64   C65   S    
C30   O39   S    
C23   O13   A    
C35   H11   S    
C58   H67   S    
C57   C58   S    
C49   H45   S    
O12   Zn7   S    
C30   C56   D    
C55   H61   S    
C49   H48   S    
C38   H19   S    
C8    C73   S    
C6    O2    A    
C60   O36   S    
C57   H64   S    
O6    Zn6   S    
C43   H34   S    
C49   H47   S    
C70   H96   S    
C61   C62   S    
O40   Zn8   S    
C42   H31   S    
C39   H22   S    
C5    C15   S    
C15   O32   S    
C16   O20   S    
C7    C67   S    
C63   C64   S    
C44   H37   S    
C8    O4    A    
O9    Zn3   S    
C4    O43   A    
O2    Zn2   S    
C14   O31   S    
C29   C45   D    
C43   O30   S    
C10   O7    A    
O1    Zn5   S    
C71   H98   S    
C45   C74   S    
C53   H56   S    
O18   Zn1   S    
O41   Zn7   S    
C61   H75   S    
C56   H57   S    
C35   O24   S    
C32   H5    S    
C23   O40   A    
C44   H36   S    
