data_mof_unit_39308.cif
_audit_creation_date              2012-12-10T16:32:42-0500
_audit_creation_method            fapswitch 2.2
_symmetry_space_group_name_H-M    P1
_symmetry_Int_Tables_number       1
_space_group_crystal_system       triclinic
_cell_length_a                    16.952644
_cell_length_b                    17.045956
_cell_length_c                    16.91037
_cell_angle_alpha                 66.420329
_cell_angle_beta                  65.675813
_cell_angle_gamma                 65.898547
_cell_volume                      3903.62840211

loop_
_atom_site_label
_atom_site_type_symbol
_atom_type_description
_atom_site_fract_x
_atom_site_fract_y
_atom_site_fract_z
_atom_type_partial_charge
Br1   Br    Br    0.711748 0.143999 0.707920 -0.422521
Br2   Br    Br    0.233097 0.081020 0.243209 -0.374316
Br3   Br    Br    0.917502 0.776654 0.772796 -0.435194
Br4   Br    Br    0.032636 0.219950 0.216863 -0.336883
Br5   Br    Br    0.708807 0.716189 0.141832 -0.419708
Br6   Br    Br    0.226414 0.227396 0.053586 -0.338448
C1    C     C_R   0.600828 0.996075 0.607549 0.158680
C2    C     C_R   0.821026 0.562635 0.037327 0.933967
C3    C     C_R   0.433381 0.973465 0.177694 0.968985
C4    C     C_R   0.562254 0.037223 0.821157 0.922370
C5    C     C_R   0.567435 0.822736 0.026677 0.952479
C6    C     C_R   0.435617 0.177572 0.967012 0.934211
C7    C     C_R   0.019030 0.569170 0.824733 0.961331
C8    C     C_R   0.972175 0.432969 0.177454 0.923517
C9    C     C_R   0.822552 0.026524 0.567582 0.977470
C10   C     C_R   0.178415 0.963059 0.437266 0.890717
C11   C     C_R   0.559030 0.964023 0.565813 0.113802
C12   C     C_R   0.417917 0.926807 0.422319 0.154880
C13   C     C_R   0.468848 0.924910 0.480196 0.113428
C14   C     C_R   0.053946 0.537063 0.528085 0.115677
C15   C     C_R   0.024335 0.442273 0.441005 0.113663
C16   C     C_R   0.562025 0.555376 0.974975 0.120063
C17   C     C_R   0.473808 0.462453 0.943950 0.118682
C18   C     C_R   0.597024 0.960589 0.474143 -0.109103
C19   C     C_R   0.425610 0.939227 0.568116 -0.077241
C20   C     C_R   0.064020 0.443704 0.563140 -0.118243
C21   C     C_R   0.043816 0.525855 0.392700 -0.086499
C22   C     C_R   0.470305 0.592887 0.973118 -0.098829
C23   C     C_R   0.051762 0.588452 0.584887 0.160098
C24   C     C_R   0.560485 0.419638 0.959336 -0.092172
C25   C     C_R   0.562655 0.918273 0.443990 -0.126971
C26   C     C_R   0.478599 0.937294 0.615961 -0.074068
C27   C     C_R   0.439065 0.556141 0.934064 -0.105846
C28   C     C_R   0.610428 0.473059 0.951757 -0.094940
C29   C     C_R   0.024806 0.406875 0.532692 -0.117836
C30   C     C_R   0.036923 0.579566 0.442384 -0.078819
C31   C     C_R   0.550098 0.031941 0.681911 -0.151848
C32   C     C_R   0.453139 0.947733 0.326637 -0.146734
C33   C     C_R   0.066885 0.673111 0.547759 -0.178488
C34   C     C_R   0.007067 0.392229 0.395996 0.165377
C35   C     C_R   0.025970 0.298571 0.425434 -0.142934
C36   C     C_R   0.680209 0.550395 0.036581 -0.157443
C37   C     C_R   0.321617 0.445532 0.966905 -0.142890
C38   C     C_R   0.330359 0.915433 0.458632 -0.171629
C39   C     C_R   0.693685 0.988112 0.576307 -0.151358
C40   C     C_R   0.454459 0.325994 0.930874 -0.163678
C41   C     C_R   0.575138 0.691795 0.992298 -0.140402
C42   C     C_R   0.972783 0.436851 0.321435 -0.164828
C43   C     C_R   0.029377 0.555253 0.679780 -0.144999
C44   C     C_R   0.593331 0.052925 0.723714 -0.135707
C45   C     C_R   0.605430 0.599237 0.002504 0.155790
C46   C     C_R   0.398868 0.964701 0.273491 -0.152747
C47   C     C_R   0.035745 0.729517 0.603559 -0.114984
C48   C     C_R   0.010421 0.254130 0.381376 -0.149966
C49   C     C_R   0.723318 0.594653 0.054062 -0.136519
C50   C     C_R   0.269425 0.394168 0.975713 -0.152588
C51   C     C_R   0.274288 0.949811 0.402300 -0.118773
C52   C     C_R   0.728830 0.030038 0.606135 -0.126262
C53   C     C_R   0.398521 0.271188 0.958599 -0.132237
C54   C     C_R   0.605835 0.729033 0.031399 -0.128726
C55   C     C_R   0.978732 0.388348 0.267414 -0.140024
C56   C     C_R   0.416843 0.411368 0.945718 0.157201
C57   C     C_R   0.017903 0.607603 0.732334 -0.143085
C58   C     C_R   0.675823 0.068549 0.676425 0.211921
C59   C     C_R   0.307991 0.983401 0.311144 0.208945
C60   C     C_R   0.001925 0.698205 0.696253 0.207392
C61   C     C_R   0.003099 0.295112 0.295211 0.251935
C62   C     C_R   0.676804 0.677785 0.068341 0.219228
C63   C     C_R   0.305743 0.304226 0.987294 0.220585
C64   C     C_2   0.451671 0.902088 0.716274 0.352480
C65   C     C_2   0.627198 0.859338 0.384622 0.399542
C66   C     C_2   0.004022 0.678053 0.406595 0.353652
C67   C     C_R   0.998900 0.166385 0.425529 0.972083
C68   C     C_2   0.973438 0.343234 0.601479 0.391037
C69   C     C_2   0.710671 0.445318 0.912740 0.378834
C70   C     C_2   0.379714 0.617667 0.875555 0.376092
C71   C     C_2   0.326202 0.965788 0.608370 0.345224
C72   C     C_2   0.661403 0.011096 0.404864 0.391477
C73   C     C_2   0.595774 0.321328 0.994526 0.367822
C74   C     C_2   0.402002 0.659341 0.022562 0.382718
C75   C     C_2   0.076118 0.556095 0.292261 0.375931
C76   C     C_2   0.123441 0.382054 0.621526 0.383178
C77   C     C_R   0.030240 0.822477 0.565581 0.908018
C78   C     C_R   0.176252 0.432003 0.977422 0.959470
H1    H     H_    0.478795 0.037861 0.711970 0.165738
H2    H     H_    0.526219 0.735098 0.955853 0.178493
H3    H     H_    0.948369 0.509128 0.300743 0.162606
H4    H     H_    0.019436 0.489827 0.713999 0.171600
H5    H     H_    0.381355 0.908613 0.755545 0.047116
H6    H     H_    0.695515 0.863720 0.348140 0.066912
H7    H     H_    0.037039 0.712133 0.338567 0.054931
H8    H     H_    0.990434 0.302495 0.663687 0.052770
H9    H     H_    0.748959 0.375537 0.919345 0.054037
H10   H     H_    0.343191 0.685753 0.879141 0.048661
H11   H     H_    0.294462 0.926450 0.673864 0.052432
H12   H     H_    0.520317 0.954922 0.292120 0.173527
H13   H     H_    0.710566 0.987484 0.347408 0.055733
H14   H     H_    0.664734 0.285533 0.964494 0.059495
H15   H     H_    0.345195 0.707635 0.998860 0.047868
H16   H     H_    0.056708 0.626214 0.255832 0.052769
H17   H     H_    0.120755 0.313905 0.656869 0.063798
H18   H     H_    0.096496 0.698143 0.475925 0.153001
H19   H     H_    0.051108 0.259346 0.483064 0.166548
H20   H     H_    0.709335 0.479400 0.044195 0.165620
H21   H     H_    0.286935 0.510970 0.977857 0.172503
H22   H     H_    0.302747 0.886470 0.529930 0.153862
H23   H     H_    0.738857 0.950929 0.527532 0.166593
H24   H     H_    0.526659 0.299239 0.903509 0.165066
O1    O     O_R   0.982940 0.138950 0.510160 -0.609403
O2    O     O_R   0.982940 0.510160 0.138950 -0.624038
O3    O     O_R   0.861050 0.017060 0.489840 -0.624023
O4    O     O_R   0.138950 0.982940 0.510160 -0.627633
O5    O     O_R   0.867700 0.025880 0.612340 -0.568505
O6    O     O_R   0.132300 0.974120 0.387660 -0.597754
O7    O     O_R   0.025880 0.612340 0.867700 -0.589776
O8    O     O_R   0.974120 0.387660 0.132300 -0.583568
O9    O     O_R   0.612340 0.867700 0.025880 -0.582812
O10   O     O_R   0.387660 0.132300 0.974120 -0.586532
O11   O     O_R   0.387660 0.974120 0.132300 -0.579007
O12   O     O_R   0.017060 0.861050 0.489840 -0.627513
O13   O     O_R   0.612340 0.025880 0.867700 -0.587208
O14   O     O_R   0.132300 0.387660 0.974120 -0.574254
O15   O     O_R   0.867700 0.612340 0.025880 -0.576709
O16   O     O_R   0.974120 0.132300 0.387660 -0.572953
O17   O     O_R   0.025880 0.867700 0.612340 -0.602090
O18   O     O_2   0.508948 0.861411 0.756081 -0.554950
O19   O     O_2   0.606328 0.800997 0.380034 -0.508519
O20   O     O_2   0.937355 0.721807 0.452645 -0.533476
O21   O     O_2   0.907160 0.340046 0.592222 -0.510212
O22   O     O_2   0.751514 0.501316 0.868512 -0.533342
O23   O     O_R   0.138950 0.510160 0.982940 -0.637441
O24   O     O_2   0.375352 0.594549 0.818161 -0.536416
O25   O     O_2   0.279030 0.033964 0.569160 -0.532087
O26   O     O_2   0.656124 0.083437 0.408084 -0.518110
O27   O     O_2   0.548187 0.279578 0.060323 -0.515814
O28   O     O_2   0.405315 0.656998 0.094281 -0.529554
O29   O     O_2   0.128216 0.502487 0.249083 -0.530490
O30   O     O_2   0.180356 0.405060 0.626388 -0.530438
O31   O     O_R   0.861050 0.489840 0.017060 -0.633499
O32   O     O_R   0.510160 0.982940 0.138950 -0.628917
O33   O     O_R   0.489840 0.017060 0.861050 -0.638146
O34   O     O_R   0.489840 0.861050 0.017060 -0.627604
O35   O     O_R   0.510160 0.138950 0.982940 -0.614159
O36   O     O_R   0.017060 0.489840 0.861050 -0.632570
Zn1   Zn    Zn3+2 0.004880 0.004880 0.583590 1.074968
Zn2   Zn    Zn3+2 0.995120 0.995120 0.416410 1.075830
Zn3   Zn    Zn3+2 0.004880 0.583590 0.004880 1.062238
Zn4   Zn    Zn3+2 0.995120 0.416410 0.995120 1.074344
Zn5   Zn    Zn3+2 0.583590 0.004880 0.004880 1.080737
Zn6   Zn    Zn3+2 0.416410 0.995120 0.995120 1.066256

loop_
_geom_bond_atom_site_label_1
_geom_bond_atom_site_label_2
_ccdc_geom_bond_type
Br6   C63   S    
C29   C68   S    
O12   Zn2   S    
C43   C57   A    
C40   C53   A    
C44   C58   A    
C73   H14   S    
C37   C50   A    
O36   Zn4   S    
Br2   C59   S    
C13   C25   A    
C49   C62   A    
C23   C43   A    
C75   O29   D    
C15   C34   S    
C69   H9    S    
C40   C56   A    
C2    O31   A    
C19   C71   S    
C1    C39   A    
C31   H1    S    
C3    O32   A    
C32   C46   A    
C78   O14   A    
O7    Zn3   S    
O4    Zn1   S    
C34   C42   A    
C12   C13   S    
C37   H21   S    
C7    O36   A    
C68   H8    S    
O10   Zn6   S    
C70   H10   S    
C41   C54   A    
C6    C53   S    
C17   C56   S    
C1    C11   S    
C40   H24   S    
C9    O5    A    
O23   Zn3   S    
O14   Zn4   S    
C69   O22   D    
C36   C45   A    
C10   C51   S    
C64   O18   D    
O11   Zn6   S    
C25   C65   S    
C15   C21   A    
C57   C60   A    
C20   C76   S    
C16   C22   A    
C43   H4    S    
C65   O19   D    
C3    C46   S    
C71   O25   D    
C77   O17   A    
Br5   C62   S    
C13   C19   A    
C2    C49   S    
O33   Zn6   S    
C50   C78   S    
C14   C23   S    
C52   C58   A    
C16   C28   A    
C39   C52   A    
C11   C18   A    
C24   C28   A    
C17   C24   A    
C9    O3    A    
C21   C75   S    
O6    Zn2   S    
O3    Zn2   S    
C51   C59   A    
O8    Zn4   S    
C66   H7    S    
C26   C64   S    
C48   C61   A    
C17   C27   A    
C8    C55   S    
O16   Zn2   S    
C71   H11   S    
C35   H19   S    
C10   O6    A    
C4    O33   A    
C77   O12   A    
Br3   C60   S    
C41   H2    S    
C12   C38   A    
C36   C49   A    
C48   C67   S    
C55   C61   A    
C27   C70   S    
C7    C57   S    
C38   C51   A    
C67   O16   A    
C23   C33   A    
C72   H13   S    
C1    C31   A    
C42   H3    S    
C47   C60   A    
C72   O26   D    
C7    O7    A    
C53   C63   A    
C6    O10   A    
C24   C73   S    
C18   C72   S    
C34   C35   A    
C66   O20   D    
C22   C27   A    
O5    Zn1   S    
C74   H15   S    
C3    O11   A    
C9    C52   S    
C64   H5    S    
C5    C54   S    
C5    O9    A    
Br1   C58   S    
C10   O4    A    
C33   H18   S    
C8    O2    A    
O1    Zn1   S    
O15   Zn3   S    
C36   H20   S    
Br4   C61   S    
C41   C45   A    
C2    O15   A    
C67   O1    A    
C15   C29   A    
C75   H16   S    
C38   H22   S    
C21   C30   A    
C73   O27   D    
C28   C69   S    
C78   O23   A    
C74   O28   D    
C6    O35   A    
C47   C77   S    
O34   Zn6   S    
C12   C32   A    
C18   C25   A    
C76   O30   D    
O17   Zn1   S    
C31   C44   A    
C70   O24   D    
C42   C55   A    
C33   C47   A    
C65   H6    S    
C14   C20   A    
C19   C26   A    
C8    O8    A    
C76   H17   S    
O13   Zn5   S    
C4    O13   A    
O31   Zn4   S    
C22   C74   S    
C5    O34   A    
C35   C48   A    
C39   H23   S    
C14   C30   A    
C30   C66   S    
C20   C29   A    
O35   Zn5   S    
C54   C62   A    
C50   C63   A    
C68   O21   D    
C32   H12   S    
C11   C26   A    
O9    Zn5   S    
O32   Zn5   S    
C46   C59   A    
O2    Zn3   S    
C37   C56   A    
C16   C45   S    
C4    C44   S    
