data_mof_unit_45407.cif
_audit_creation_date              2012-10-26T21:21:39-0400
_audit_creation_method            fapswitch 2.2
_symmetry_space_group_name_H-M    P1
_symmetry_Int_Tables_number       1
_space_group_crystal_system       triclinic
_cell_length_a                    14.329404
_cell_length_b                    10.801444
_cell_length_c                    9.656167
_cell_angle_alpha                 90.384966
_cell_angle_beta                  89.594428
_cell_angle_gamma                 92.994694
_cell_volume                      1492.45610741

loop_
_atom_site_label
_atom_site_type_symbol
_atom_type_description
_atom_site_fract_x
_atom_site_fract_y
_atom_site_fract_z
_atom_type_partial_charge
C1    C     C_R   0.496647 0.263030 0.499706 0.588927
C2    C     C_R   0.568293 0.071503 0.441019 0.351626
C3    C     C_R   0.570873 0.943542 0.442412 -0.021337
C4    C     C_R   0.331310 0.499448 0.500420 0.511749
C5    C     C_R   0.495519 0.871513 0.499995 -0.053837
C6    C     C_R   0.645360 0.625282 0.145324 -0.046510
C7    C     C_R   0.732101 0.644514 0.083122 0.359349
C8    C     C_R   0.739534 0.631110 0.941636 -0.120507
C9    C     C_R   0.657734 0.615837 0.864089 -0.034702
C10   C     C_R   0.574339 0.560048 0.926290 0.123881
C11   C     C_R   0.571940 0.561439 0.075127 0.083301
C12   C     C_1   0.771067 0.500785 0.498885 0.032235
C13   C     C_R   0.430778 0.441201 0.073805 0.019381
C14   C     C_R   0.430390 0.442043 0.926413 0.010552
C15   C     C_R   0.499035 0.737205 0.500066 0.542022
C16   C     C_R   0.668670 0.500258 0.499554 0.574429
C17   C     C_1   0.228928 0.499923 0.501140 -0.045049
C18   C     C_1   0.143464 0.500393 0.501048 -0.033977
C19   C     C_1   0.042750 0.500861 0.500436 0.020366
C20   C     C_1   0.957272 0.501087 0.499769 0.037720
C21   C     C_1   0.856548 0.501074 0.499082 0.022039
C22   C     C_1   0.658377 0.710960 0.761150 0.261048
C23   C     C_R   0.337170 0.117501 0.611430 -0.099170
C24   C     C_1   0.655665 0.890065 0.394343 0.290038
C25   C     C_R   0.261497 0.046839 0.665605 -0.104130
C26   C     C_R   0.262308 0.918116 0.665084 -0.104735
C27   C     C_R   0.338885 0.859273 0.610694 -0.080005
C28   C     C_R   0.416993 0.928960 0.556443 0.004275
C29   C     C_R   0.415834 0.059812 0.556596 -0.033987
C30   C     C_R   0.492524 0.129321 0.498909 -0.000362
Cu1   Cu    Cu3+1 0.499990 0.499990 0.640660 0.959980
Cu2   Cu    Cu3+1 0.500010 0.500010 0.359340 0.978021
F1    F     F_    0.641998 0.141002 0.388033 -0.604395
F2    F     F_    0.806649 0.688855 0.157455 -0.600051
H1    H     H_    0.805100 0.662144 0.892910 0.156095
H2    H     H_    0.373469 0.393764 0.872121 0.112104
H3    H     H_    0.332899 0.217203 0.611664 0.115132
H4    H     H_    0.201674 0.092141 0.707189 0.124396
H5    H     H_    0.203093 0.863516 0.706259 0.126424
H6    H     H_    0.335630 0.759114 0.610703 0.132133
H7    H     H_    0.374142 0.392168 0.128387 0.117289
H8    H     H_    0.637341 0.661866 0.247001 0.190677
N1    N     N_R   0.500820 0.501210 0.147910 -0.232770
N2    N     N_R   0.500850 0.501290 0.852040 -0.227637
N3    N     N_1   0.664830 0.791493 0.682934 -0.295109
N4    N     N_1   0.724873 0.849608 0.357753 -0.191941
O1    O     O_R   0.499990 0.319640 0.618810 -0.496383
O2    O     O_R   0.500000 0.319660 0.381240 -0.452433
O3    O     O_R   0.376050 0.499990 0.618810 -0.506644
O4    O     O_R   0.376060 0.500010 0.381240 -0.488627
O5    O     O_R   0.500000 0.680340 0.618760 -0.482859
O6    O     O_R   0.500010 0.680360 0.381190 -0.521660
O7    O     O_R   0.623940 0.499990 0.618760 -0.485965
O8    O     O_R   0.623950 0.500010 0.381190 -0.480406

loop_
_geom_bond_atom_site_label_1
_geom_bond_atom_site_label_2
_ccdc_geom_bond_type
C1    O2    A    
C11   N1    A    
C6    C7    A    
C15   O5    A    
C25   H4    S    
C5    C28   A    
C9    C10   A    
C4    O3    A    
Cu1   Cu2   S    
C27   H6    S    
C2    C30   A    
C24   N4    T    
C19   C20   T    
C13   H7    S    
C17   C18   T    
C26   C27   A    
C7    C8    A    
Cu1   O1    S    
C15   O6    A    
Cu1   O7    S    
Cu2   O2    S    
Cu2   O4    S    
C3    C24   S    
C29   C30   A    
Cu1   O3    S    
C4    C17   S    
C23   C29   A    
C2    F1    S    
Cu2   O8    S    
C1    C30   S    
Cu2   N1    S    
C2    C3    A    
C23   C25   A    
C14   H2    S    
C9    C22   S    
C7    F2    S    
C16   O8    A    
C26   H5    S    
C5    C15   S    
Cu1   N2    S    
C10   N2    A    
C28   C29   A    
C13   N1    A    
C22   N3    T    
C20   C21   S    
C14   N2    A    
C18   C19   S    
C10   C11   A    
Cu1   O5    S    
C6    C11   A    
C16   O7    A    
C1    O1    A    
C23   H3    S    
C3    C5    A    
C25   C26   A    
C13   C14   A    
C6    H8    S    
C12   C21   T    
Cu2   O6    S    
C12   C16   S    
C4    O4    A    
C8    C9    A    
C27   C28   A    
C8    H1    S    
