data_mof_unit_30725.cif
_audit_creation_date              2013-03-05T15:52:17-0500
_audit_creation_method            fapswitch 2.2
_symmetry_space_group_name_H-M    P1
_symmetry_Int_Tables_number       1
_space_group_crystal_system       triclinic
_cell_length_a                    21.475133
_cell_length_b                    7.246685
_cell_length_c                    14.758529
_cell_angle_alpha                 89.99655
_cell_angle_beta                  74.219469
_cell_angle_gamma                 90.003628
_cell_volume                      2210.20991261

loop_
_atom_site_label
_atom_site_type_symbol
_atom_site_description
_atom_site_fract_x
_atom_site_fract_y
_atom_site_fract_z
_atom_type_partial_charge
O1    O     O_R   0.464160 0.506670 0.130070 -0.596024
O2    O     O_R   0.535840 0.006670 0.869930 -0.596081
O3    O     O_R   0.589710 0.179080 0.006710 -0.602331
O4    O     O_R   0.410290 0.679080 0.993290 -0.602267
C1    C     C_R   0.616327 0.344458 0.001170 0.968731
C2    C     C_R   0.383676 0.844450 0.998814 0.968781
O5    O     O_R   0.467940 0.177220 0.138010 -0.561630
O6    O     O_R   0.532060 0.677220 0.861990 -0.561468
O7    O     O_R   0.413200 0.002810 0.002170 -0.592762
O8    O     O_R   0.586800 0.502810 0.997830 -0.592717
C3    C     C_R   0.456138 0.345518 0.174503 1.007416
C4    C     C_R   0.543864 0.845530 0.825498 1.007267
O9    O     O_3   0.482180 0.337850 0.955280 -0.286271
O10   O     O_3   0.517820 0.837850 0.044720 -0.286346
V1    V     V_3+5 0.503310 0.064600 0.008300 1.224395
V2    V     V_3+5 0.496690 0.564600 0.991700 1.224501
C5    C     C_R   0.571308 0.855906 0.723465 -0.220855
C6    C     C_R   0.428689 0.355850 0.276537 -0.220776
C7    C     C_R   0.926653 0.867541 0.276736 -0.199422
C8    C     C_R   0.073338 0.367654 0.723260 -0.199334
C9    C     C_R   0.560745 0.944872 0.570806 -0.043672
C10   C     C_R   0.439320 0.444167 0.429248 -0.043671
C11   C     C_R   0.534674 0.931227 0.667755 -0.206851
C12   C     C_R   0.465387 0.430651 0.332292 -0.206698
C13   C     C_R   0.635286 0.800085 0.682573 0.559306
C14   C     C_R   0.364656 0.300446 0.317389 0.559058
C15   C     C_R   0.666232 0.851024 0.587666 -0.079551
C16   C     C_R   0.333756 0.351225 0.412331 -0.079545
C17   C     C_R   0.626266 0.901539 0.529114 -0.066631
C18   C     C_R   0.373761 0.401188 0.470917 -0.066491
C19   C     C_R   0.734983 0.860397 0.550184 -0.047399
C20   C     C_R   0.265015 0.360910 0.449825 -0.047420
C21   C     C_R   0.761809 0.861109 0.450590 -0.019199
C22   C     C_R   0.238191 0.361293 0.549418 -0.019217
C23   C     C_R   0.719918 0.893814 0.393394 -0.296063
C24   C     C_R   0.280100 0.393521 0.606637 -0.296219
C25   C     C_R   0.653355 0.917335 0.431195 0.361029
C26   C     C_R   0.346680 0.416783 0.568850 0.361024
C27   C     C_R   0.776805 0.894456 0.608427 0.560623
C28   C     C_R   0.223220 0.395584 0.391614 0.560890
C29   C     C_R   0.843710 0.908804 0.568076 -0.287837
C30   C     C_R   0.156319 0.410045 0.431968 -0.288188
C31   C     C_R   0.870478 0.891209 0.471299 0.072976
C32   C     C_R   0.129537 0.392026 0.528723 0.073052
C33   C     C_R   0.830405 0.853440 0.411463 -0.051078
C34   C     C_R   0.169590 0.353777 0.588534 -0.051082
C35   C     C_R   0.936949 0.922253 0.433325 -0.120529
C36   C     C_R   0.063075 0.423145 0.566714 -0.120490
C37   C     C_R   0.964031 0.919791 0.336424 -0.194744
C38   C     C_R   0.035984 0.420325 0.663609 -0.194862
C39   C     C_R   0.861200 0.820027 0.314035 0.431180
C40   C     C_R   0.138776 0.320044 0.685929 0.431222
H1    H     H_    0.014606 0.955283 0.307968 0.196951
H2    H     H_    0.985423 0.455920 0.692088 0.196786
H3    H     H_    0.874993 0.941515 0.612495 0.181459
H4    H     H_    0.125056 0.443170 0.387579 0.181484
H5    H     H_    0.530018 0.998503 0.529814 0.187493
H6    H     H_    0.470091 0.497396 0.470270 0.187296
H7    H     H_    0.485147 0.974194 0.699101 0.169799
H8    H     H_    0.514956 0.473308 0.300974 0.169505
H9    H     H_    0.738647 0.915287 0.318696 0.204218
H10   H     H_    0.261380 0.414803 0.681353 0.204377
H11   H     H_    0.967489 0.957165 0.478453 0.148218
H12   H     H_    0.032553 0.458417 0.521612 0.148215
C41   C     C_3   0.229581 0.796493 0.908024 0.303132
C42   C     C_3   0.770414 0.296443 0.092011 0.303213
H13   H     H_    0.227475 0.901018 0.853384 0.135622
H14   H     H_    0.772604 0.400791 0.146684 0.135820
C43   C     C_3   0.301428 0.773310 0.909600 -0.430180
C44   C     C_3   0.698540 0.273672 0.090484 -0.429784
H15   H     H_    0.333482 0.844618 0.847452 0.168775
H16   H     H_    0.666563 0.345448 0.152525 0.168814
H17   H     H_    0.315111 0.624702 0.903747 0.225473
H18   H     H_    0.684712 0.125172 0.096574 0.225395
H19   H     H_    0.191979 0.586527 0.058568 0.166078
H20   H     H_    0.807989 0.086404 0.941601 0.166781
H21   H     H_    0.290211 0.599122 0.086137 0.178472
H22   H     H_    0.709744 0.098795 0.914134 0.178368
C45   C     C_3   0.198608 0.728827 0.082528 0.192759
C46   C     C_3   0.801369 0.228623 0.917552 0.194047
C47   C     C_3   0.213253 0.066440 0.021700 0.670667
C48   C     C_3   0.786763 0.566383 0.978395 0.671023
C49   C     C_3   0.186817 0.866566 0.006033 -0.299382
C50   C     C_3   0.813180 0.366485 0.993995 -0.299746
C51   C     C_3   0.312370 0.853055 0.001470 -0.077665
C52   C     C_3   0.687636 0.353064 0.998509 -0.077649
C53   C     C_3   0.270687 0.741477 0.086406 -0.448481
C54   C     C_3   0.729288 0.241168 0.913700 -0.448573
C55   C     C_3   0.287667 0.055370 0.011349 -0.533589
C56   C     C_3   0.712405 0.555319 0.988337 -0.533994
H23   H     H_    0.314737 0.133129 0.947637 0.189114
H24   H     H_    0.685203 0.633620 0.051759 0.189026
H25   H     H_    0.300474 0.124294 0.071105 0.231238
H26   H     H_    0.699848 0.623600 0.928215 0.231074
H27   H     H_    0.275414 0.808239 0.151907 0.247629
H28   H     H_    0.724562 0.307665 0.848129 0.247391
O11   O     O_R   0.913210 0.208550 0.002110 -0.540526
O12   O     O_R   0.086790 0.708550 0.997890 -0.540724
O13   O     O_R   0.032060 0.539960 0.861980 -0.610135
O14   O     O_R   0.967940 0.039960 0.138020 -0.609899
C57   C     C_R   0.044722 0.372835 0.825355 1.078150
C58   C     C_R   0.955280 0.872815 0.174645 1.078082
O15   O     O_R   0.910290 0.538020 0.993280 -0.541796
O16   O     O_R   0.089710 0.038020 0.006720 -0.541428
O17   O     O_R   0.964160 0.712340 0.130090 -0.557201
O18   O     O_R   0.035840 0.212340 0.869910 -0.557078
C59   C     C_R   0.884294 0.370617 0.996079 1.004459
C60   C     C_R   0.115702 0.870636 0.003947 1.004823
O19   O     O_3   0.017820 0.379210 0.044690 -0.260344
O20   O     O_3   0.982180 0.879210 0.955310 -0.260298
V3    V     V_3+5 0.996690 0.652500 0.991710 1.344656
V4    V     V_3+5 0.003310 0.152500 0.008290 1.344900
N1    N     N_R   0.613948 0.953271 0.368450 0.230024
O21   O     O_R   0.634537 0.064607 0.297442 -0.445116
O22   O     O_R   0.562970 0.852823 0.372842 -0.422891
N2    N     N_R   0.386108 0.452209 0.631623 0.230071
O23   O     O_R   0.365574 0.563314 0.702734 -0.444790
O24   O     O_R   0.437025 0.351467 0.627157 -0.423254
O25   O     O_3   0.206036 0.628089 0.883424 -0.736164
H29   H     H_    0.225512 0.611314 0.814841 0.341570
O26   O     O_3   0.793877 0.127863 0.116537 -0.736334
H30   H     H_    0.774421 0.111033 0.185121 0.341656
N3    N     N_R   0.178416 0.142571 0.115000 0.214960
O27   O     O_R   0.131050 0.258736 0.122304 -0.358957
O28   O     O_R   0.200292 0.118853 0.188209 -0.393394
N4    N     N_R   0.821758 0.642963 0.885287 0.214697
O29   O     O_R   0.868362 0.761438 0.878534 -0.359569
O30   O     O_R   0.800629 0.617068 0.811585 -0.393792
O31   O     O_3   0.204177 0.185963 0.950732 -0.720979
H31   H     H_    0.220220 0.309796 0.962320 0.348732
O32   O     O_3   0.795664 0.685527 0.049622 -0.721118
H32   H     H_    0.779518 0.809348 0.038255 0.349094
O33   O     O_3   0.830495 0.733512 0.254819 -0.741823
H33   H     H_    0.798151 0.646910 0.293204 0.320744
O34   O     O_3   0.169450 0.233182 0.745083 -0.741931
H34   H     H_    0.201760 0.146594 0.706634 0.320684
N5    N     N_R   0.151365 0.749146 0.175608 0.242595
O35   O     O_R   0.169810 0.777247 0.251505 -0.369375
O36   O     O_R   0.091638 0.699886 0.185770 -0.430091
N6    N     N_R   0.848590 0.248673 0.824428 0.243444
O37   O     O_R   0.830081 0.275138 0.748458 -0.369103
O38   O     O_R   0.908399 0.200459 0.814376 -0.429996
O39   O     O_3   0.664467 0.688783 0.735194 -0.721528
H35   H     H_    0.699702 0.618520 0.691465 0.340472
O40   O     O_3   0.335370 0.189657 0.264690 -0.721101
H36   H     H_    0.300081 0.119468 0.308372 0.340807
O41   O     O_3   0.751270 0.939114 0.702279 -0.711335
H37   H     H_    0.786547 0.947642 0.733596 0.373257
O42   O     O_3   0.248791 0.440694 0.297823 -0.711252
H38   H     H_    0.213518 0.449813 0.266523 0.373047

loop_
_geom_bond_atom_site_label_1
_geom_bond_atom_site_label_2
_geom_bond_distance
_ccdc_geom_bond_type
C42   H14   1.116156 S    
C54   H28   1.110121 S    
C3    C6    1.462171 S    
N4    O29   1.301661 A    
C15   C17   1.421551 A    
C21   C33   1.429671 A    
O41   H37   0.990876 S    
O1    C3    1.327383 A    
C46   C50   1.578286 S    
O2    C4    1.327386 A    
C2    O7    1.318475 A    
C45   C53   1.567124 S    
O40   H36   0.991377 S    
O3    V1    2.026721 S    
N3    O27   1.302083 A    
C27   C29   1.401589 A    
O18   V4    2.017637 S    
C49   C60   1.536164 S    
C11   H7    1.083816 S    
N5    O36   1.300136 A    
C38   H2    1.083515 S    
C2    C51   1.522403 S    
C47   N3    1.483214 S    
C6    C12   1.394535 A    
C23   C25   1.396395 A    
N6    O38   1.300073 A    
O31   H31   0.992601 S    
C35   H11   1.084121 S    
C7    C58   1.464850 S    
C52   C54   1.554196 S    
C41   C49   1.571991 S    
C25   N1    1.437973 S    
C33   C39   1.430504 A    
O39   H35   0.991381 S    
C34   C40   1.430524 A    
C50   C59   1.536116 S    
O12   C60   1.342847 A    
N2    O23   1.300985 A    
C18   C26   1.408139 A    
C58   O17   1.324024 A    
O15   V3    2.026796 S    
C43   H15   1.112944 S    
O20   V3    1.782079 S    
C48   N4    1.482964 S    
C8    C38   1.395830 A    
N3    O28   1.301423 A    
C30   H4    1.084800 S    
C47   O31   1.412844 S    
C29   H3    1.084793 S    
C19   C27   1.423495 A    
C41   H13   1.116175 S    
C53   H27   1.110094 S    
C4    C5    1.462149 S    
C44   H18   1.113446 S    
C19   C21   1.425432 A    
C43   H17   1.113470 S    
C22   C34   1.429683 A    
C55   H23   1.114546 S    
C12   H8    1.083821 S    
C47   C55   1.565512 S    
C36   C38   1.389728 A    
O17   V3    2.017709 S    
O6    V2    2.028920 S    
C29   C31   1.392898 A    
C13   O39   1.382415 S    
C30   C32   1.392908 A    
C24   H10   1.077151 S    
C47   C49   1.595308 S    
C32   C34   1.417329 A    
C56   H26   1.111301 S    
C51   C53   1.554314 S    
C15   C19   1.430461 A    
O34   H34   0.991518 S    
N6    O37   1.301630 A    
C35   C37   1.389754 A    
C52   C56   1.552462 S    
O19   V4    1.782102 S    
O16   V4    2.026893 S    
O11   V4    2.003311 S    
C51   C55   1.552486 S    
C8    C57   1.464856 S    
C46   N6    1.476574 S    
C9    C17   1.409345 A    
C20   C22   1.425395 A    
O4    V2    2.026821 S    
C14   O40   1.382422 S    
O5    C3    1.329519 A    
C9    H5    1.081486 S    
C26   N2    1.437993 S    
C7    C37   1.395819 A    
C56   H24   1.114480 S    
C16   C20   1.430412 A    
O6    C4    1.329505 A    
O13   V3    2.029065 S    
C6    C14   1.401653 A    
O14   C58   1.324062 A    
C41   O25   1.405920 S    
C42   O26   1.405906 S    
C23   H9    1.077108 S    
O1    V2    2.014570 S    
C5    C11   1.394521 A    
O2    V1    2.014643 S    
C31   C33   1.417291 A    
O26   H30   0.991935 S    
C1    C52   1.522437 S    
O4    C2    1.320674 A    
C45   N5    1.476524 S    
O14   V4    2.028934 S    
C48   C50   1.595118 S    
C9    C11   1.390944 A    
O33   H33   0.991518 S    
C10   C12   1.390987 A    
C17   C25   1.408070 A    
O32   H32   0.992558 S    
C44   C52   1.549579 S    
O16   C60   1.331248 A    
C43   C51   1.549488 S    
N1    O21   1.300972 A    
H22   C54   1.113170 S    
C57   O18   1.324060 A    
N4    O30   1.301048 A    
O12   V3    2.003264 S    
C10   C18   1.409370 A    
O13   C57   1.324032 A    
H20   C46   1.111653 S    
O3    C1    1.320671 A    
C10   H6    1.081487 S    
O15   C59   1.331311 A    
O25   H29   0.991966 S    
C13   C15   1.425990 A    
N5    O35   1.301690 A    
C14   C16   1.426000 A    
C48   C56   1.565380 S    
C5    C13   1.401665 A    
C16   C18   1.421551 A    
O7    V1    2.012093 S    
C1    O8    1.318488 A    
C46   C54   1.567020 S    
O8    V2    2.012140 S    
O42   H38   0.990886 S    
C24   C26   1.396446 A    
C45   C49   1.578078 S    
C39   O33   1.380257 S    
C42   C44   1.558528 S    
C31   C35   1.402574 A    
C41   C43   1.558495 S    
O5    V1    2.029050 S    
C28   C30   1.401571 A    
C21   C23   1.411041 A    
N2    O24   1.301476 A    
C28   O42   1.382379 S    
C22   C24   1.411053 A    
C20   C28   1.423454 A    
C55   H25   1.111228 S    
C37   H1    1.083511 S    
C36   H12   1.084126 S    
C42   C50   1.571911 S    
O11   C59   1.342758 A    
C7    C39   1.405834 A    
H21   C53   1.113172 S    
C8    C40   1.405836 A    
O9    V2    1.782474 S    
C27   O41   1.382364 S    
C40   O34   1.380251 S    
O10   V1    1.782448 S    
C44   H16   1.112930 S    
C48   O32   1.412951 S    
H19   C45   1.111796 S    
C32   C36   1.402554 A    
N1    O22   1.301474 A    
