data_mof_unit_31754.cif
_audit_creation_date              2012-12-10T17:33:48-0500
_audit_creation_method            fapswitch 2.2
_symmetry_space_group_name_H-M    P1
_symmetry_Int_Tables_number       1
_space_group_crystal_system       triclinic
_cell_length_a                    11.65864
_cell_length_b                    12.397128
_cell_length_c                    13.105916
_cell_angle_alpha                 116.482609
_cell_angle_beta                  77.577995
_cell_angle_gamma                 101.019459
_cell_volume                      1645.93729882

loop_
_atom_site_label
_atom_site_type_symbol
_atom_type_description
_atom_site_fract_x
_atom_site_fract_y
_atom_site_fract_z
_atom_type_partial_charge
C1    C     C_R   0.512564 0.855059 0.285969 0.856906
C2    C     C_R   0.459400 0.227846 0.837408 -0.145622
C3    C     C_R   0.614281 0.809351 0.088065 -0.266124
C4    C     C_R   0.656700 0.724965 0.978461 0.472859
C5    C     C_R   0.614607 0.602764 0.944224 -0.139313
C6    C     C_R   0.523238 0.562818 0.014526 -0.007117
C7    C     C_R   0.473783 0.651035 0.121012 -0.009074
C8    C     C_R   0.478053 0.438538 0.981984 0.067526
C9    C     C_R   0.393545 0.404074 0.061143 -0.033354
C10   C     C_R   0.341596 0.493749 0.163433 0.111938
C11   C     C_R   0.371252 0.615508 0.183421 0.138887
C12   C     C_R   0.715313 0.001650 0.502596 0.840858
C13   C     C_R   0.511050 0.347961 0.871587 -0.266849
C14   C     C_R   0.380912 0.193833 0.919020 0.400536
C15   C     C_R   0.527494 0.772712 0.161836 -0.108084
C16   C     C_R   0.607575 0.305227 0.282637 -0.221083
C17   C     C_R   0.362583 0.773057 0.662942 -0.002305
C18   C     C_R   0.338543 0.685348 0.707052 0.377667
C19   C     C_R   0.387254 0.575773 0.644411 -0.158366
C20   C     C_R   0.457200 0.550729 0.536415 -0.084621
C21   C     C_R   0.481429 0.643899 0.495131 0.230634
C22   C     C_R   0.505355 0.436764 0.467657 0.008845
C23   C     C_R   0.481564 0.144936 0.714067 0.777278
C24   C     C_R   0.551835 0.409487 0.351360 0.048580
C25   C     C_R   0.554150 0.492223 0.306611 -0.242045
C26   C     C_R   0.545925 0.612939 0.381712 0.194095
C27   C     C_R   0.509584 0.347804 0.507402 -0.027209
C28   C     C_R   0.620688 0.228355 0.328950 0.605245
C29   C     C_R   0.284129 0.002659 0.503575 0.820493
C30   C     C_1   0.836861 0.003394 0.505222 -0.126298
C31   C     C_1   0.939422 0.004748 0.506698 0.045889
C32   C     C_1   0.059359 0.005623 0.507234 0.046927
C33   C     C_1   0.162132 0.005139 0.506342 -0.124924
C34   C     C_R   0.353604 0.280814 0.030919 -0.137948
Cu1   Cu    Cu3+1 0.526510 0.098270 0.475420 0.967160
Cu2   Cu    Cu3+1 0.473490 0.901730 0.524580 0.993274
H1    H     H_    0.592419 0.469148 0.217113 0.171123
H2    H     H_    0.647574 0.286808 0.194513 0.169420
H3    H     H_    0.467000 0.357433 0.592090 0.141682
H4    H     H_    0.324730 0.857636 0.710958 0.148788
H5    H     H_    0.365419 0.509696 0.680097 0.161946
H6    H     H_    0.291326 0.251262 0.089769 0.198471
H7    H     H_    0.571614 0.369582 0.807198 0.165805
H8    H     H_    0.654459 0.902275 0.118103 0.194810
H9    H     H_    0.657030 0.541839 0.862364 0.153798
N1    N     N_R   0.566700 0.246290 0.438210 -0.238202
N2    N     N_R   0.434010 0.754320 0.561170 -0.215759
O1    O     O_R   0.533340 0.972510 0.318140 -0.562143
O2    O     O_R   0.488570 0.806530 0.359650 -0.562632
O3    O     O_R   0.685190 0.083000 0.479260 -0.601280
O4    O     O_R   0.640410 0.917020 0.520770 -0.542071
O5    O     O_R   0.511430 0.193470 0.640350 -0.592488
O6    O     O_R   0.466660 0.027490 0.681860 -0.574252
O7    O     O_R   0.359590 0.082980 0.479230 -0.568529
O8    O     O_R   0.314810 0.917000 0.520740 -0.562353
O9    O     O_3   0.321389 0.079644 0.890827 -0.723941
H10   H     H_    0.288200 0.057717 0.819720 0.313286
O10   O     O_3   0.267845 0.704188 0.811237 -0.693096
H11   H     H_    0.240657 0.785853 0.845107 0.343198
I1    I     I_    0.713806 0.695618 0.334100 -0.319069
I2    I     I_    0.212279 0.449770 0.286774 -0.300822
O11   O     O_3   0.744146 0.758006 0.904974 -0.705040
H12   H     H_    0.764644 0.847143 0.941404 0.335671
I3    I     I_    0.234003 0.731537 0.264418 -0.253306
O12   O     O_3   0.686429 0.133523 0.260051 -0.745091
H13   H     H_    0.716460 0.109383 0.310638 0.356815

loop_
_geom_bond_atom_site_label_1
_geom_bond_atom_site_label_2
_ccdc_geom_bond_type
C16   C28   A    
C14   O9    S    
C21   C26   A    
C1    O1    A    
C14   C34   A    
C6    C7    A    
C1    C15   S    
C29   C33   S    
C8    C9    A    
C9    C10   A    
C19   C20   A    
C12   O3    A    
Cu1   Cu2   S    
C34   H6    S    
C30   C31   T    
C12   C30   S    
C32   C33   T    
Cu1   O3    S    
C7    C15   A    
C28   O12   S    
C25   C26   A    
C24   C25   A    
C19   H5    S    
C16   C24   A    
Cu2   O8    S    
C5    H9    S    
C21   N2    A    
O9    H10   S    
Cu1   O7    S    
C7    C11   A    
Cu1   O5    S    
C28   N1    A    
C23   O5    A    
O11   H12   S    
Cu2   O4    S    
C26   I1    S    
Cu1   O1    S    
C27   N1    A    
C20   C22   A    
C9    C34   A    
C23   O6    A    
C22   C27   A    
C5    C6    A    
C2    C14   A    
C22   C24   A    
C3    H8    S    
C10   I2    S    
C29   O7    A    
C3    C4    A    
C8    C13   A    
C4    O11   S    
C13   H7    S    
C12   O4    A    
C3    C15   A    
C20   C21   A    
Cu2   N2    S    
C17   C18   A    
O12   H13   S    
C10   C11   A    
C16   H2    S    
C2    C23   S    
C2    C13   A    
C18   C19   A    
C6    C8    A    
Cu2   O6    S    
C29   O8    A    
C25   H1    S    
O10   H11   S    
Cu1   N1    S    
C1    O2    A    
C18   O10   S    
C31   C32   S    
Cu2   O2    S    
C17   N2    A    
C27   H3    S    
C4    C5    A    
C11   I3    S    
C17   H4    S    
