data_mof_unit_48471.cif
_audit_creation_date              2012-10-26T18:47:54-0400
_audit_creation_method            fapswitch 2.2
_symmetry_space_group_name_H-M    P1
_symmetry_Int_Tables_number       1
_space_group_crystal_system       triclinic
_cell_length_a                    15.842837
_cell_length_b                    8.693085
_cell_length_c                    7.607557
_cell_angle_alpha                 103.095474
_cell_angle_beta                  97.083081
_cell_angle_gamma                 93.041265
_cell_volume                      1009.13928598

loop_
_atom_site_label
_atom_site_type_symbol
_atom_type_description
_atom_site_fract_x
_atom_site_fract_y
_atom_site_fract_z
_atom_type_partial_charge
C1    C     C_R   0.499386 0.200575 0.454448 0.523087
C2    C     C_2   0.525048 0.967719 0.573175 -0.055103
C3    C     C_R   0.340562 0.499686 0.497431 0.524678
C4    C     C_R   0.508250 0.799617 0.546949 0.547859
C5    C     C_R   0.659492 0.500325 0.502649 0.539895
C6    C     C_3   0.066034 0.479458 0.689728 0.026836
C7    C     C_3   0.030319 0.363681 0.342313 0.340125
C8    C     C_3   0.934461 0.358814 0.370395 0.225201
C9    C     C_1   0.749562 0.501392 0.511844 0.044479
C10   C     C_3   0.082869 0.503374 0.494374 0.058402
C11   C     C_3   0.120951 0.605671 0.848115 -0.338109
C12   C     C_3   0.967282 0.491182 0.702687 0.220489
C13   C     C_3   0.578399 0.058023 0.750353 -0.334829
C14   C     C_3   0.395927 0.378064 0.943301 -0.180260
C15   C     C_3   0.092657 0.313429 0.713614 -0.365805
C16   C     C_3   0.040614 0.374093 0.149073 -0.241787
C17   C     C_3   0.082771 0.743823 0.326677 -0.444405
C18   C     C_3   0.922077 0.816227 0.569584 -0.371556
C19   C     C_3   0.917886 0.506201 0.517144 0.033003
C20   C     C_3   0.951353 0.659833 0.462131 -0.091861
C21   C     C_3   0.050527 0.668798 0.475120 -0.160321
C22   C     C_1   0.825598 0.503408 0.520192 0.058441
C23   C     C_1   0.174969 0.501631 0.485261 -0.028494
C24   C     C_1   0.250708 0.500544 0.489534 -0.040054
C25   C     C_2   0.496700 0.032529 0.434366 -0.112906
Cu1   Cu    Cu3+1 0.509300 0.517380 0.684380 1.055894
Cu2   Cu    Cu3+1 0.490700 0.482620 0.315620 1.046074
F1    F     F_    0.952112 0.615511 0.842052 -0.665100
F2    F     F_    0.591817 0.624560 0.069097 -0.500337
F3    F     F_    0.060421 0.218804 0.353844 -0.693866
F4    F     F_    0.880386 0.347218 0.208428 -0.645177
H1    H     H_    0.939700 0.382938 0.736774 0.127313
H2    H     H_    0.628940 0.139258 0.722491 0.161508
H3    H     H_    0.537141 0.124986 0.843162 0.160871
H4    H     H_    0.371460 0.298170 0.023646 0.110162
H5    H     H_    0.348334 0.466214 0.934854 0.114510
H6    H     H_    0.401897 0.300816 0.810085 0.133078
H7    H     H_    0.109773 0.309244 0.855962 0.089863
H8    H     H_    0.041072 0.217426 0.655115 0.153847
H9    H     H_    0.150945 0.280488 0.651838 0.187293
H10   H     H_    0.109375 0.396765 0.142734 0.097969
H11   H     H_    0.016880 0.259124 0.052907 0.186997
H12   H     H_    0.923089 0.648626 0.317893 0.209485
H13   H     H_    0.003213 0.464992 0.104017 0.177952
H14   H     H_    0.085784 0.875135 0.372144 0.185439
H15   H     H_    0.147934 0.713143 0.301902 0.134645
H16   H     H_    0.039362 0.713633 0.196394 0.189183
H17   H     H_    0.948889 0.843025 0.715795 0.214248
H18   H     H_    0.944111 0.916055 0.513010 0.133919
H19   H     H_    0.851447 0.812634 0.556998 0.157018
H20   H     H_    0.465287 0.960070 0.304599 0.128968
H21   H     H_    0.917992 0.250081 0.417547 0.151267
H22   H     H_    0.077731 0.757193 0.600554 0.159522
H23   H     H_    0.098758 0.726176 0.866674 0.171246
H24   H     H_    0.118245 0.575207 0.979719 0.127300
H25   H     H_    0.189470 0.612544 0.831252 0.111343
H26   H     H_    0.611949 0.976890 0.823394 0.165753
N1    N     N_2   0.476670 0.456430 0.038530 -0.111183
N2    N     N_2   0.523330 0.543570 0.961470 0.164561
O1    O     O_R   0.506050 0.286130 0.619770 -0.537491
O2    O     O_R   0.490330 0.256780 0.308370 -0.513776
O3    O     O_R   0.387300 0.514690 0.655770 -0.543037
O4    O     O_R   0.371580 0.485340 0.344370 -0.522103
O5    O     O_R   0.509670 0.743220 0.691630 -0.490220
O6    O     O_R   0.493950 0.713870 0.380230 -0.470924
O7    O     O_R   0.628420 0.514660 0.655630 -0.472051
O8    O     O_R   0.612700 0.485310 0.344230 -0.418966

loop_
_geom_bond_atom_site_label_1
_geom_bond_atom_site_label_2
_ccdc_geom_bond_type
C6    C10   S    
C7    C10   S    
C2    C4    S    
C23   C24   T    
C25   H20   S    
C15   H7    S    
C5    C9    S    
Cu2   O6    S    
C3    O4    A    
C10   C23   S    
C21   H22   S    
Cu1   N2    S    
C16   H13   S    
C19   C20   S    
C5    O8    A    
C19   C22   S    
C3    C24   S    
C7    C8    S    
C7    F3    S    
C12   H1    S    
C14   H6    S    
C1    C25   S    
C15   H8    S    
Cu1   Cu2   S    
C11   H23   S    
Cu2   O4    S    
C12   F1    S    
Cu1   O3    S    
C12   C19   S    
C7    C16   S    
C17   H14   S    
C2    C25   D    
C18   C20   S    
C10   C21   S    
C6    C12   S    
C4    O6    A    
C14   N1    S    
N1    N2    D    
C15   H9    S    
C3    O3    A    
C8    C19   S    
Cu2   O8    S    
F2    N2    S    
Cu1   O7    S    
C16   H11   S    
C13   H3    S    
C20   H12   S    
C11   H24   S    
C17   H15   S    
C18   H19   S    
C4    O5    A    
C20   C21   S    
C13   H2    S    
C1    O1    A    
C6    C11   S    
C2    C13   S    
C8    H21   S    
C9    C22   T    
C14   H5    S    
Cu1   O5    S    
Cu2   O2    S    
C13   H26   S    
C6    C15   S    
C8    F4    S    
Cu1   O1    S    
C16   H10   S    
C14   H4    S    
C17   C21   S    
C11   H25   S    
C17   H16   S    
C18   H18   S    
C18   H17   S    
C5    O7    A    
Cu2   N1    S    
C1    O2    A    
