data_mof_unit_65829.cif
_audit_creation_date              2012-10-26T20:52:01-0400
_audit_creation_method            fapswitch 2.2
_symmetry_space_group_name_H-M    P1
_symmetry_Int_Tables_number       1
_space_group_crystal_system       triclinic
_cell_length_a                    8.799974
_cell_length_b                    16.011303
_cell_length_c                    14.777903
_cell_angle_alpha                 89.9431
_cell_angle_beta                  97.570183
_cell_angle_gamma                 89.974501
_cell_volume                      2064.04322429

loop_
_atom_site_label
_atom_site_type_symbol
_atom_type_description
_atom_site_fract_x
_atom_site_fract_y
_atom_site_fract_z
_atom_type_partial_charge
C1    C     C_R   0.500006 0.340921 0.500046 0.547858
C2    C     C_R   0.796245 0.497703 0.522721 0.564809
C3    C     C_2   0.039239 0.512728 0.466181 0.243413
C4    C     C_2   0.960760 0.487271 0.533818 0.243403
C5    C     C_R   0.485800 0.954480 0.579087 -0.057875
C6    C     C_R   0.514200 0.045520 0.420913 -0.057868
C7    C     C_R   0.500487 0.912605 0.497622 -0.022147
C8    C     C_R   0.499513 0.087394 0.502378 -0.022146
C9    C     C_R   0.514929 0.958421 0.417212 0.261829
C10   C     C_R   0.485071 0.041578 0.582787 0.261829
C11   C     C_1   0.500282 0.823029 0.498816 -0.049775
C12   C     C_R   0.499993 0.659078 0.499954 0.547845
C13   C     C_1   0.499718 0.176971 0.501184 -0.049758
C14   C     C_1   0.499886 0.251930 0.500356 0.005987
C15   C     C_1   0.500114 0.748070 0.499644 0.005962
C16   C     C_R   0.637687 0.510488 0.961523 0.240174
C17   C     C_R   0.362298 0.489533 0.038478 0.240158
C18   C     C_R   0.498843 0.499918 0.902939 0.007319
C19   C     C_R   0.501144 0.500085 0.097059 0.007334
C20   C     C_R   0.360992 0.489774 0.941410 0.031695
C21   C     C_R   0.638993 0.510225 0.058588 0.031718
C22   C     C_1   0.499451 0.499990 0.802582 0.269115
C23   C     C_1   0.500544 0.500011 0.197417 0.269137
C24   C     C_R   0.203754 0.502296 0.477278 0.564815
Cu1   Cu    Cu3+1 0.500040 0.500000 0.589220 1.088540
Cu2   Cu    Cu3+1 0.499960 0.500000 0.410780 1.088556
H1    H     H_    0.474764 0.919178 0.640547 0.165826
H2    H     H_    0.525236 0.080822 0.359453 0.165840
H3    H     H_    0.042722 0.574001 0.351903 0.354462
H4    H     H_    0.957275 0.425990 0.648090 0.354473
H5    H     H_    0.471039 0.139792 0.660028 0.344950
H6    H     H_    0.528960 0.860208 0.339972 0.344938
H7    H     H_    0.857228 0.533357 0.967171 0.366117
H8    H     H_    0.142652 0.466960 0.032812 0.366208
I1    I     I_    0.847819 0.523192 0.149903 -0.256434
I2    I     I_    0.152196 0.476702 0.850083 -0.256326
N1    N     N_1   0.500050 0.499980 0.276720 -0.160560
N2    N     N_1   0.499950 0.500020 0.723280 -0.160567
O1    O     O_R   0.500070 0.380310 0.575330 -0.492083
O2    O     O_3   0.034417 0.446805 0.610388 -0.681920
O3    O     O_3   0.470118 0.078271 0.665804 -0.661466
O4    O     O_3   0.529882 0.921729 0.334195 -0.661479
O5    O     O_3   0.769207 0.520745 0.920792 -0.657264
O6    O     O_3   0.230783 0.479288 0.079217 -0.657239
O7    O     O_R   0.499930 0.619690 0.424670 -0.492101
O8    O     O_R   0.500000 0.380310 0.424640 -0.495157
O9    O     O_R   0.500000 0.619690 0.575360 -0.495180
O10   O     O_R   0.274870 0.500000 0.557960 -0.445840
O11   O     O_R   0.725130 0.500000 0.442040 -0.445833
O12   O     O_R   0.274790 0.500000 0.407270 -0.511681
O13   O     O_R   0.725210 0.500000 0.592730 -0.511687
O14   O     O_3   0.965581 0.553191 0.389609 -0.681927

loop_
_geom_bond_atom_site_label_1
_geom_bond_atom_site_label_2
_ccdc_geom_bond_type
C22   N2    T    
C2    C4    S    
C3    O14   S    
Cu1   O13   S    
Cu2   N1    S    
C16   C21   A    
C21   I1    S    
C2    O11   A    
C23   N1    T    
Cu1   N2    S    
Cu1   O9    S    
C24   O10   A    
C19   C23   S    
Cu1   O10   S    
C12   C15   S    
C6    C9    A    
C3    C24   S    
C17   O6    S    
H4    O2    S    
C5    C10   A    
C5    H1    S    
C13   C14   T    
Cu1   O1    S    
C10   O3    S    
C7    C11   S    
C16   O5    S    
C9    O4    S    
C8    C13   S    
C12   O9    A    
C6    C8    A    
C8    C10   A    
C19   C21   A    
C18   C20   A    
Cu2   O12   S    
C24   O12   A    
C1    O8    A    
C2    O13   A    
C1    O1    A    
C3    C4    D    
H7    O5    S    
C7    C9    A    
C17   C20   A    
H8    O6    S    
C16   C18   A    
Cu2   O11   S    
C5    C7    A    
Cu2   O8    S    
H6    O4    S    
C1    C14   S    
H5    O3    S    
Cu2   O7    S    
C17   C19   A    
Cu1   Cu2   S    
C18   C22   S    
C11   C15   T    
C6    H2    S    
C4    O2    S    
C12   O7    A    
H3    O14   S    
C20   I2    S    
