data_mof_unit_35694.cif
_audit_creation_date              2013-03-05T15:44:36-0500
_audit_creation_method            fapswitch 2.2
_symmetry_space_group_name_H-M    P1
_symmetry_Int_Tables_number       1
_space_group_crystal_system       triclinic
_cell_length_a                    18.936876
_cell_length_b                    10.908919
_cell_length_c                    18.884768
_cell_angle_alpha                 90.000434
_cell_angle_beta                  89.925148
_cell_angle_gamma                 90.147728
_cell_volume                      3901.21506091

loop_
_atom_site_label
_atom_site_type_symbol
_atom_site_description
_atom_site_fract_x
_atom_site_fract_y
_atom_site_fract_z
_atom_type_partial_charge
O1    O     O_R   0.787540 0.042690 0.170470 -0.530336
O2    O     O_R   0.212460 0.042690 0.829530 -0.537846
O3    O     O_R   0.287540 0.542690 0.170470 -0.527464
O4    O     O_R   0.712460 0.542690 0.829530 -0.532296
O5    O     O_R   0.765660 0.292160 0.175050 -0.507312
O6    O     O_R   0.234340 0.292160 0.824950 -0.504942
O7    O     O_R   0.265660 0.792160 0.175050 -0.506346
O8    O     O_R   0.734340 0.792160 0.824950 -0.507879
C1    C     C_R   0.730311 0.376611 0.145831 0.553340
C2    C     C_R   0.288018 0.330582 0.861614 0.558643
C3    C     C_R   0.230286 0.876907 0.145870 0.553460
C4    C     C_R   0.771976 0.872360 0.856242 0.551789
O9    O     O_R   0.670190 0.408980 0.168550 -0.513309
O10   O     O_R   0.329810 0.408980 0.831450 -0.501512
O11   O     O_R   0.170190 0.908980 0.168550 -0.513738
O12   O     O_R   0.829810 0.908980 0.831450 -0.519105
O13   O     O_R   0.556580 0.251450 0.175160 -0.513815
O14   O     O_R   0.443420 0.251450 0.824840 -0.529719
O15   O     O_R   0.056580 0.751450 0.175160 -0.511193
O16   O     O_R   0.943420 0.751450 0.824840 -0.515150
C5    C     C_R   0.531453 0.156301 0.146601 0.537276
C6    C     C_R   0.468299 0.154837 0.853508 0.525791
C7    C     C_R   0.031018 0.656048 0.146875 0.538802
C8    C     C_R   0.968198 0.655150 0.853651 0.533391
O17   O     O_R   0.545920 0.049510 0.170320 -0.523243
O18   O     O_R   0.454080 0.049510 0.829680 -0.520018
O19   O     O_R   0.045920 0.549510 0.170320 -0.520370
O20   O     O_R   0.954080 0.549510 0.829680 -0.522014
O21   O     O_R   0.681390 0.957840 0.176710 -0.501154
O22   O     O_R   0.318610 0.957840 0.823290 -0.497609
O23   O     O_R   0.181390 0.457840 0.176710 -0.497717
O24   O     O_R   0.818610 0.457840 0.823290 -0.498269
C9    C     C_R   0.741403 0.968303 0.147781 0.547567
C10   C     C_R   0.259578 0.973581 0.854216 0.542385
C11   C     C_R   0.241965 0.467309 0.147924 0.549102
C12   C     C_R   0.759907 0.474794 0.854547 0.545826
O25   O     O_R   0.787500 0.044280 0.330990 -0.538192
O26   O     O_R   0.212500 0.044280 0.669010 -0.535236
O27   O     O_R   0.287500 0.544280 0.330990 -0.537819
O28   O     O_R   0.712500 0.544280 0.669010 -0.536761
O29   O     O_R   0.765610 0.293630 0.323860 -0.508550
O30   O     O_R   0.234390 0.293630 0.676140 -0.505382
O31   O     O_R   0.265610 0.793630 0.323860 -0.511636
O32   O     O_R   0.734390 0.793630 0.676140 -0.506987
C13   C     C_R   0.728992 0.376793 0.353385 0.563143
C14   C     C_R   0.271175 0.376216 0.646352 0.574080
C15   C     C_R   0.228853 0.876216 0.353605 0.562661
C16   C     C_R   0.770987 0.876874 0.646617 0.566031
O33   O     O_R   0.670140 0.410570 0.329080 -0.498964
O34   O     O_R   0.329860 0.410570 0.670920 -0.487607
O35   O     O_R   0.170140 0.910570 0.329080 -0.493579
O36   O     O_R   0.829860 0.910570 0.670920 -0.496874
O37   O     O_R   0.556540 0.252920 0.323970 -0.512300
O38   O     O_R   0.443460 0.252920 0.676030 -0.506183
O39   O     O_R   0.056540 0.752920 0.323970 -0.507394
O40   O     O_R   0.943460 0.752920 0.676030 -0.511860
C17   C     C_R   0.531814 0.157642 0.353307 0.541701
C18   C     C_R   0.464402 0.156612 0.644361 0.542633
C19   C     C_R   0.035617 0.656501 0.355644 0.540588
C20   C     C_R   0.968180 0.657792 0.646685 0.543098
O41   O     O_R   0.545870 0.051100 0.330840 -0.495798
O42   O     O_R   0.454130 0.051100 0.669160 -0.504189
O43   O     O_R   0.045870 0.551100 0.330840 -0.506654
O44   O     O_R   0.954130 0.551100 0.669160 -0.493442
O45   O     O_R   0.681340 0.959300 0.325510 -0.438855
O46   O     O_R   0.318660 0.959300 0.674490 -0.445029
O47   O     O_R   0.181340 0.459300 0.325510 -0.448369
O48   O     O_R   0.818660 0.459300 0.674490 -0.437462
C21   C     C_R   0.741728 0.969776 0.354236 0.571628
C22   C     C_R   0.258061 0.969549 0.645944 0.575435
C23   C     C_R   0.241917 0.469352 0.354027 0.571507
C24   C     C_R   0.758251 0.469892 0.645761 0.572523
Cr1   Cr    Cr6+3 0.772000 0.169640 0.250110 1.024920
Cr2   Cr    Cr6+3 0.228000 0.169640 0.749890 1.020295
Cr3   Cr    Cr6+3 0.272000 0.669640 0.250110 1.022831
Cr4   Cr    Cr6+3 0.728000 0.669640 0.749890 1.024093
Cr5   Cr    Cr6+3 0.614960 0.323350 0.249260 1.036338
Cr6   Cr    Cr6+3 0.385040 0.323350 0.750740 1.039205
Cr7   Cr    Cr6+3 0.114960 0.823350 0.249260 1.041134
Cr8   Cr    Cr6+3 0.885040 0.823350 0.750740 1.038098
Cr9   Cr    Cr6+3 0.616670 0.010620 0.250840 1.083501
Cr10  Cr    Cr6+3 0.383330 0.010620 0.749160 1.076638
Cr11  Cr    Cr6+3 0.116670 0.510620 0.250840 1.079495
Cr12  Cr    Cr6+3 0.883330 0.510620 0.749160 1.087894
O49   O     O_3   0.667880 0.167870 0.250070 -0.259801
O50   O     O_3   0.332120 0.167870 0.749930 -0.284344
O51   O     O_3   0.167880 0.667870 0.250070 -0.261161
O52   O     O_3   0.832120 0.667870 0.749930 -0.264258
H1    H     H_    0.480205 0.973855 0.068954 0.135594
H2    H     H_    0.468814 0.967612 0.944121 0.143268
H3    H     H_    0.986669 0.470264 0.067269 0.137579
H4    H     H_    0.976802 0.466073 0.942449 0.143840
C25   C     C_R   0.494227 0.160375 0.926495 0.001699
C26   C     C_R   0.502579 0.168549 0.074785 0.002298
C27   C     C_R   0.993896 0.661932 0.926806 0.004993
C28   C     C_R   0.001366 0.667088 0.075293 0.000165
C29   C     C_R   0.511937 0.272227 0.959839 0.011501
C30   C     C_R   0.509214 0.279345 0.034783 0.026801
C31   C     C_R   0.006541 0.775035 0.961525 0.023000
C32   C     C_R   0.003524 0.779351 0.036551 0.030929
C33   C     C_R   0.486943 0.058987 0.040090 -0.156309
C34   C     C_R   0.483030 0.054836 0.967629 -0.148576
C35   C     C_R   0.990100 0.556933 0.039392 -0.154617
C36   C     C_R   0.986987 0.554227 0.966873 -0.146494
C37   C     C_R   0.531038 0.377548 0.920543 -0.092812
C38   C     C_R   0.512859 0.396982 0.066457 -0.087922
C39   C     C_R   0.021848 0.883886 0.923757 -0.088395
C40   C     C_R   0.002933 0.895658 0.069849 -0.087844
C41   C     C_R   0.025173 0.996470 0.958394 -0.138375
C42   C     C_R   0.013747 0.002707 0.030964 -0.145785
C43   C     C_R   0.538594 0.490825 0.953668 -0.126111
C44   C     C_R   0.527476 0.501102 0.026136 -0.137724
H5    H     H_    0.540741 0.373231 0.864164 0.138105
H6    H     H_    0.501193 0.411674 0.121745 0.137283
H7    H     H_    0.032562 0.883060 0.867534 0.138072
H8    H     H_    0.991252 0.906265 0.125485 0.135377
H9    H     H_    0.035620 0.079380 0.928637 0.109822
H10   H     H_    0.013782 0.090776 0.057379 0.106123
H11   H     H_    0.551831 0.571285 0.922790 0.114577
H12   H     H_    0.530642 0.590060 0.051358 0.104499
C45   C     C_R   0.691909 0.879178 0.037741 -0.137480
C46   C     C_R   0.300393 0.862192 0.961558 -0.136655
C47   C     C_R   0.199248 0.361153 0.039599 -0.138993
C48   C     C_R   0.795877 0.355366 0.960385 -0.140519
H13   H     H_    0.641312 0.862778 0.062881 0.130977
H14   H     H_    0.338006 0.809769 0.930774 0.130164
H15   H     H_    0.146543 0.353949 0.061604 0.127750
H16   H     H_    0.828417 0.295587 0.928277 0.125240
C49   C     C_R   0.697071 0.867337 0.964564 -0.148714
C50   C     C_R   0.297983 0.847613 0.034742 -0.137414
C51   C     C_R   0.209510 0.333198 0.968383 -0.137073
C52   C     C_R   0.793452 0.338898 0.033341 -0.135846
H17   H     H_    0.651706 0.836414 0.934520 0.116883
H18   H     H_    0.331324 0.779062 0.059141 0.133569
H19   H     H_    0.164713 0.303129 0.937280 0.124051
H20   H     H_    0.821815 0.262472 0.056252 0.135946
C53   C     C_R   0.760677 0.896981 0.930849 0.031631
C54   C     C_R   0.249460 0.915875 0.075011 0.028594
C55   C     C_R   0.276154 0.350818 0.937213 0.027282
C56   C     C_R   0.750380 0.415059 0.075179 0.030204
C57   C     C_R   0.819675 0.932396 0.971095 -0.127744
C58   C     C_R   0.206798 0.003252 0.042310 -0.119380
C59   C     C_R   0.333058 0.388778 0.979001 -0.132669
C60   C     C_R   0.714082 0.512537 0.044449 -0.122251
H21   H     H_    0.870371 0.951985 0.947054 0.155482
H22   H     H_    0.169537 0.058058 0.072188 0.137912
H23   H     H_    0.384819 0.401646 0.956028 0.146702
H24   H     H_    0.681282 0.573058 0.075867 0.131347
C61   C     C_R   0.815017 0.941333 0.043368 -0.139259
C62   C     C_R   0.207332 0.014152 0.969928 -0.121926
C63   C     C_R   0.322974 0.416391 0.049866 -0.130619
C64   C     C_R   0.715636 0.527521 0.972110 -0.116422
H25   H     H_    0.860823 0.972783 0.072443 0.133120
H26   H     H_    0.172091 0.080525 0.946480 0.131380
H27   H     H_    0.367133 0.451730 0.079985 0.130196
H28   H     H_    0.686224 0.603083 0.949728 0.134300
C65   C     C_R   0.750642 0.919780 0.076998 0.029375
C66   C     C_R   0.253382 0.943098 0.928739 0.032209
C67   C     C_R   0.255480 0.407469 0.080000 0.028744
C68   C     C_R   0.754729 0.446987 0.929381 0.035440
C69   C     C_R   0.474963 0.062905 0.455657 -0.109810
C70   C     C_R   0.466250 0.059430 0.527888 -0.108518
C71   C     C_R   0.034081 0.559850 0.472263 -0.107818
C72   C     C_R   0.025337 0.563539 0.544495 -0.108093
H29   H     H_    0.464505 0.980423 0.425384 0.170081
H30   H     H_    0.446428 0.975433 0.550944 0.199235
H31   H     H_    0.054192 0.476141 0.449324 0.199013
H32   H     H_    0.036047 0.481417 0.574916 0.171060
C73   C     C_R   0.481949 0.162591 0.569572 0.020435
C74   C     C_R   0.501769 0.168505 0.423716 0.020537
C75   C     C_R   0.998210 0.668824 0.576262 0.020738
C76   C     C_R   0.018053 0.662497 0.430417 0.021113
C77   C     C_R   0.503390 0.271987 0.537309 -0.134910
C78   C     C_R   0.513784 0.274780 0.464327 -0.128555
C79   C     C_R   0.985864 0.774657 0.535472 -0.128604
C80   C     C_R   0.996272 0.771666 0.462496 -0.134500
H33   H     H_    0.513294 0.353650 0.568425 0.137879
H34   H     H_    0.534742 0.357514 0.440460 0.145514
H35   H     H_    0.964633 0.857120 0.559195 0.145564
H36   H     H_    0.986110 0.852978 0.431239 0.137709
C81   C     C_R   0.807409 0.978530 0.464249 -0.178777
C82   C     C_R   0.192873 0.979530 0.535729 -0.169004
C83   C     C_R   0.307541 0.478534 0.464026 -0.168662
C84   C     C_R   0.692445 0.477750 0.535821 -0.178786
H37   H     H_    0.848838 0.031107 0.438685 0.165603
H38   H     H_    0.152344 0.034455 0.560825 0.171269
H39   H     H_    0.348339 0.533048 0.438804 0.170969
H40   H     H_    0.650948 0.529738 0.561424 0.165591
C85   C     C_R   0.808663 0.973195 0.536578 -0.125017
C86   C     C_R   0.191687 0.973030 0.463473 -0.112195
C87   C     C_R   0.308827 0.472158 0.536291 -0.111973
C88   C     C_R   0.691199 0.472495 0.463490 -0.124213
H41   H     H_    0.852783 0.016184 0.563315 0.206122
H42   H     H_    0.148243 0.016864 0.436385 0.219890
H43   H     H_    0.352562 0.515703 0.563284 0.219109
H44   H     H_    0.647034 0.515036 0.436798 0.206289
C89   C     C_R   0.756687 0.908002 0.573327 -0.012987
C90   C     C_R   0.242921 0.906045 0.427167 -0.016474
C91   C     C_R   0.257234 0.405768 0.572739 -0.017896
C92   C     C_R   0.743250 0.407986 0.426691 -0.012222
C93   C     C_R   0.702276 0.849029 0.536105 -0.118821
C94   C     C_R   0.295750 0.844122 0.464951 -0.135591
C95   C     C_R   0.204014 0.344141 0.535085 -0.136599
C96   C     C_R   0.797749 0.349733 0.463858 -0.118922
H45   H     H_    0.664038 0.792976 0.564065 0.167858
H46   H     H_    0.332901 0.785830 0.437302 0.167123
H47   H     H_    0.166582 0.286238 0.562856 0.167002
H48   H     H_    0.836070 0.294221 0.435885 0.167522
C97   C     C_R   0.699761 0.855079 0.462192 0.201310
C98   C     C_R   0.297601 0.849787 0.538975 0.184816
C99   C     C_R   0.202048 0.349699 0.461053 0.185175
C100  C     C_R   0.800297 0.355799 0.537757 0.200824
C101  C     C_R   0.751856 0.924749 0.426162 0.013167
C102  C     C_R   0.247231 0.923619 0.574293 0.012455
C103  C     C_R   0.252736 0.423152 0.425609 0.013154
C104  C     C_R   0.748098 0.424726 0.573852 0.012611
N1    N     N_R   0.645944 0.787811 0.425025 0.075019
O53   O     O_R   0.661521 0.728574 0.367272 -0.348898
O54   O     O_R   0.584296 0.770634 0.453975 -0.346384
N2    N     N_R   0.348180 0.776894 0.577020 0.061537
O55   O     O_R   0.330522 0.725099 0.636580 -0.336373
O56   O     O_R   0.407359 0.745417 0.547047 -0.372545
N3    N     N_R   0.150996 0.277134 0.423132 0.061184
O57   O     O_R   0.168160 0.225567 0.363404 -0.343151
O58   O     O_R   0.091846 0.245643 0.453345 -0.371625
N4    N     N_R   0.854344 0.289479 0.574835 0.075173
O59   O     O_R   0.916274 0.274579 0.546126 -0.345007
O60   O     O_R   0.838924 0.229211 0.632321 -0.346606

loop_
_geom_bond_atom_site_label_1
_geom_bond_atom_site_label_2
_geom_bond_distance
_ccdc_geom_bond_type
C18   O42   1.257235 A    
C99   C103  1.416268 A    
O4    C12   1.258417 A    
C71   C72   1.374475 A    
O47   Cr11  1.951847 S    
C33   C34   1.371247 A    
O39   C19   1.272145 A    
O20   Cr12  2.071140 S    
H4    C36   1.083516 S    
C58   H22   1.083894 S    
C71   H31   1.080718 S    
N3    O57   1.301665 A    
C23   C103  1.457602 S    
C40   H8    1.079699 S    
C60   H24   1.083912 S    
O1    Cr1   2.065766 S    
C42   H10   1.082521 S    
N2    O56   1.301741 A    
C29   C30   1.418298 A    
O48   Cr12  1.950027 S    
C57   C61   1.371093 A    
O32   C16   1.269461 A    
C38   C44   1.394411 A    
C77   C78   1.392308 A    
C13   C92   1.451092 S    
O7    C3    1.269349 A    
C80   H36   1.083276 S    
O5    C1    1.267069 A    
C38   H6    1.078995 S    
C69   H29   1.083999 S    
C88   H44   1.082607 S    
C37   H5    1.081237 S    
C3    C54   1.449527 S    
C87   C91   1.395505 A    
O25   C21   1.264905 A    
O30   C14   1.268502 A    
C1    C56   1.448598 S    
C27   C31   1.417198 A    
C64   C68   1.404562 A    
C84   C104  1.402212 A    
O47   C23   1.272377 A    
C5    C26   1.469185 S    
C26   C30   1.430500 A    
O21   C9    1.265195 A    
O8    Cr4   1.951840 S    
O23   Cr11  1.947445 S    
C7    C28   1.469524 S    
C48   C52   1.390107 A    
C43   H11   1.082475 S    
C82   H38   1.083552 S    
O32   Cr4   1.944908 S    
C1    O9    1.267178 A    
O44   Cr12  2.065595 S    
C61   H25   1.082275 S    
C70   H30   1.080709 S    
C52   H20   1.083378 S    
C3    O11   1.265614 A    
C64   H28   1.082282 S    
C100  C104  1.417468 A    
C26   C33   1.394336 A    
O28   Cr4   2.070831 S    
C90   C94   1.404163 A    
C62   H26   1.081191 S    
C84   C88   1.367391 A    
C15   C90   1.451626 S    
C89   C93   1.402894 A    
O27   Cr3   2.071846 S    
O3    Cr3   2.065766 S    
Cr4   O52   1.971853 S    
H1    C33   1.084018 S    
O2    Cr2   2.064763 S    
O14   Cr6   1.950422 S    
C48   H16   1.083373 S    
C100  N4    1.437689 S    
Cr6   O50   1.967897 S    
C59   C63   1.384826 A    
C37   C43   1.392170 A    
Cr5   O49   1.972346 S    
O18   Cr10  2.071140 S    
C45   C65   1.407999 A    
C78   H34   1.083020 S    
C98   C102  1.416226 A    
C91   C95   1.404177 A    
C39   C41   1.392818 A    
C95   C99   1.399935 A    
C50   H18   1.083227 S    
C81   C85   1.367392 A    
C94   C98   1.399783 A    
C4    O12   1.254849 A    
O34   Cr6   2.068493 S    
C93   C97   1.398271 A    
N2    O55   1.301647 A    
C9    C65   1.448281 S    
O6    Cr2   1.951840 S    
C84   H40   1.083625 S    
C7    O19   1.276105 A    
O31   Cr3   1.945328 S    
O24   Cr12  1.945582 S    
O16   Cr8   1.950422 S    
O9    Cr5   2.068925 S    
C32   C40   1.416125 A    
O30   Cr2   1.944908 S    
O22   C10   1.272597 A    
C41   H9    1.082483 S    
C22   C102  1.457478 S    
C96   H48   1.083353 S    
C72   H32   1.083980 S    
C18   C73   1.451925 S    
C21   C101  1.457474 S    
O37   C17   1.266216 A    
C54   C58   1.395669 A    
C98   N2    1.439303 S    
C45   C49   1.391287 A    
C44   H12   1.082581 S    
C81   H37   1.083615 S    
C88   C92   1.396972 A    
C15   O35   1.262786 A    
O26   Cr2   2.070831 S    
N1    O53   1.301632 A    
Cr10  O50   1.972784 S    
C75   C79   1.408134 A    
C97   C101  1.417105 A    
O40   C20   1.266874 A    
O43   Cr11  2.067069 S    
O48   C24   1.272263 A    
O12   Cr8   2.071346 S    
C63   C67   1.401572 A    
C46   H14   1.083226 S    
O15   C7    1.265245 A    
C45   H13   1.083229 S    
C83   H39   1.083560 S    
C92   C96   1.402453 A    
O46   Cr10  1.950027 S    
O39   Cr7   1.948418 S    
O3    C11   1.264772 A    
C25   C29   1.412909 A    
C47   H15   1.083279 S    
C31   C32   1.418699 A    
C13   O33   1.261731 A    
O40   Cr8   1.950659 S    
O8    C4    1.272988 A    
C99   N3    1.439435 S    
C96   C100  1.398014 A    
C83   C103  1.402561 A    
O13   Cr5   1.948121 S    
Cr12  O52   1.972784 S    
C46   C66   1.400402 A    
C55   C59   1.398336 A    
O7    Cr3   1.952278 S    
Cr2   O50   1.971853 S    
O15   Cr7   1.948121 S    
C71   C76   1.404602 A    
O35   Cr7   2.066001 S    
Cr1   O49   1.971753 S    
C40   C42   1.394018 A    
Cr7   O51   1.972346 S    
C95   H47   1.083151 S    
C69   C74   1.394550 A    
C10   C66   1.450637 S    
Cr3   O51   1.971753 S    
O26   C22   1.265464 A    
C24   C104  1.457401 S    
O21   Cr9   1.947445 S    
C59   H23   1.080239 S    
C12   C68   1.448559 S    
N4    O60   1.301633 A    
C53   C57   1.405388 A    
C94   H46   1.083180 S    
O37   Cr5   1.948418 S    
C6    C25   1.464980 S    
C49   H17   1.083266 S    
C8    C27   1.467135 S    
N1    O54   1.301563 A    
C2    C55   1.461800 S    
C19   C76   1.451805 S    
C50   C54   1.406714 A    
O24   C12   1.271913 A    
C69   C70   1.374295 A    
C27   C36   1.403242 A    
C86   C90   1.395448 A    
C17   C74   1.450567 S    
O38   C18   1.272898 A    
O25   Cr1   2.071846 S    
C85   C89   1.396721 A    
C5    O17   1.278605 A    
O1    C9    1.265994 A    
O29   C13   1.271607 A    
O22   Cr10  1.945582 S    
O28   C24   1.266696 A    
C43   C44   1.388956 A    
C47   C51   1.392534 A    
O14   C6    1.276356 A    
C20   C75   1.450598 S    
C19   O43   1.257018 A    
C4    C53   1.450000 S    
O5    Cr1   1.952278 S    
C8    O20   1.266170 A    
H3    C35   1.083916 S    
O31   C15   1.270407 A    
O17   Cr9   2.072558 S    
C83   C87   1.366724 A    
Cr11  O51   1.968431 S    
O6    C2    1.299218 A    
C79   H35   1.083044 S    
N3    O58   1.301760 A    
C17   O41   1.266091 A    
C74   C78   1.408237 A    
O11   Cr7   2.068925 S    
C52   C56   1.407714 A    
C46   C50   1.391858 A    
C31   C39   1.414385 A    
C14   O34   1.260925 A    
C51   H19   1.082633 S    
C63   H27   1.082126 S    
C30   C38   1.417397 A    
C16   C89   1.451109 S    
C20   O44   1.266375 A    
C97   N1    1.437984 S    
C58   C62   1.372104 A    
H2    C34   1.083487 S    
C56   C60   1.394580 A    
C29   C37   1.413786 A    
Cr8   O52   1.967897 S    
C79   C80   1.392284 A    
O41   Cr9   2.067069 S    
C41   C42   1.388852 A    
C73   C77   1.398967 A    
O2    C10   1.259530 A    
C14   C91   1.451745 S    
O46   C22   1.273673 A    
C70   C73   1.404789 A    
C47   C67   1.403812 A    
O45   C21   1.271227 A    
C28   C32   1.427045 A    
O19   Cr11  2.072558 S    
C57   H21   1.082230 S    
O33   Cr5   2.066001 S    
C39   H7    1.080740 S    
O23   C11   1.272718 A    
O10   Cr6   2.071346 S    
O42   Cr10  2.065595 S    
C87   H43   1.081909 S    
O4    Cr4   2.064763 S    
C11   C67   1.461837 S    
C51   C55   1.404626 A    
C86   H42   1.081801 S    
C48   C68   1.397928 A    
O29   Cr1   1.945328 S    
C85   H41   1.082593 S    
C16   O36   1.260137 A    
C49   C53   1.398850 A    
C25   C34   1.404358 A    
C60   C64   1.376116 A    
N4    O59   1.301944 A    
C6    O18   1.262502 A    
C28   C35   1.395795 A    
C35   C36   1.371152 A    
C82   C102  1.402560 A    
C93   H45   1.083416 S    
O45   Cr9   1.951847 S    
C72   C75   1.394702 A    
C81   C101  1.402511 A    
C82   C86   1.366586 A    
C77   H33   1.083280 S    
O36   Cr8   2.068493 S    
C61   C65   1.393274 A    
O16   C8    1.273979 A    
C62   C66   1.402866 A    
Cr9   O49   1.968431 S    
C76   C80   1.399020 A    
C2    O10   1.295218 A    
O38   Cr6   1.950659 S    
O27   C23   1.264079 A    
O13   C5    1.262053 A    
