data_mof_unit_24124.cif
_audit_creation_date              2012-12-11T14:42:00-0500
_audit_creation_method            fapswitch 2.2
_symmetry_space_group_name_H-M    P1
_symmetry_Int_Tables_number       1
_space_group_crystal_system       triclinic
_cell_length_a                    18.971926
_cell_length_b                    10.943404
_cell_length_c                    18.846983
_cell_angle_alpha                 90.243204
_cell_angle_beta                  90.397039
_cell_angle_gamma                 89.6214
_cell_volume                      3912.74869746

loop_
_atom_site_label
_atom_site_type_symbol
_atom_type_description
_atom_site_fract_x
_atom_site_fract_y
_atom_site_fract_z
_atom_type_partial_charge
C1    C     C_R   0.728122 0.953818 0.852610 0.562308
C2    C     C_R   0.246646 0.417310 0.924557 0.034588
C3    C     C_R   0.277474 0.980580 0.063139 0.014375
C4    C     C_R   0.750280 0.906809 0.921500 0.049149
C5    C     C_R   0.792250 0.313148 0.046548 -0.083136
C6    C     C_R   0.201868 0.336249 0.958677 -0.086845
C7    C     C_R   0.333179 0.942375 0.020299 -0.126954
C8    C     C_R   0.706441 0.823661 0.955380 -0.053494
C9    C     C_R   0.782619 0.284451 0.975747 -0.107135
C10   C     C_R   0.204534 0.325869 0.031097 -0.104897
C11   C     C_R   0.321762 0.917279 0.949109 -0.113604
C12   C     C_R   0.290733 0.001427 0.138805 0.548312
C13   C     C_R   0.709649 0.812018 0.028005 -0.076023
C14   C     C_R   0.728797 0.340444 0.936182 0.012239
C15   C     C_R   0.255047 0.390388 0.071003 0.024178
C16   C     C_R   0.253664 0.927025 0.919868 0.020889
C17   C     C_R   0.759233 0.878511 0.067983 0.024660
C18   C     C_R   0.544396 0.267338 0.524599 0.366736
C19   C     C_R   0.537974 0.259636 0.452404 0.402513
C20   C     C_R   0.044403 0.767318 0.524604 0.367578
C21   C     C_R   0.037973 0.759617 0.452410 0.402798
C22   C     C_R   0.503017 0.160629 0.422747 0.008740
C23   C     C_R   0.227266 0.456270 0.853587 0.562631
C24   C     C_R   0.519624 0.171743 0.567631 -0.041994
C25   C     C_R   0.002992 0.660630 0.422758 0.009021
C26   C     C_R   0.019607 0.671747 0.567640 -0.039362
C27   C     C_R   0.483016 0.060669 0.464664 -0.159292
C28   C     C_R   0.491620 0.066253 0.537363 -0.227151
C29   C     C_R   0.982960 0.560696 0.464680 -0.159926
C30   C     C_R   0.991569 0.566282 0.537378 -0.226543
C31   C     C_R   0.785283 0.305577 0.526369 0.355762
C32   C     C_R   0.187332 0.424680 0.454557 0.347120
C33   C     C_R   0.285294 0.805607 0.526380 0.356803
C34   C     C_R   0.772439 0.454304 0.146619 0.557374
C35   C     C_R   0.687320 0.924559 0.454569 0.346820
C36   C     C_R   0.786308 0.322614 0.454122 -0.104044
C37   C     C_R   0.180439 0.436731 0.527006 -0.126938
C38   C     C_R   0.286320 0.822648 0.454135 -0.104293
C39   C     C_R   0.680434 0.936582 0.527020 -0.127181
C40   C     C_R   0.553454 0.181008 0.858714 0.572981
C41   C     C_R   0.472986 0.177543 0.151497 0.584171
C42   C     C_R   0.029868 0.677762 0.850643 0.595791
C43   C     C_R   0.969996 0.677019 0.149270 0.596881
C44   C     C_R   0.749413 0.419877 0.423577 -0.008987
C45   C     C_R   0.691878 0.451287 0.041224 -0.079438
C46   C     C_R   0.239768 0.430602 0.572262 0.003456
C47   C     C_R   0.249429 0.919917 0.423591 -0.011207
C48   C     C_R   0.739776 0.930582 0.572265 0.003468
C49   C     C_R   0.705711 0.496241 0.466902 0.009259
C50   C     C_R   0.307842 0.416725 0.543714 0.010730
C51   C     C_R   0.205739 0.996296 0.466919 0.008183
C52   C     C_R   0.807854 0.916838 0.543705 0.011112
C53   C     C_R   0.707660 0.481091 0.540192 -0.155575
C54   C     C_R   0.314164 0.406820 0.470240 -0.203629
C55   C     C_R   0.207687 0.981142 0.540209 -0.155385
C56   C     C_R   0.298913 0.479742 0.963444 -0.087257
C57   C     C_R   0.814166 0.906959 0.470226 -0.203824
C58   C     C_R   0.746756 0.386360 0.570089 0.028802
C59   C     C_R   0.253999 0.406526 0.426004 0.019236
C60   C     C_R   0.246772 0.886395 0.570101 0.031584
C61   C     C_R   0.753992 0.906543 0.426002 0.018513
C62   C     C_R   0.724341 0.313744 0.860097 0.531301
C63   C     C_R   0.262712 0.359044 0.145474 0.542678
C64   C     C_R   0.238961 0.866358 0.852140 0.540707
C65   C     C_R   0.764333 0.853616 0.143703 0.550053
C66   C     C_R   0.726860 0.957122 0.646568 0.602208
C67   C     C_R   0.210518 0.001056 0.032603 -0.104155
C68   C     C_R   0.271480 0.956332 0.352750 0.558690
C69   C     C_R   0.226859 0.457128 0.646566 0.599774
C70   C     C_R   0.771475 0.456318 0.352745 0.546310
C71   C     C_R   0.533884 0.177173 0.642326 0.592771
C72   C     C_R   0.471400 0.174944 0.354123 0.580435
C73   C     C_R   0.033876 0.677173 0.642330 0.583907
C74   C     C_R   0.971393 0.674945 0.354127 0.580968
C75   C     C_R   0.738402 0.356902 0.644467 0.581331
C76   C     C_R   0.261176 0.362168 0.353857 0.575908
C77   C     C_R   0.238409 0.856923 0.644474 0.570432
C78   C     C_R   0.805010 0.963220 0.959734 -0.090907
C79   C     C_R   0.761174 0.862174 0.353856 0.574665
C80   C     C_2   0.524229 0.170704 0.929923 0.372345
C81   C     C_2   0.517053 0.171912 0.088289 0.383107
C82   C     C_2   0.995269 0.667937 0.919342 0.374895
C83   C     C_2   0.003767 0.665601 0.080196 0.376592
C84   C     C_2   0.521634 0.071701 0.047447 0.376549
C85   C     C_2   0.545376 0.079649 0.973498 0.372760
C86   C     C_2   0.987021 0.572511 0.036202 0.399705
C87   C     C_2   0.008910 0.572015 0.962124 0.403800
C88   C     C_R   0.681233 0.419981 0.970073 -0.093798
C89   C     C_R   0.749362 0.401545 0.078932 0.034313
C90   C     C_R   0.303572 0.465185 0.036687 -0.097285
C91   C     C_R   0.198591 0.973831 0.961261 -0.114334
C92   C     C_R   0.809233 0.949841 0.033147 -0.107003
C93   C     C_2   0.656995 0.592629 0.440446 0.358039
C94   C     C_2   0.372879 0.406079 0.587539 0.281193
C95   C     C_2   0.157033 0.092699 0.440467 0.357111
C96   C     C_2   0.872911 0.906310 0.587514 0.281612
Cr1   Cr    Cr6+3 0.769270 0.163730 0.750710 1.108518
Cr2   Cr    Cr6+3 0.385840 0.322500 0.252290 1.094051
Cr3   Cr    Cr6+3 0.114160 0.822500 0.747710 1.105415
Cr4   Cr    Cr6+3 0.885840 0.822500 0.252290 1.093209
Cr5   Cr    Cr6+3 0.230730 0.163730 0.249290 1.116699
Cr6   Cr    Cr6+3 0.269270 0.663730 0.750710 1.113640
Cr7   Cr    Cr6+3 0.730730 0.663730 0.249290 1.125456
Cr8   Cr    Cr6+3 0.612620 0.009790 0.748780 1.065315
Cr9   Cr    Cr6+3 0.387380 0.009790 0.251220 1.093579
Cr10  Cr    Cr6+3 0.112620 0.509790 0.748780 1.081753
Cr11  Cr    Cr6+3 0.887380 0.509790 0.251220 1.096683
Cr12  Cr    Cr6+3 0.614160 0.322500 0.747710 1.098023
F1    F     F_    0.505855 0.959789 0.073753 -0.640067
F2    F     F_    0.560818 0.353306 0.411815 -0.554791
F3    F     F_    0.073792 0.869890 0.552008 -0.604455
F4    F     F_    0.060842 0.853264 0.411817 -0.553599
F5    F     F_    0.821561 0.208365 0.552871 -0.617303
F6    F     F_    0.128804 0.426713 0.412662 -0.614026
F7    F     F_    0.321562 0.708380 0.552878 -0.617000
F8    F     F_    0.628782 0.926477 0.412690 -0.612938
F9    F     F_    0.587214 0.988186 0.948939 -0.646643
F10   F     F_    0.948765 0.475429 0.058609 -0.626291
F11   F     F_    0.043971 0.471044 0.938518 -0.627247
F12   F     F_    0.547165 0.278184 0.066795 -0.626776
F13   F     F_    0.476808 0.256879 0.951594 -0.620393
F14   F     F_    0.044622 0.759299 0.057390 -0.627186
F15   F     F_    0.956837 0.765160 0.943203 -0.633510
F16   F     F_    0.573746 0.369939 0.552009 -0.605160
H1    H     H_    0.818737 0.262064 0.422214 0.170151
H2    H     H_    0.344206 0.512700 0.066304 0.159711
H3    H     H_    0.145643 0.982175 0.939887 0.166712
H4    H     H_    0.850511 0.996180 0.062485 0.150905
H5    H     H_    0.657538 0.518716 0.065444 0.153432
H6    H     H_    0.333948 0.543464 0.937907 0.156768
H7    H     H_    0.166647 0.032865 0.064295 0.164133
H8    H     H_    0.842136 0.021993 0.933443 0.148845
H9    H     H_    0.836415 0.271836 0.074442 0.170829
H10   H     H_    0.161558 0.286106 0.930033 0.174661
H11   H     H_    0.385070 0.928052 0.042463 0.206978
H12   H     H_    0.128038 0.451964 0.547800 0.165189
H13   H     H_    0.665542 0.775037 0.926705 0.170348
H14   H     H_    0.819617 0.222497 0.951058 0.138655
H15   H     H_    0.167319 0.264532 0.055398 0.154633
H16   H     H_    0.365522 0.882791 0.918103 0.159918
H17   H     H_    0.672738 0.750473 0.052622 0.155675
H18   H     H_    0.456143 0.982377 0.442134 0.187952
H19   H     H_    0.474857 0.990481 0.569858 0.168862
H20   H     H_    0.956064 0.482425 0.442155 0.187851
H21   H     H_    0.974784 0.490531 0.569879 0.169558
H22   H     H_    0.649026 0.674868 0.471775 0.095384
H23   H     H_    0.318743 0.762089 0.422226 0.171562
H24   H     H_    0.423825 0.420461 0.563262 0.156088
H25   H     H_    0.149093 0.174960 0.471783 0.095151
H26   H     H_    0.923845 0.920656 0.563204 0.155965
H27   H     H_    0.628026 0.951697 0.547820 0.165241
H28   H     H_    0.675910 0.539768 0.574004 0.157891
H29   H     H_    0.365941 0.390144 0.448012 0.145466
H30   H     H_    0.175941 0.039824 0.574023 0.157320
H31   H     H_    0.865949 0.890399 0.447985 0.145333
H32   H     H_    0.638058 0.462021 0.941059 0.160964
O1    O     O_R   0.784320 0.290430 0.830510 -0.500417
O2    O     O_R   0.456080 0.282180 0.333210 -0.455543
O3    O     O_R   0.043920 0.782180 0.666790 -0.425917
O4    O     O_R   0.956080 0.782180 0.333210 -0.455572
O5    O     O_R   0.679040 0.374160 0.674430 -0.476247
O6    O     O_R   0.320960 0.374160 0.325570 -0.517862
O7    O     O_R   0.179040 0.874160 0.674430 -0.482727
O8    O     O_R   0.820960 0.874160 0.325570 -0.520857
O9    O     O_3   0.665350 0.165340 0.749070 -0.327379
O10   O     O_3   0.334650 0.165340 0.250930 -0.322295
O11   O     O_3   0.165350 0.665340 0.749070 -0.296285
O12   O     O_R   0.215680 0.290430 0.169490 -0.520748
O13   O     O_3   0.834650 0.665340 0.250930 -0.303300
O14   O     O_R   0.762640 0.040960 0.825200 -0.527457
O15   O     O_R   0.237360 0.040960 0.174800 -0.493412
O16   O     O_R   0.262640 0.540960 0.825200 -0.502724
O17   O     O_R   0.737360 0.540960 0.174800 -0.507876
O18   O     O_R   0.667400 0.923970 0.829950 -0.471828
O19   O     O_R   0.332600 0.923970 0.170050 -0.477194
O20   O     O_R   0.167400 0.423970 0.829950 -0.479633
O21   O     O_R   0.832600 0.423970 0.170050 -0.474166
O22   O     O_R   0.553960 0.081340 0.821780 -0.475085
O23   O     O_R   0.284320 0.790430 0.830510 -0.524330
O24   O     O_R   0.446040 0.081340 0.178220 -0.494029
O25   O     O_R   0.053960 0.581340 0.821780 -0.470487
O26   O     O_R   0.946040 0.581340 0.178220 -0.469429
O27   O     O_R   0.543180 0.283240 0.826740 -0.471540
O28   O     O_R   0.456820 0.283240 0.173260 -0.460037
O29   O     O_R   0.043180 0.783240 0.826740 -0.474634
O30   O     O_R   0.956820 0.783240 0.173260 -0.469665
O31   O     O_R   0.678360 0.375140 0.822710 -0.518021
O32   O     O_R   0.321640 0.375140 0.177290 -0.499766
O33   O     O_R   0.178360 0.875140 0.822710 -0.508251
O34   O     O_R   0.715680 0.790430 0.169490 -0.501795
O35   O     O_R   0.821640 0.875140 0.177290 -0.505822
O36   O     O_R   0.785050 0.289380 0.670560 -0.442041
O37   O     O_R   0.214950 0.289380 0.329440 -0.441503
O38   O     O_R   0.285050 0.789380 0.670560 -0.449700
O39   O     O_R   0.714950 0.789380 0.329440 -0.439462
O40   O     O_R   0.763320 0.039990 0.676930 -0.418692
O41   O     O_R   0.236680 0.039990 0.323070 -0.450504
O42   O     O_R   0.263320 0.539990 0.676930 -0.420304
O43   O     O_R   0.736680 0.539990 0.323070 -0.456523
O44   O     O_R   0.668130 0.922920 0.670000 -0.541457
O45   O     O_R   0.554640 0.080370 0.673500 -0.518264
O46   O     O_R   0.331870 0.922920 0.330000 -0.523832
O47   O     O_R   0.168130 0.422920 0.670000 -0.542294
O48   O     O_R   0.831870 0.422920 0.330000 -0.532366
O49   O     O_2   0.621035 0.577536 0.387229 -0.361310
O50   O     O_2   0.370914 0.377017 0.649946 -0.487945
O51   O     O_2   0.121048 0.077595 0.387267 -0.361542
O52   O     O_2   0.870979 0.877377 0.649943 -0.489460
O53   O     O_R   0.445360 0.080370 0.326500 -0.508487
O54   O     O_R   0.054640 0.580370 0.673500 -0.524154
O55   O     O_R   0.945360 0.580370 0.326500 -0.511553
O56   O     O_R   0.543920 0.282180 0.666790 -0.420685

loop_
_geom_bond_atom_site_label_1
_geom_bond_atom_site_label_2
_ccdc_geom_bond_type
C44   C49   A    
C77   O7    A    
C55   H30   S    
Cr12  O9    S    
C45   H5    S    
Cr6   O11   S    
Cr3   O3    S    
C43   C83   S    
C47   C68   S    
Cr12  O31   S    
C76   O6    A    
C36   H1    S    
C94   O50   D    
Cr8   O18   S    
C79   O8    A    
C4    C8    A    
C93   O49   D    
C27   H18   S    
C54   H29   S    
C64   O33   A    
C52   C96   S    
C72   O2    A    
Cr1   O9    S    
Cr8   O45   S    
C5    H9    S    
C57   H31   S    
C81   F12   S    
C8    C13   A    
C91   H3    S    
C18   C24   A    
C88   H32   S    
Cr1   O40   S    
C18   C19   A    
C3    C7    A    
C10   C15   A    
Cr6   O42   S    
Cr5   O41   S    
C96   O52   D    
Cr11  O55   S    
C82   C87   D    
C14   C62   S    
C39   H27   S    
C1    O14   A    
Cr7   O17   S    
C26   C73   S    
C79   O39   A    
Cr9   O10   S    
C25   C29   A    
C25   C74   S    
C11   C16   A    
C78   H8    S    
C46   C69   S    
Cr2   O32   S    
C3    C12   S    
C41   O24   A    
Cr2   O6    S    
Cr10  O47   S    
C71   O56   A    
Cr1   O36   S    
Cr8   O22   S    
C23   O16   A    
Cr2   O2    S    
C42   C82   S    
C53   H28   S    
C40   C80   S    
C41   O28   A    
C44   C70   S    
C95   H25   S    
C13   H17   S    
C5    C89   A    
C29   C30   A    
C45   C89   A    
C80   F13   S    
C40   O27   A    
C46   C50   A    
C56   C90   A    
Cr8   O9    S    
C41   C81   S    
C55   C60   A    
Cr11  O21   S    
C94   H24   S    
Cr6   O23   S    
Cr8   O44   S    
C87   F11   S    
C2    C6    A    
C17   C92   A    
Cr7   O39   S    
C92   H4    S    
C22   C72   S    
Cr12  O56   S    
C95   O51   D    
Cr5   O37   S    
C58   C75   S    
C7    C11   A    
C12   O15   A    
Cr3   O11   S    
C54   C59   A    
C42   O25   A    
Cr6   O16   S    
C60   C77   S    
C67   H7    S    
C1    O18   A    
C33   F7    S    
Cr11  O26   S    
C68   O46   A    
C65   O35   A    
C73   O54   A    
C93   H22   S    
C19   C22   A    
C84   C85   S    
C35   C61   A    
C76   O37   A    
Cr3   O33   S    
C64   O23   A    
C86   C87   S    
C50   C94   S    
C47   C51   A    
C23   O20   A    
C43   O30   A    
C78   C92   A    
C29   H20   S    
Cr1   O14   S    
C8    H13   S    
Cr1   O1    S    
Cr5   O12   S    
C35   C39   A    
C11   H16   S    
Cr10  O25   S    
C5    C9    A    
C80   C85   D    
C20   F3    S    
C9    H14   S    
Cr4   O4    S    
C72   O53   A    
C96   H26   S    
C45   C88   A    
C67   C91   A    
C48   C66   S    
C90   H2    S    
C62   O1    A    
C28   H19   S    
C35   F8    S    
Cr4   O8    S    
Cr7   O34   S    
C50   C54   A    
C32   C37   A    
C65   O34   A    
C85   F9    S    
C15   C63   S    
C38   C47   A    
Cr2   O10   S    
C16   C91   A    
C12   O19   A    
Cr3   O7    S    
C42   O29   A    
C63   O12   A    
C69   O47   A    
C33   C60   A    
C22   C27   A    
C86   F10   S    
C74   O55   A    
C69   O42   A    
C40   O22   A    
C36   C44   A    
Cr4   O35   S    
C10   H15   S    
Cr9   O53   S    
C52   C57   A    
C82   F15   S    
Cr3   O29   S    
C81   C84   D    
C31   C58   A    
C30   H21   S    
Cr7   O13   S    
Cr11  O13   S    
C19   F2    S    
C71   O45   A    
C21   C25   A    
C37   H12   S    
Cr12  O27   S    
Cr4   O13   S    
C3    C67   A    
C24   C28   A    
C84   F1    S    
C39   C48   A    
C6    C10   A    
C66   O40   A    
C53   C58   A    
C57   C61   A    
C13   C17   A    
C4    C78   A    
Cr12  O5    S    
C73   O3    A    
C43   O26   A    
C17   C65   S    
C33   C38   A    
Cr9   O24   S    
C74   O4    A    
Cr4   O30   S    
C75   O5    A    
C1    C4    S    
C49   C93   S    
C21   F4    S    
C75   O36   A    
C34   C89   S    
C14   C88   A    
Cr11  O48   S    
C6    H10   S    
C77   O38   A    
C2    C56   A    
Cr10  O11   S    
C15   C90   A    
Cr9   O46   S    
C20   C26   A    
C61   C79   S    
C49   C53   A    
Cr7   O43   S    
C9    C14   A    
Cr5   O15   S    
C51   C55   A    
C83   F14   S    
Cr2   O28   S    
Cr5   O10   S    
C66   O44   A    
C38   H23   S    
C7    H11   S    
Cr6   O38   S    
C48   C52   A    
C83   C86   D    
C20   C21   A    
C70   O48   A    
C63   O32   A    
Cr9   O19   S    
C18   F16   S    
C2    C23   S    
C34   O17   A    
C70   O43   A    
Cr10  O20   S    
C31   C36   A    
C68   O41   A    
C34   O21   A    
C16   C64   S    
C32   C59   A    
C32   F6    S    
C37   C46   A    
C59   C76   S    
C31   F5    S    
C56   H6    S    
C24   C71   S    
C51   C95   S    
C62   O31   A    
C27   C28   A    
C26   C30   A    
Cr10  O54   S    
