data_mof_unit_42123.cif
_audit_creation_date              2012-12-10T17:10:22-0500
_audit_creation_method            fapswitch 2.2
_symmetry_space_group_name_H-M    P1
_symmetry_Int_Tables_number       1
_space_group_crystal_system       triclinic
_cell_length_a                    15.720871
_cell_length_b                    10.631928
_cell_length_c                    10.077702
_cell_angle_alpha                 89.548386
_cell_angle_beta                  90.747876
_cell_angle_gamma                 90.247886
_cell_volume                      1684.20820644

loop_
_atom_site_label
_atom_site_type_symbol
_atom_type_description
_atom_site_fract_x
_atom_site_fract_y
_atom_site_fract_z
_atom_type_partial_charge
C1    C     C_R   0.509188 0.263503 0.500707 0.955612
C2    C     C_2   0.502247 0.870841 0.496257 -0.287429
C3    C     C_2   0.556902 0.066194 0.400933 -0.005272
C4    C     C_R   0.338123 0.499993 0.499128 0.893975
C5    C     C_2   0.530716 0.132859 0.505660 -0.395773
C6    C     C_2   0.556199 0.558914 0.929004 -0.063650
C7    C     C_2   0.545895 0.576096 0.076117 -0.095999
C8    C     C_R   0.499907 0.737651 0.499304 0.934602
C9    C     C_R   0.661855 0.499989 0.500947 0.909540
C10   C     C_3   0.974160 0.392421 0.560945 -0.005349
C11   C     C_3   0.026090 0.402309 0.432810 0.055326
C12   C     C_3   0.083078 0.501784 0.499144 0.024191
C13   C     C_1   0.249278 0.500800 0.497061 -0.119736
C14   C     C_1   0.750639 0.499287 0.503742 -0.105480
C15   C     C_3   0.031563 0.492156 0.628163 0.019702
C16   C     C_3   0.060068 0.292786 0.351771 -0.417265
C17   C     C_3   0.987729 0.215773 0.288603 -0.335758
C18   C     C_3   0.022583 0.110197 0.203553 -0.778452
C19   C     C_2   0.635779 0.609217 0.873642 0.975426
C20   C     C_2   0.415025 0.487741 0.894453 1.026402
C21   C     C_2   0.945126 0.271919 0.624459 0.869006
C22   C     C_2   0.052971 0.726658 0.378601 0.890781
C23   C     C_3   0.973368 0.599099 0.575018 0.053988
C24   C     C_3   0.935120 0.709876 0.649868 -0.423287
C25   C     C_3   0.003367 0.797594 0.708104 -0.344730
C26   C     C_3   0.962966 0.903255 0.786709 -0.770840
C27   C     C_3   0.076402 0.477502 0.763381 -0.407581
C28   C     C_3   0.013979 0.471969 0.878617 -0.323860
C29   C     C_3   0.061382 0.454342 0.010315 -0.852765
C30   C     C_2   0.591867 0.123391 0.277883 0.957324
C31   C     C_3   0.916719 0.498761 0.508053 0.036424
C32   C     C_3   0.025285 0.607650 0.446432 -0.004688
C33   C     C_3   0.967647 0.508369 0.378733 -0.268498
C34   C     C_1   0.174037 0.501523 0.496513 0.004907
C35   C     C_1   0.825853 0.498732 0.506638 0.031463
C36   C     C_2   0.553316 0.929310 0.410013 -0.190283
H1    H     H_    0.523142 0.089205 0.602446 0.176207
H2    H     H_    0.947460 0.173797 0.367264 0.250468
H3    H     H_    0.947067 0.277538 0.225205 0.225669
H4    H     H_    0.101791 0.331355 0.273075 0.212461
H5    H     H_    0.099132 0.231442 0.418069 0.227480
H6    H     H_    0.692318 0.733882 0.751156 0.323999
H7    H     H_    0.310818 0.376813 0.901214 0.327528
H8    H     H_    0.846957 0.165050 0.686736 0.342307
H9    H     H_    0.149801 0.835292 0.314869 0.342191
H10   H     H_    0.919241 0.958620 0.721833 0.271314
H11   H     H_    0.926854 0.863903 0.871603 0.252719
H12   H     H_    0.581046 0.651093 0.124937 0.164848
H13   H     H_    0.013403 0.966788 0.825997 0.272695
H14   H     H_    0.046708 0.744631 0.775455 0.227157
H15   H     H_    0.041667 0.839570 0.627097 0.248274
H16   H     H_    0.893886 0.763997 0.579765 0.225587
H17   H     H_    0.894127 0.672523 0.730094 0.210964
H18   H     H_    0.098466 0.365665 0.010040 0.261433
H19   H     H_    0.105104 0.534863 0.028811 0.277201
H20   H     H_    0.014865 0.449324 0.091721 0.248365
H21   H     H_    0.977044 0.560344 0.883045 0.234292
H22   H     H_    0.968758 0.392472 0.865086 0.244586
H23   H     H_    0.480444 0.418995 0.104917 0.178859
H24   H     H_    0.114153 0.389364 0.762228 0.229151
H25   H     H_    0.121594 0.556963 0.777487 0.208482
H26   H     H_    0.663777 0.259835 0.194767 0.346421
H27   H     H_    0.938354 0.516000 0.278272 0.165163
H28   H     H_    0.591562 0.875111 0.341880 0.177206
H29   H     H_    0.460938 0.918524 0.564598 0.151691
H30   H     H_    0.060734 0.149704 0.121003 0.247686
H31   H     H_    0.063127 0.046472 0.264819 0.275965
H32   H     H_    0.969011 0.054787 0.160695 0.268212
N1    N     N_2   0.500900 0.501330 0.852150 -0.202323
N2    N     N_2   0.500930 0.501360 0.147810 -0.177664
O1    O     O_R   0.499990 0.319060 0.613040 -0.596504
O2    O     O_R   0.633455 0.706828 0.780232 -0.765555
O3    O     O_2   0.377867 0.575922 0.945008 -0.634117
O4    O     O_R   0.371891 0.374944 0.870160 -0.789495
O5    O     O_2   0.997773 0.194334 0.660769 -0.650833
O6    O     O_R   0.858436 0.249056 0.642130 -0.796076
O7    O     O_2   0.999379 0.800944 0.337948 -0.639851
O8    O     O_R   0.139425 0.752169 0.362020 -0.803154
O9    O     O_2   0.578455 0.073232 0.170792 -0.619300
O10   O     O_R   0.643498 0.230667 0.285055 -0.783557
O11   O     O_R   0.500010 0.319100 0.386900 -0.596037
O12   O     O_R   0.376760 0.499970 0.613050 -0.607975
O13   O     O_R   0.376790 0.500010 0.386910 -0.595891
O14   O     O_R   0.499990 0.680900 0.613100 -0.573031
O15   O     O_R   0.500010 0.680940 0.386960 -0.612806
O16   O     O_R   0.623210 0.499990 0.613090 -0.608492
O17   O     O_R   0.623240 0.500030 0.386950 -0.596657
O18   O     O_2   0.704033 0.569220 0.914912 -0.648142
Zn1   Zn    Zn3+2 0.499980 0.499970 0.650990 1.034870
Zn2   Zn    Zn3+2 0.500020 0.500030 0.349010 1.004032

loop_
_geom_bond_atom_site_label_1
_geom_bond_atom_site_label_2
_ccdc_geom_bond_type
C24   H16   S    
C6    N1    D    
C5    H1    S    
C2    H29   S    
C7    N2    D    
C28   H21   S    
C6    C19   S    
C21   O6    S    
C1    O1    A    
O12   Zn1   S    
C22   C32   S    
C1    C5    S    
H26   O10   S    
C28   C29   S    
C10   C15   S    
C29   H18   S    
C1    O11   A    
C8    O15   A    
C17   H3    S    
C4    C13   S    
H8    O6    S    
C25   H14   S    
C27   H25   S    
C10   C31   S    
C16   C17   S    
C23   C24   S    
C31   C33   S    
H9    O8    S    
C30   O10   S    
H7    O4    S    
C15   C23   S    
C12   C32   S    
C23   C32   S    
C19   O2    S    
N2    Zn2   S    
N1    Zn1   S    
C10   C21   S    
C11   C33   S    
C24   C25   S    
C22   O8    S    
C19   O18   D    
C26   H13   S    
C14   C35   T    
C29   H19   S    
C25   C26   S    
C23   C31   S    
C3    C30   S    
C9    C14   S    
C25   H15   S    
C9    O16   A    
C11   C16   S    
C15   C27   S    
O1    Zn1   S    
C12   C15   S    
C33   H27   S    
H6    O2    S    
C17   C18   S    
C20   O4    S    
C26   H11   S    
C16   H4    S    
O11   Zn2   S    
C31   C35   S    
C20   N1    S    
O14   Zn1   S    
C30   O9    D    
C12   C34   S    
C2    C36   D    
O13   Zn2   S    
C8    O14   A    
C2    C8    S    
C22   O7    D    
C3    C5    D    
O16   Zn1   S    
O15   Zn2   S    
C6    C7    S    
C29   H20   S    
C28   H22   S    
C18   H30   S    
C21   O5    D    
C27   H24   S    
C32   C33   S    
C24   H17   S    
C13   C34   T    
C7    H12   S    
C4    O13   A    
C3    C36   S    
C20   O3    D    
C17   H2    S    
C10   C11   S    
C26   H10   S    
H23   N2    S    
C4    O12   A    
O17   Zn2   S    
C27   C28   S    
C18   H31   S    
C36   H28   S    
C18   H32   S    
C16   H5    S    
C9    O17   A    
C11   C12   S    
