data_mof_unit_42946.cif
_audit_creation_date              2012-12-10T16:57:52-0500
_audit_creation_method            fapswitch 2.2
_symmetry_space_group_name_H-M    P1
_symmetry_Int_Tables_number       1
_space_group_crystal_system       triclinic
_cell_length_a                    10.650237
_cell_length_b                    10.929072
_cell_length_c                    9.691981
_cell_angle_alpha                 90.149473
_cell_angle_beta                  90.35482
_cell_angle_gamma                 90.16942
_cell_volume                      1128.0890619

loop_
_atom_site_label
_atom_site_type_symbol
_atom_type_description
_atom_site_fract_x
_atom_site_fract_y
_atom_site_fract_z
_atom_type_partial_charge
C1    C     C_R   0.499451 0.265116 0.499452 0.877710
C2    C     C_3   0.959513 0.603655 0.448467 0.116233
C3    C     C_3   0.039944 0.510123 0.368988 -0.142072
C4    C     C_3   0.123209 0.497937 0.498821 -0.048002
C5    C     C_2   0.458493 0.934611 0.397416 0.023003
C6    C     C_2   0.509250 0.866077 0.498155 -0.458190
C7    C     C_2   0.500917 0.061931 0.387014 0.115494
C8    C     C_2   0.481626 0.133527 0.498434 -0.360955
C9    C     C_2   0.426294 0.430573 0.921422 -0.043900
C10   C     C_2   0.428736 0.428165 0.077158 -0.072402
C11   C     C_R   0.259571 0.499399 0.499518 0.852467
C12   C     C_R   0.498236 0.734498 0.499966 0.830167
C13   C     C_R   0.740527 0.499743 0.500589 0.779567
C14   C     C_3   0.041413 0.393061 0.552437 -0.017874
C15   C     C_3   0.956270 0.404302 0.423565 -0.253684
C16   C     C_3   0.877164 0.499057 0.502089 -0.088709
C17   C     C_3   0.961417 0.486793 0.630246 -0.022064
C18   C     C_3   0.044453 0.592851 0.577681 -0.177150
Cu1   Cu    Cu3+1 0.500030 0.500020 0.638630 0.971197
Cu2   Cu    Cu3+1 0.499970 0.499980 0.361370 0.938008
H1    H     H_    0.918118 0.327046 0.361400 0.146825
H2    H     H_    0.441648 0.094256 0.591488 0.173063
H3    H     H_    0.359890 0.370483 0.869401 0.183961
H4    H     H_    0.564259 0.553360 0.894543 0.200664
H5    H     H_    0.366925 0.363605 0.127953 0.163604
H6    H     H_    0.554988 0.562379 0.106598 0.199851
H7    H     H_    0.082634 0.669793 0.640294 0.158535
H8    H     H_    0.074191 0.520322 0.261652 0.162841
H9    H     H_    0.572663 0.906916 0.573811 0.158093
N1    N     N_2   0.498620 0.498660 0.846910 -0.287132
N2    N     N_2   0.498590 0.498630 0.153040 -0.285798
O1    O     O_R   0.500020 0.321960 0.617040 -0.562044
O2    O     O_R   0.499980 0.321920 0.382900 -0.585499
O3    O     O_R   0.316870 0.499990 0.617050 -0.551184
O4    O     O_R   0.316830 0.499950 0.382910 -0.592980
O5    O     O_R   0.500020 0.678080 0.617100 -0.563515
O6    O     O_R   0.499980 0.678040 0.382960 -0.591152
O7    O     O_R   0.683170 0.500050 0.617090 -0.592121
O8    O     O_R   0.683130 0.500010 0.382950 -0.574896
C19   C     C_2   0.083732 0.272792 0.610046 0.331368
H10   H     H_    0.014385 0.207173 0.645046 0.056244
O9    O     O_2   0.195092 0.247812 0.617674 -0.549734
C20   C     C_2   0.918268 0.471471 0.776064 0.383869
H11   H     H_    0.861492 0.392802 0.803645 0.055122
O10   O     O_2   0.946786 0.546799 0.864030 -0.547148
C21   C     C_3   0.909698 0.723758 0.389394 -0.412407
C22   C     C_3   0.017666 0.810144 0.351570 -0.338108
C23   C     C_3   0.968573 0.929410 0.290590 -0.797620
H12   H     H_    0.917282 0.910759 0.192671 0.259211
H13   H     H_    0.904951 0.975764 0.364459 0.237579
H14   H     H_    0.048564 0.991522 0.268383 0.275151
H15   H     H_    0.074555 0.831648 0.445124 0.212600
H16   H     H_    0.079435 0.765179 0.274692 0.230719
H17   H     H_    0.852005 0.703176 0.296201 0.215568
H18   H     H_    0.848753 0.767988 0.467598 0.190707
C24   C     C_2   0.356502 0.889969 0.303892 0.376143
H19   H     H_    0.315670 0.799759 0.316506 0.072651
O11   O     O_2   0.313913 0.956001 0.213699 -0.560419
C25   C     C_3   0.568270 0.105929 0.257510 -0.303233
C26   C     C_3   0.625771 0.002427 0.170777 -0.362787
C27   C     C_3   0.704779 0.053701 0.053306 -0.860892
H20   H     H_    0.646126 0.111730 0.984656 0.262890
H21   H     H_    0.784030 0.109103 0.095072 0.255328
H22   H     H_    0.743773 0.977140 0.991572 0.250536
H23   H     H_    0.686130 0.944115 0.237341 0.219943
H24   H     H_    0.550583 0.944331 0.125111 0.254734
H25   H     H_    0.501314 0.158478 0.192409 0.226269
H26   H     H_    0.646934 0.167237 0.289219 0.185753

loop_
_geom_bond_atom_site_label_1
_geom_bond_atom_site_label_2
_ccdc_geom_bond_type
C21   H18   S    
C27   H22   S    
C8    H2    S    
C20   H11   S    
C17   C20   S    
C22   H15   S    
Cu1   O7    S    
C25   H26   S    
C2    C18   S    
C1    C8    S    
C2    C16   S    
C9    C10   S    
C5    C24   S    
C19   O9    D    
C22   C23   S    
C11   O3    A    
Cu1   N1    S    
C15   H1    S    
C22   H16   S    
C4    C18   S    
C21   H17   S    
C23   H13   S    
C17   C18   S    
C3    C4    S    
C26   H24   S    
C25   C26   S    
C2    C21   S    
C4    C11   S    
C6    C12   S    
Cu2   O6    S    
C20   O10   D    
C14   C17   S    
C13   O7    A    
C5    C6    D    
C9    N1    D    
Cu1   O1    S    
C10   H5    S    
C11   O4    A    
C19   H10   S    
C24   O11   D    
C26   H23   S    
C2    C3    S    
Cu1   O5    S    
C23   H14   S    
C4    C14   S    
C27   H20   S    
H4    N1    S    
C13   O8    A    
C12   O5    A    
Cu2   O2    S    
C1    O2    A    
C15   C16   S    
H6    N2    S    
C6    H9    S    
C3    C15   S    
C24   H19   S    
C3    H8    S    
C5    C7    S    
C7    C8    D    
C13   C16   S    
C7    C25   S    
C12   O6    A    
C27   H21   S    
Cu2   O8    S    
C21   C22   S    
C23   H12   S    
C25   H25   S    
C14   C15   S    
Cu2   O4    S    
C14   C19   S    
C10   N2    D    
Cu2   N2    S    
C1    O1    A    
C9    H3    S    
C18   H7    S    
Cu1   Cu2   S    
C16   C17   S    
C26   C27   S    
Cu1   O3    S    
