data_mof_unit_45045.cif
_audit_creation_date              2012-12-10T18:47:45-0500
_audit_creation_method            fapswitch 2.2
_symmetry_space_group_name_H-M    P1
_symmetry_Int_Tables_number       1
_space_group_crystal_system       triclinic
_cell_length_a                    9.844749
_cell_length_b                    10.722619
_cell_length_c                    15.49966
_cell_angle_alpha                 90.245083
_cell_angle_beta                  66.958101
_cell_angle_gamma                 89.931699
_cell_volume                      1505.61090424

loop_
_atom_site_label
_atom_site_type_symbol
_atom_type_description
_atom_site_fract_x
_atom_site_fract_y
_atom_site_fract_z
_atom_type_partial_charge
C1    C     C_R   0.499996 0.740134 0.500009 0.853518
C2    C     C_R   0.500015 0.259858 0.499985 0.886382
C3    C     C_R   0.380132 0.369899 0.083812 -0.226705
C4    C     C_R   0.656017 0.562095 0.898886 -0.236812
C5    C     C_R   0.282953 0.338064 0.042643 -0.121213
C6    C     C_R   0.757579 0.587640 0.938195 -0.206726
C7    C     C_R   0.627000 0.935961 0.494605 -0.201771
C8    C     C_R   0.373015 0.064013 0.505404 -0.169402
C9    C     C_R   0.627091 0.063659 0.494501 -0.187687
C10   C     C_R   0.373048 0.936309 0.505304 -0.185375
C11   C     C_R   0.500064 0.127398 0.499959 -0.009288
C12   C     C_R   0.500034 0.872579 0.499915 -0.013175
C13   C     C_R   0.963360 0.420699 0.442839 -0.056402
C14   C     C_R   0.036734 0.579539 0.556992 -0.093180
C15   C     C_R   0.107155 0.420631 0.442925 -0.072494
C16   C     C_R   0.892860 0.579427 0.557039 -0.088632
C17   C     C_R   0.407073 0.497057 0.676197 0.937994
C18   C     C_R   0.592908 0.501168 0.323556 0.904012
C19   C     C_R   0.347431 0.475820 0.777017 -0.211826
C20   C     C_R   0.653138 0.508490 0.221205 -0.218649
C21   C     C_R   0.205751 0.348333 0.910964 0.201664
C22   C     C_R   0.830346 0.583560 0.072043 0.171460
C23   C     C_R   0.231370 0.391551 0.820459 0.419181
C24   C     C_R   0.789415 0.565112 0.168690 0.432897
C25   C     C_R   0.429695 0.521788 0.824935 -0.284381
C26   C     C_R   0.562741 0.467147 0.177163 -0.318318
C27   C     C_R   0.417907 0.470211 0.910064 0.075788
C28   C     C_R   0.598128 0.487582 0.082056 0.077786
C29   C     C_R   0.300020 0.386299 0.955557 0.051522
C30   C     C_R   0.730378 0.552468 0.030030 0.039891
C31   C     C_R   0.523702 0.496805 0.949077 0.116121
C32   C     C_R   0.499912 0.451522 0.039437 0.111356
H1    H     H_    0.195488 0.273562 0.079855 0.192511
H2    H     H_    0.856406 0.637692 0.895929 0.185153
H3    H     H_    0.458642 0.426603 0.220810 0.178679
H4    H     H_    0.508896 0.593505 0.790725 0.164422
H5    H     H_    0.362169 0.323222 0.148778 0.141195
H6    H     H_    0.688203 0.590909 0.827146 0.139408
H7    H     H_    0.725935 0.887377 0.490500 0.157103
H8    H     H_    0.273845 0.112599 0.509904 0.157831
H9    H     H_    0.726216 0.111958 0.490091 0.156387
H10   H     H_    0.273931 0.887998 0.509712 0.157419
H11   H     H_    0.937093 0.357353 0.397111 0.133269
H12   H     H_    0.062965 0.642842 0.602757 0.126477
H13   H     H_    0.189781 0.357084 0.397298 0.124349
H14   H     H_    0.810185 0.642859 0.602754 0.130068
N1    N     N_R   0.142780 0.500030 0.500020 -0.078386
N2    N     N_R   0.857220 0.499970 0.499980 -0.080857
O1    O     O_R   0.385370 0.683250 0.500010 -0.626125
O2    O     O_R   0.614630 0.316750 0.499990 -0.629108
O3    O     O_R   0.614700 0.683220 0.500000 -0.634135
O4    O     O_R   0.385300 0.316780 0.500000 -0.621517
O5    O     O_R   0.319830 0.500020 0.632250 -0.589031
O6    O     O_R   0.680170 0.499980 0.367750 -0.569523
O7    O     O_R   0.549160 0.499990 0.632240 -0.619430
O8    O     O_R   0.450840 0.500010 0.367760 -0.621970
Zn1   Zn    Zn3+2 0.346870 0.500020 0.500000 0.951861
Zn2   Zn    Zn3+2 0.653130 0.499980 0.500000 0.954438
O9    O     O_3   0.883409 0.601087 0.211180 -0.569284
C33   C     C_3   0.851371 0.725926 0.242294 0.156445
H15   H     H_    0.733468 0.737780 0.290479 0.106439
H16   H     H_    0.876204 0.790240 0.181891 0.173916
C34   C     C_3   0.946593 0.762834 0.295339 -0.759752
H17   H     H_    0.065209 0.752721 0.249114 0.265069
H18   H     H_    0.924211 0.861413 0.318904 0.189418
H19   H     H_    0.921255 0.702368 0.357661 0.259734
O10   O     O_3   0.160105 0.335664 0.769253 -0.580688
C35   C     C_3   0.028370 0.401616 0.784978 0.158198
H20   H     H_    0.051660 0.500233 0.761671 0.133893
H21   H     H_    0.953578 0.399934 0.860364 0.183409
C36   C     C_3   0.948830 0.339539 0.729661 -0.768081
H22   H     H_    0.915691 0.243487 0.755935 0.265333
H23   H     H_    0.848486 0.393878 0.737616 0.200159
H24   H     H_    0.022610 0.334647 0.654224 0.259708
Br1   Br    Br    0.051998 0.226523 0.966378 -0.497741
Br2   Br    Br    0.021945 0.653784 0.000785 -0.534200

loop_
_geom_bond_atom_site_label_1
_geom_bond_atom_site_label_2
_ccdc_geom_bond_type
C34   H18   S    
C10   H10   S    
C22   Br2   S    
C16   N2    A    
C33   C34   S    
C35   C36   S    
C27   C29   A    
O1    Zn1   S    
O8    Zn1   S    
C33   H16   S    
C23   O10   S    
C2    O2    A    
C24   O9    S    
C20   C24   A    
C35   H20   S    
C5    H1    S    
C15   N1    A    
C17   O7    A    
C18   C20   S    
C18   O8    A    
C34   H19   S    
O9    C33   S    
C1    C12   S    
C2    C11   S    
C10   C12   A    
C5    C29   A    
C21   C23   A    
C7    C12   A    
C27   C31   A    
O10   C35   S    
O2    Zn2   S    
C28   C32   A    
C4    C6    A    
C16   H14   S    
C36   H23   S    
O5    Zn1   S    
C21   C29   A    
C6    H2    S    
C33   H15   S    
C13   N2    A    
C19   C23   A    
N1    Zn1   S    
C9    C11   A    
C31   C32   A    
O3    Zn2   S    
C1    O3    A    
C2    O4    A    
C8    C10   A    
C6    C30   A    
C4    H6    S    
C13   C15   A    
C14   C16   A    
C15   H13   S    
C17   O5    A    
C13   H11   S    
C14   H12   S    
O6    Zn2   S    
C7    C9    A    
C22   C30   A    
C26   C28   A    
C3    C5    A    
C36   H24   S    
N2    Zn2   S    
C14   N1    A    
C25   C27   A    
C21   Br1   S    
C9    H9    S    
C28   C30   A    
C36   H22   S    
C20   C26   A    
C8    C11   A    
C17   C19   S    
C22   C24   A    
C3    C32   A    
C19   C25   A    
C4    C31   A    
O4    Zn1   S    
C18   O6    A    
C25   H4    S    
C34   H17   S    
C26   H3    S    
C3    H5    S    
C35   H21   S    
O7    Zn2   S    
C7    H7    S    
C8    H8    S    
C1    O1    A    
