data_mof_unit_59740.cif
_audit_creation_date              2012-12-11T14:11:04-0500
_audit_creation_method            fapswitch 2.2
_symmetry_space_group_name_H-M    P1
_symmetry_Int_Tables_number       1
_space_group_crystal_system       triclinic
_cell_length_a                    20.027928
_cell_length_b                    17.158149
_cell_length_c                    15.639184
_cell_angle_alpha                 90.00069
_cell_angle_beta                  51.490391
_cell_angle_gamma                 90.00039
_cell_volume                      4205.39670575

loop_
_atom_site_label
_atom_site_type_symbol
_atom_type_description
_atom_site_fract_x
_atom_site_fract_y
_atom_site_fract_z
_atom_type_partial_charge
C1    C     C_R   0.366956 0.194354 0.005352 0.717727
C2    C     C_3   0.798599 0.811292 0.412675 0.413076
C3    C     C_3   0.689029 0.249327 0.443156 0.394032
C4    C     C_3   0.310826 0.750797 0.556909 0.394070
C5    C     C_3   0.811075 0.749414 0.556796 0.394016
C6    C     C_3   0.188729 0.250419 0.443294 0.393968
C7    C     C_3   0.298898 0.688524 0.412495 0.413288
C8    C     C_3   0.701281 0.311368 0.587398 0.413145
C9    C     C_2   0.228986 0.728976 0.037676 0.582863
C10   C     C_2   0.771012 0.271024 0.962328 0.582914
C11   C     C_2   0.717977 0.693479 0.050268 0.633585
C12   C     C_R   0.633040 0.805644 0.994654 0.717654
C13   C     C_2   0.282018 0.306517 0.949740 0.633526
C14   C     C_2   0.782025 0.193477 0.949728 0.633461
C15   C     C_2   0.217973 0.806523 0.050278 0.633532
C16   C     C_2   0.271001 0.228971 0.962347 0.582979
C17   C     C_2   0.728990 0.771026 0.037668 0.582898
C18   C     C_R   0.399422 0.800150 0.208531 0.002483
C19   C     C_R   0.600597 0.199844 0.791451 0.002584
C20   C     C_R   0.651857 0.828493 0.777913 -0.142160
C21   C     C_R   0.348124 0.171484 0.222091 -0.142268
C22   C     C_R   0.848153 0.328481 0.222084 -0.142101
C23   C     C_R   0.663398 0.170876 0.944369 0.799944
C24   C     C_R   0.151831 0.671538 0.777919 -0.142020
C25   C     C_R   0.100631 0.300165 0.791418 0.002832
C26   C     C_R   0.899395 0.699842 0.208559 0.002691
C27   C     C_R   0.329586 0.912654 0.953390 -0.125501
C28   C     C_R   0.670413 0.087346 0.046612 -0.125503
C29   C     C_R   0.645190 0.893851 0.087761 -0.107887
C30   C     C_R   0.354806 0.106148 0.912245 -0.107880
C31   C     C_R   0.854811 0.393850 0.912238 -0.107841
C32   C     C_R   0.145188 0.606150 0.087763 -0.107850
C33   C     C_R   0.170411 0.412653 0.046616 -0.125465
C34   C     C_R   0.336602 0.829125 0.055633 0.799963
C35   C     C_R   0.829588 0.587346 0.953386 -0.125474
C36   C     C_R   0.355123 0.079615 0.316764 0.762366
C37   C     C_R   0.644867 0.920363 0.683230 0.762347
C38   C     C_R   0.592911 0.109723 0.696828 0.885838
C39   C     C_R   0.407108 0.890268 0.303156 0.885873
C40   C     C_R   0.907082 0.609720 0.303177 0.885834
C41   C     C_R   0.092942 0.390291 0.696805 0.885796
C42   C     C_R   0.144853 0.579664 0.683221 0.762303
C43   C     C_R   0.855138 0.420354 0.316773 0.762342
C44   C     C_R   0.331363 0.180043 0.955675 -0.201565
C45   C     C_R   0.836604 0.670878 0.055629 0.799998
C46   C     C_R   0.668630 0.819954 0.044336 -0.201527
C47   C     C_R   0.713496 0.146937 0.970974 -0.233010
C48   C     C_R   0.286503 0.853064 0.029030 -0.233017
C49   C     C_R   0.786505 0.646939 0.029024 -0.233040
C50   C     C_R   0.213493 0.353059 0.970981 -0.233038
C51   C     C_R   0.168626 0.680047 0.044343 -0.201533
C52   C     C_R   0.831372 0.319953 0.955661 -0.201573
C53   C     C_R   0.389145 0.813781 0.302152 -0.122115
C54   C     C_R   0.610892 0.186206 0.697817 -0.122175
C55   C     C_R   0.694999 0.861901 0.676136 -0.031579
C56   C     C_R   0.163395 0.329119 0.944375 0.799978
C57   C     C_R   0.304971 0.138056 0.323861 -0.031520
C58   C     C_R   0.805016 0.361880 0.323865 -0.031596
C59   C     C_R   0.194960 0.638155 0.676132 -0.031653
C60   C     C_R   0.110954 0.313815 0.697764 -0.122328
C61   C     C_R   0.889094 0.686202 0.302197 -0.122241
C62   C     C_3   0.166258 0.146382 0.536970 0.839746
C63   C     C_3   0.833907 0.853560 0.463121 0.839482
C64   C     C_3   0.724501 0.207780 0.493295 0.800917
C65   C     C_3   0.275412 0.792188 0.506601 0.800602
C66   C     C_3   0.775568 0.707757 0.506769 0.801095
C67   C     C_R   0.133037 0.694357 0.994660 0.717560
C68   C     C_3   0.224312 0.292289 0.493094 0.801415
C69   C     C_3   0.334109 0.646518 0.463233 0.838929
C70   C     C_3   0.666009 0.353526 0.536836 0.839306
C71   C     C_3   0.722645 0.779421 0.524033 -0.510824
C72   C     C_3   0.277430 0.220759 0.475727 -0.511188
C73   C     C_3   0.388249 0.719655 0.444028 -0.471334
C74   C     C_3   0.611727 0.280489 0.556112 -0.471575
C75   C     C_3   0.111679 0.219207 0.556399 -0.471893
C76   C     C_3   0.888292 0.780596 0.443792 -0.471692
C77   C     C_3   0.777322 0.279515 0.476085 -0.510566
C78   C     C_R   0.866961 0.305644 0.005343 0.717611
C79   C     C_3   0.222733 0.720356 0.523737 -0.510097
C80   C     C_3   0.758683 0.821450 0.575173 -0.212322
C81   C     C_3   0.241310 0.178516 0.424826 -0.212268
C82   C     C_3   0.351135 0.760888 0.393785 -0.216421
C83   C     C_3   0.648903 0.239100 0.606180 -0.216401
C84   C     C_3   0.148972 0.260924 0.606114 -0.216393
C85   C     C_3   0.851079 0.739094 0.393840 -0.216396
C86   C     C_3   0.741321 0.321432 0.424828 -0.212342
C87   C     C_3   0.258671 0.678595 0.575170 -0.212379
C88   C     C_3   0.201645 0.188857 0.587179 0.412885
F1    F     F_    0.375774 0.264908 0.036186 -0.637177
F2    F     F_    0.658659 0.958653 0.597916 -0.617715
F3    F     F_    0.572262 0.080082 0.635648 -0.629665
F4    F     F_    0.427748 0.919913 0.364345 -0.629789
F5    F     F_    0.927739 0.580081 0.364350 -0.629547
F6    F     F_    0.072270 0.419925 0.635645 -0.629372
F7    F     F_    0.158660 0.541362 0.597905 -0.617788
F8    F     F_    0.841339 0.458651 0.402088 -0.617747
F9    F     F_    0.138544 0.069905 0.557705 -0.573653
F10   F     F_    0.861770 0.929987 0.442504 -0.573968
F11   F     F_    0.754834 0.132049 0.469519 -0.574670
F12   F     F_    0.624216 0.735090 0.963830 -0.637140
F13   F     F_    0.244973 0.867883 0.530286 -0.574635
F14   F     F_    0.745314 0.631999 0.530603 -0.574672
F15   F     F_    0.254417 0.368096 0.469139 -0.574648
F16   F     F_    0.362157 0.570153 0.442761 -0.574427
F17   F     F_    0.638066 0.429927 0.557398 -0.574127
F18   F     F_    0.303624 0.693930 0.000925 -0.624116
F19   F     F_    0.696374 0.306071 0.999076 -0.624123
F20   F     F_    0.644776 0.657890 0.082993 -0.605386
F21   F     F_    0.355223 0.342104 0.917009 -0.605442
F22   F     F_    0.855226 0.157888 0.917002 -0.605518
F23   F     F_    0.681269 0.229873 0.875733 -0.657711
F24   F     F_    0.144771 0.842113 0.083006 -0.605444
F25   F     F_    0.196361 0.193926 0.999103 -0.624074
F26   F     F_    0.803628 0.806073 0.000920 -0.624083
F27   F     F_    0.318734 0.770126 0.124266 -0.657748
F28   F     F_    0.818735 0.729878 0.124262 -0.657660
F29   F     F_    0.181259 0.270114 0.875751 -0.657589
F30   F     F_    0.124205 0.764913 0.963849 -0.637110
F31   F     F_    0.875788 0.235089 0.036161 -0.637138
F32   F     F_    0.341344 0.041336 0.402076 -0.617622
H1    H     H_    0.404252 0.743371 0.175271 0.267493
H2    H     H_    0.689626 0.056406 0.088312 0.192448
H3    H     H_    0.656784 0.921675 0.139455 0.190291
H4    H     H_    0.343210 0.078324 0.860552 0.190283
H5    H     H_    0.843216 0.421674 0.860544 0.190292
H6    H     H_    0.156783 0.578326 0.139457 0.190303
H7    H     H_    0.189624 0.443593 0.088317 0.192450
H8    H     H_    0.810375 0.556406 0.911685 0.192447
H9    H     H_    0.655099 0.778879 0.556373 0.238667
H10   H     H_    0.345021 0.221451 0.443206 0.238639
H11   H     H_    0.456047 0.720237 0.410469 0.238997
H12   H     H_    0.595769 0.256628 0.824702 0.267442
H13   H     H_    0.543897 0.280018 0.589800 0.239024
H14   H     H_    0.043784 0.219444 0.590348 0.239069
H15   H     H_    0.956144 0.780206 0.410018 0.239043
H16   H     H_    0.844846 0.279053 0.443835 0.238689
H17   H     H_    0.155242 0.720710 0.555853 0.238708
H18   H     H_    0.246923 0.110993 0.626341 0.390585
H19   H     H_    0.753622 0.889368 0.373357 0.390716
H20   H     H_    0.645905 0.171253 0.401387 0.374190
H21   H     H_    0.353724 0.829043 0.598773 0.374294
H22   H     H_    0.854352 0.671461 0.598504 0.374141
H23   H     H_    0.670850 0.777048 0.796753 0.260750
H24   H     H_    0.145157 0.328142 0.401709 0.374012
H25   H     H_    0.254426 0.610094 0.372914 0.390956
H26   H     H_    0.746064 0.389580 0.626817 0.390804
H27   H     H_    0.329120 0.222934 0.203270 0.260655
H28   H     H_    0.829166 0.277037 0.203234 0.260800
H29   H     H_    0.170810 0.722979 0.796782 0.260870
H30   H     H_    0.095809 0.243374 0.824648 0.267342
H31   H     H_    0.904220 0.756628 0.175315 0.267415
H32   H     H_    0.310372 0.943594 0.911691 0.192444
N1    N     N_R   0.408680 0.130810 0.995780 -0.129967
N2    N     N_R   0.578590 0.132790 0.846380 -0.130432
N3    N     N_R   0.578590 0.867210 0.846380 -0.095870
N4    N     N_R   0.421410 0.132790 0.153620 -0.095847
N5    N     N_R   0.921410 0.367210 0.153620 -0.095879
N6    N     N_R   0.078590 0.632790 0.846380 -0.095899
N7    N     N_R   0.078590 0.367210 0.846380 -0.130462
N8    N     N_R   0.921410 0.632790 0.153620 -0.130442
N9    N     N_R   0.403840 0.921910 0.935760 -0.092954
N10   N     N_R   0.596160 0.078090 0.064240 -0.092959
N11   N     N_R   0.596160 0.921910 0.064240 -0.106425
N12   N     N_R   0.591320 0.869190 0.004220 -0.129979
N13   N     N_R   0.403840 0.078090 0.935760 -0.106416
N14   N     N_R   0.903840 0.421910 0.935760 -0.106403
N15   N     N_R   0.096160 0.578090 0.064240 -0.106416
N16   N     N_R   0.096160 0.421910 0.064240 -0.092956
N17   N     N_R   0.903840 0.578090 0.935760 -0.092952
N18   N     N_R   0.426250 0.076100 0.213650 -0.131584
N19   N     N_R   0.573750 0.923900 0.786350 -0.131571
N20   N     N_R   0.573750 0.076100 0.786350 -0.161068
N21   N     N_R   0.426250 0.923900 0.213650 -0.161043
N22   N     N_R   0.926250 0.576100 0.213650 -0.161087
N23   N     N_R   0.591320 0.130810 0.004220 -0.113238
N24   N     N_R   0.073750 0.423900 0.786350 -0.161130
N25   N     N_R   0.073750 0.576100 0.786350 -0.131551
N26   N     N_R   0.926250 0.423900 0.213650 -0.131561
N27   N     N_R   0.408680 0.869190 0.995780 -0.113231
N28   N     N_R   0.908680 0.630810 0.995780 -0.113238
N29   N     N_R   0.091320 0.369190 0.004220 -0.113243
N30   N     N_R   0.091320 0.630810 0.004220 -0.129983
N31   N     N_R   0.908680 0.369190 0.995780 -0.129971
N32   N     N_R   0.421410 0.867210 0.153620 -0.130421
Ni1   Ni    Ni4+2 0.500000 0.131570 0.000000 0.301357
Ni2   Ni    Ni4+2 0.500000 0.868430 0.000000 0.301372
Ni3   Ni    Ni4+2 0.000000 0.631570 0.000000 0.301383
Ni4   Ni    Ni4+2 0.000000 0.368430 0.000000 0.301372
Ni5   Ni    Ni4+2 0.488900 1.000000 0.862310 0.271420
Ni6   Ni    Ni4+2 0.511100 0.000000 0.137690 0.271413
Ni7   Ni    Ni4+2 0.988900 0.500000 0.862310 0.271448
Ni8   Ni    Ni4+2 0.011100 0.500000 0.137690 0.271446
O1    O     O_3   0.207746 0.155980 0.663870 -0.632309
O2    O     O_3   0.792739 0.844340 0.335858 -0.632281
O3    O     O_3   0.684105 0.216996 0.365203 -0.669639
O4    O     O_3   0.315589 0.783259 0.634937 -0.669622
O5    O     O_3   0.816108 0.717177 0.634699 -0.669633
O6    O     O_3   0.183478 0.282476 0.365495 -0.669648
O7    O     O_3   0.293334 0.655268 0.335524 -0.632279
O8    O     O_3   0.707019 0.344501 0.664278 -0.632283

loop_
_geom_bond_atom_site_label_1
_geom_bond_atom_site_label_2
_ccdc_geom_bond_type
C27   C48   A    
C73   H11   S    
C28   C47   A    
C27   H32   S    
N25   Ni7   S    
C20   N3    A    
C8    C83   S    
C64   C77   S    
C29   N11   A    
N11   N12   A    
C9    C51   S    
N5    Ni4   S    
C65   F13   S    
C40   F5    S    
C39   N21   A    
C10   C52   S    
C16   F25   S    
C66   C85   S    
C79   C87   S    
C34   N27   A    
C75   H14   S    
C28   N10   A    
C6    C75   S    
C43   N26   A    
N27   Ni2   S    
C3    C64   S    
C23   N23   A    
C21   C57   A    
N15   Ni8   S    
C37   F2    S    
C65   C79   S    
C21   H27   S    
C26   H31   S    
C67   N30   A    
N6    N25   A    
C78   N31   A    
C63   F10   S    
N12   Ni2   S    
C4    C65   S    
C28   H2    S    
C75   C84   S    
H18   O1    S    
N15   N30   A    
C71   H9    S    
C56   N29   A    
C42   N25   A    
C74   H13   S    
N21   Ni6   S    
C33   H7    S    
C8    C70   S    
N19   Ni5   S    
C2    C85   S    
C4    O4    S    
N14   Ni7   S    
C56   F29   S    
C32   H6    S    
C3    C74   S    
C66   F14   S    
C71   C80   S    
C13   F21   S    
C33   C50   A    
C18   C53   A    
C32   N15   A    
C76   H15   S    
C64   F11   S    
C41   F6    S    
N21   N32   A    
C38   N20   A    
C35   C49   A    
N13   Ni5   S    
C68   F15   S    
C26   N8    A    
C77   H16   S    
C18   N32   A    
N9    N27   A    
C50   C56   A    
C74   C83   S    
N17   N28   A    
C72   C81   S    
C45   N28   A    
H19   O2    S    
N5    N26   A    
N1    N13   A    
C6    C68   S    
C6    C81   S    
N6    Ni3   S    
C3    C86   S    
H26   O8    S    
C20   H23   S    
C30   C44   A    
C10   F19   S    
C15   C48   S    
C20   C55   A    
C52   C78   A    
C58   C86   S    
C54   C83   S    
C72   C88   S    
N29   Ni4   S    
C17   F26   S    
C63   C80   S    
N2    Ni1   S    
C23   C47   A    
C42   F7    S    
C68   C84   S    
C17   C46   S    
C30   N13   A    
N9    Ni5   S    
C36   C57   A    
C10   C14   D    
C6    O6    S    
C25   N7    A    
N24   Ni7   S    
C5    O5    S    
N10   N23   A    
C34   F27   S    
N4    Ni1   S    
C62   C88   S    
C38   F3    S    
C70   F17   S    
C3    O3    S    
C40   C61   A    
C12   F12   S    
C4    C87   S    
C25   H30   S    
C2    O2    S    
H21   O4    S    
N7    Ni4   S    
C1    N1    A    
C64   C83   S    
C70   C74   S    
C11   C49   S    
N28   Ni3   S    
C12   N12   A    
C62   F9    S    
N26   Ni8   S    
C1    C44   A    
C66   C71   S    
C38   C54   A    
C31   N14   A    
C45   C49   A    
C68   C72   S    
C73   C82   S    
C43   F8    S    
N2    N20   A    
C51   C67   A    
C5    C80   S    
C69   C73   S    
C4    C73   S    
C61   C85   S    
C19   C54   A    
C12   C46   A    
C25   C60   A    
C41   N24   A    
C30   H4    S    
C77   C86   S    
N7    N24   A    
C8    C77   S    
C35   N17   A    
H22   O5    S    
C57   C81   S    
C62   C75   S    
C8    O8    S    
C33   N16   A    
C34   C48   A    
C31   H5    S    
C2    C71   S    
C70   C86   S    
C39   F4    S    
N10   Ni6   S    
C2    C63   S    
C88   O1    S    
C7    C79   S    
C69   F16   S    
C19   H12   S    
C14   F22   S    
C16   C44   S    
C11   C17   D    
C1    F1    S    
C79   H17   S    
C9    C15   D    
N8    N22   A    
C15   F24   S    
C62   C81   S    
N14   N31   A    
C84   C88   S    
C41   C60   A    
C22   H28   S    
C5    C66   S    
N3    Ni2   S    
C69   C87   S    
C42   C59   A    
C22   C58   A    
H25   O7    S    
C14   C47   S    
C22   N5    A    
N20   Ni5   S    
C67   F30   S    
C23   F23   S    
N18   Ni6   S    
C36   N18   A    
N16   Ni8   S    
C31   C52   A    
C29   C46   A    
C5    C76   S    
C7    C69   S    
C9    F18   S    
N31   Ni4   S    
C32   C51   A    
C40   N22   A    
C55   C80   S    
C60   C84   S    
C45   F28   S    
C65   C82   S    
C39   C53   A    
N1    Ni1   S    
C24   C59   A    
C29   H3    S    
N4    N18   A    
C21   N4    A    
N32   Ni2   S    
C72   H10   S    
C78   F31   S    
N11   Ni6   S    
C24   N6    A    
N30   Ni3   S    
C7    O7    S    
C35   H8    S    
C36   F32   S    
H20   O3    S    
C59   C87   S    
C37   N19   A    
C24   H29   S    
C18   H1    S    
C13   C50   S    
C37   C55   A    
N3    N19   A    
C7    C82   S    
H24   O6    S    
N16   N29   A    
C63   C76   S    
C13   C16   D    
C11   F20   S    
C19   N2    A    
N17   Ni7   S    
C43   C58   A    
C53   C82   S    
N8    Ni3   S    
C76   C85   S    
C27   N9    A    
N22   Ni8   S    
C26   C61   A    
N23   Ni1   S    
