data_mof_unit_49799.cif
_audit_creation_date              2012-12-10T17:52:19-0500
_audit_creation_method            fapswitch 2.2
_symmetry_space_group_name_H-M    P1
_symmetry_Int_Tables_number       1
_space_group_crystal_system       triclinic
_cell_length_a                    19.160572
_cell_length_b                    10.720229
_cell_length_c                    9.949508
_cell_angle_alpha                 91.472567
_cell_angle_beta                  88.864019
_cell_angle_gamma                 93.020404
_cell_volume                      2039.82355985

loop_
_atom_site_label
_atom_site_type_symbol
_atom_type_description
_atom_site_fract_x
_atom_site_fract_y
_atom_site_fract_z
_atom_type_partial_charge
C1    C     C_R   0.510271 0.263086 0.500054 0.914865
C2    C     C_R   0.291029 0.522981 0.503832 -0.037648
C3    C     C_R   0.932240 0.527680 0.504310 0.299728
C4    C     C_R   0.072363 0.545635 0.509027 0.354865
C5    C     C_R   0.817199 0.568918 0.608414 -0.012268
C6    C     C_R   0.744953 0.560123 0.605223 -0.189111
C7    C     C_R   0.710381 0.499881 0.497326 -0.096142
C8    C     C_R   0.748723 0.443744 0.391579 -0.050179
C9    C     C_R   0.822025 0.454557 0.392455 -0.044571
C10   C     C_R   0.856194 0.517524 0.501249 -0.019619
C11   C     C_R   0.543049 0.139094 0.757949 0.056242
C12   C     C_R   0.365827 0.504648 0.501295 0.924378
C13   C     C_R   0.510066 0.086492 0.870780 -0.327769
C14   C     C_R   0.489445 0.960178 0.863796 -0.119890
C15   C     C_R   0.519095 0.889316 0.759145 0.074131
C16   C     C_R   0.525765 0.944755 0.631146 0.031341
C17   C     C_R   0.535285 0.075395 0.630786 0.026311
C18   C     C_R   0.531720 0.135681 0.505946 -0.119983
C19   C     C_R   0.542997 0.069758 0.386642 -0.275152
C20   C     C_R   0.543416 0.940955 0.386155 0.018226
C21   C     C_R   0.525466 0.876225 0.506116 -0.131293
C22   C     C_R   0.385969 0.373851 0.133258 -0.064481
C23   C     C_R   0.507228 0.741071 0.501458 0.904219
C24   C     C_R   0.323439 0.350861 0.061487 -0.084818
C25   C     C_R   0.328035 0.340448 0.920496 -0.090007
C26   C     C_R   0.391534 0.374897 0.857913 -0.281836
C27   C     C_R   0.444897 0.441759 0.927196 0.199245
C28   C     C_R   0.443877 0.441243 0.071097 0.043260
C29   C     C_R   0.555130 0.548817 0.069420 0.080144
C30   C     C_R   0.555370 0.545728 0.927156 -0.141553
C31   C     C_R   0.634296 0.498407 0.498761 0.874858
C32   C     C_R   0.254540 0.531189 0.626574 -0.224470
C33   C     C_R   0.182957 0.545324 0.628912 -0.016640
C34   C     C_R   0.147758 0.553992 0.506918 0.020345
C35   C     C_R   0.184945 0.554755 0.382690 -0.016481
C36   C     C_R   0.256555 0.538901 0.383175 -0.244503
H1    H     H_    0.281499 0.524984 0.720647 0.168847
H2    H     H_    0.504882 0.140059 0.964057 0.135508
H3    H     H_    0.399318 0.344442 0.755940 0.211730
H4    H     H_    0.601390 0.579672 0.872116 0.163213
H5    H     H_    0.285503 0.538960 0.288547 0.157857
H6    H     H_    0.715441 0.601337 0.687603 0.199347
H7    H     H_    0.549314 0.118422 0.292524 0.155756
N1    N     N_R   0.038489 0.433445 0.486188 -0.127271
N2    N     N_R   0.969264 0.424495 0.484265 -0.141244
N3    N     N_R   0.966334 0.639975 0.527818 -0.133754
N4    N     N_R   0.035663 0.648923 0.530291 -0.122385
N5    N     N_R   0.499340 0.498800 0.142780 -0.125694
N6    N     N_R   0.499320 0.498720 0.857170 -0.108113
O1    O     O_R   0.500000 0.316780 0.614690 -0.651172
O2    O     O_R   0.499990 0.316750 0.385360 -0.633366
O3    O     O_R   0.398140 0.500000 0.614700 -0.645138
O4    O     O_R   0.398130 0.499970 0.385370 -0.595474
O5    O     O_R   0.500010 0.683250 0.614640 -0.594496
O6    O     O_R   0.500000 0.683220 0.385310 -0.560844
O7    O     O_R   0.601870 0.500030 0.614630 -0.607652
O8    O     O_R   0.601860 0.500000 0.385300 -0.629338
Zn1   Zn    Zn3+2 0.500000 0.500020 0.653130 0.980318
Zn2   Zn    Zn3+2 0.500000 0.499980 0.346870 1.006073
C37   C     C_1   0.595602 0.238894 0.779391 0.220688
N7    N     N_1   0.638545 0.317038 0.797949 -0.195652
C38   C     C_2   0.446212 0.902028 0.971528 0.504070
H8    H     H_    0.429163 0.958280 0.057138 0.080196
O9    O     O_2   0.427805 0.791244 0.964456 -0.545323
C39   C     C_2   0.576969 0.814177 0.802759 0.449443
H9    H     H_    0.581202 0.793135 0.908244 0.074177
O10   O     O_2   0.622843 0.782385 0.724042 -0.612404
C40   C     C_2   0.565753 0.881128 0.258758 0.379907
H10   H     H_    0.619581 0.894950 0.224184 0.073392
O11   O     O_2   0.523675 0.824122 0.187128 -0.563455
C41   C     C_1   0.615878 0.604828 0.133979 0.256051
N8    N     N_1   0.665361 0.650568 0.183579 -0.211215
C42   C     C_2   0.399973 0.270702 0.221633 0.501665
H11   H     H_    0.444111 0.214105 0.197868 0.031263
O12   O     O_2   0.361132 0.243396 0.316478 -0.581385
C43   C     C_1   0.259664 0.311212 0.132778 0.335354
N9    N     N_1   0.208865 0.279262 0.189837 -0.134961
C44   C     C_2   0.270914 0.285737 0.834319 0.410515
H12   H     H_    0.280806 0.270489 0.727457 0.081791
O13   O     O_2   0.212503 0.258600 0.879189 -0.537425
C45   C     C_1   0.146278 0.546289 0.757363 0.216197
N10   N     N_1   0.116973 0.546970 0.860193 -0.126256
C46   C     C_2   0.152029 0.570131 0.250121 0.453747
H13   H     H_    0.183015 0.559673 0.158335 0.071159
O14   O     O_2   0.091168 0.596571 0.240680 -0.528628
C47   C     C_1   0.849922 0.628335 0.724976 0.213768
N11   N     N_1   0.876035 0.675802 0.818338 -0.143382
C48   C     C_1   0.713545 0.371127 0.285304 0.198025
N12   N     N_1   0.685514 0.313090 0.200692 -0.207720
C49   C     C_1   0.861878 0.404226 0.279792 0.230803
N13   N     N_1   0.893595 0.364197 0.189904 -0.130853

loop_
_geom_bond_atom_site_label_1
_geom_bond_atom_site_label_2
_ccdc_geom_bond_type
C8    C9    A    
C16   C21   A    
O6    Zn2   S    
C42   H11   S    
C19   C20   A    
C2    C12   S    
C45   N10   T    
O4    Zn2   S    
C7    C8    A    
C1    C18   S    
C38   H8    S    
C23   O5    A    
C18   C19   A    
O5    Zn1   S    
C5    C6    A    
C44   O13   D    
C26   H3    S    
O8    Zn2   S    
C15   C16   A    
C15   C39   S    
C2    C32   A    
C34   C35   A    
C38   O9    D    
C11   C17   A    
C35   C36   A    
C40   H10   S    
C39   O10   D    
C31   O7    A    
C1    O1    A    
C12   O4    A    
C48   N12   T    
C22   C28   A    
C13   C14   A    
C42   O12   D    
C36   H5    S    
C12   O3    A    
C19   H7    S    
C33   C34   A    
C4    C34   S    
C7    C31   S    
C29   N5    A    
C25   C44   S    
O1    Zn1   S    
C24   C25   A    
C35   C46   S    
C47   N11   T    
C24   C43   S    
C4    N1    A    
C25   C26   A    
C3    N2    A    
N6    Zn1   S    
C37   N7    T    
C8    C48   S    
C29   C30   A    
C46   H13   S    
C17   C18   A    
C26   C27   A    
C30   H4    S    
C32   H1    S    
C43   N9    T    
C1    O2    A    
C13   H2    S    
O3    Zn1   S    
C5    C47   S    
C46   O14   D    
C30   N6    A    
C21   C23   S    
C22   C24   A    
O2    Zn2   S    
C11   C37   S    
N1    N2    A    
N5    Zn2   S    
C9    C10   A    
C2    C36   A    
N3    N4    A    
C28   N5    A    
C44   H12   S    
C20   C40   S    
C9    C49   S    
C23   O6    A    
C6    C7    A    
C3    N3    A    
C32   C33   A    
C31   O8    A    
C5    C10   A    
C3    C10   S    
C11   C13   A    
C49   N13   T    
C16   C17   A    
O7    Zn1   S    
C41   N8    T    
C20   C21   A    
C40   O11   D    
C39   H9    S    
C6    H6    S    
C27   C28   A    
C14   C15   A    
C22   C42   S    
C33   C45   S    
C27   N6    A    
C29   C41   S    
C4    N4    A    
C14   C38   S    
