data_mof_unit_18169.cif
_audit_creation_date              2012-12-11T14:08:30-0500
_audit_creation_method            fapswitch 2.2
_symmetry_space_group_name_H-M    P1
_symmetry_Int_Tables_number       1
_space_group_crystal_system       triclinic
_cell_length_a                    10.924816
_cell_length_b                    10.950828
_cell_length_c                    18.755196
_cell_angle_alpha                 90.352844
_cell_angle_beta                  90.216577
_cell_angle_gamma                 60.364647
_cell_volume                      1950.24431715

loop_
_atom_site_label
_atom_site_type_symbol
_atom_type_description
_atom_site_fract_x
_atom_site_fract_y
_atom_site_fract_z
_atom_type_partial_charge
C1    C     C_R   0.237250 0.645253 0.608887 0.550662
C2    C     C_2   0.775460 0.169440 0.709743 -0.178972
C3    C     C_2   0.182452 0.662623 0.681313 -0.082900
C4    C     C_R   0.654784 0.620936 0.601530 0.544462
C5    C     C_2   0.193146 0.664204 0.839308 -0.121305
C6    C     C_2   0.191711 0.562732 0.799598 -0.166104
C7    C     C_2   0.223225 0.549466 0.723102 -0.153783
C8    C     C_2   0.665773 0.682254 0.330397 -0.105466
C9    C     C_2   0.673723 0.682805 0.173418 -0.093964
C10   C     C_2   0.786898 0.631481 0.217014 -0.147713
C11   C     C_2   0.781315 0.605728 0.292214 -0.165786
C12   C     C_3   0.831011 0.533493 0.784103 -0.189623
C13   C     C_2   0.634343 0.193674 0.319532 -0.089940
C14   C     C_2   0.638785 0.197997 0.165159 -0.108761
C15   C     C_2   0.525144 0.223348 0.202151 -0.167822
C16   C     C_R   0.626955 0.230494 0.602805 0.548107
C17   C     C_2   0.518631 0.250824 0.277742 -0.150566
C18   C     C_2   0.122451 0.680306 0.344557 -0.108264
C19   C     C_2   0.113575 0.691227 0.190642 -0.102405
C20   C     C_2   0.042773 0.803788 0.233795 -0.148776
C21   C     C_2   0.075236 0.799392 0.308913 -0.163790
C22   C     C_R   0.702660 0.103107 0.897949 0.544918
C23   C     C_3   0.704464 0.672565 0.812132 0.025473
C24   C     C_R   0.725123 0.688446 0.888052 0.543755
C25   C     C_R   0.118535 0.706727 0.907314 0.551547
C26   C     C_R   0.673629 0.113213 0.101702 0.554432
C27   C     C_R   0.699338 0.692593 0.098523 0.554132
C28   C     C_R   0.215676 0.651119 0.404377 0.558559
C29   C     C_R   0.086456 0.713481 0.115380 0.549683
C30   C     C_R   0.644351 0.626772 0.395940 0.557238
C31   C     C_R   0.614378 0.232875 0.393721 0.555209
C32   C     C_3   0.568207 0.667397 0.799682 -0.283355
C33   C     C_3   0.557646 0.640162 0.720185 -0.276271
C34   C     C_3   0.677275 0.644959 0.676359 0.122884
C35   C     C_3   0.698484 0.798207 0.769821 -0.181677
C36   C     C_3   0.667636 0.789322 0.689673 -0.012698
C37   C     C_3   0.823811 0.522834 0.703753 0.008474
C38   C     C_2   0.670393 0.167398 0.673242 -0.133715
C39   C     C_2   0.685521 0.172449 0.829592 -0.120698
C40   C     C_2   0.796066 0.135184 0.786169 -0.178563
Cr1   Cr    Cr6+3 0.393010 0.398050 0.501480 1.012957
Cr2   Cr    Cr6+3 0.398820 0.707980 0.501630 1.014819
Cr3   Cr    Cr6+3 0.708140 0.393940 0.496850 1.010737
Cr4   Cr    Cr6+3 0.937950 0.938450 0.008940 1.020072
Cr5   Cr    Cr6+3 0.626180 0.937030 0.994750 1.018927
Cr6   Cr    Cr6+3 0.937790 0.625760 0.001410 1.012364
H1    H     H_    0.475471 0.768753 0.816122 0.128842
H2    H     H_    0.567952 0.582511 0.831948 0.126236
H3    H     H_    0.124283 0.768170 0.703379 0.104964
H4    H     H_    0.892028 0.594611 0.195907 0.160627
H5    H     H_    0.872077 0.514691 0.314825 0.151020
H6    H     H_    0.567198 0.721487 0.192649 0.095120
H7    H     H_    0.578429 0.777905 0.309079 0.111250
H8    H     H_    0.441333 0.209642 0.179027 0.156496
H9    H     H_    0.413653 0.314203 0.299899 0.155273
H10   H     H_    0.718554 0.218834 0.187671 0.106971
H11   H     H_    0.740201 0.130065 0.298686 0.085935
H12   H     H_    0.800381 0.797086 0.776709 0.151508
H13   H     H_    0.970367 0.906745 0.212131 0.154799
H14   H     H_    0.565032 0.535536 0.713498 0.123811
H15   H     H_    0.078481 0.889290 0.331622 0.153120
H16   H     H_    0.187217 0.586947 0.210071 0.084512
H17   H     H_    0.110492 0.594239 0.323133 0.098237
H18   H     H_    0.451621 0.720367 0.700856 0.140955
H19   H     H_    0.614638 0.900323 0.791459 0.115768
H20   H     H_    0.558552 0.874759 0.677608 0.111747
H21   H     H_    0.932393 0.527763 0.798992 0.161983
H22   H     H_    0.830527 0.441818 0.809379 0.106780
H23   H     H_    0.903185 0.072972 0.805769 0.151605
H24   H     H_    0.832610 0.418864 0.692269 0.128119
H25   H     H_    0.941172 0.521626 0.615836 0.270096
H26   H     H_    0.036642 0.433945 0.686111 0.202353
H27   H     H_    0.725719 0.829379 0.592324 0.226347
H28   H     H_    0.772764 0.894503 0.661254 0.230148
H29   H     H_    0.847679 0.195769 0.683543 0.142916
H30   H     H_    0.578807 0.236363 0.809676 0.107477
H31   H     H_    0.603586 0.133245 0.699062 0.100377
H32   H     H_    0.162196 0.490327 0.822649 0.143946
H33   H     H_    0.279534 0.443941 0.700898 0.148119
H34   H     H_    0.230375 0.731122 0.816703 0.100158
N1    N     N_3   0.944986 0.525632 0.671315 -0.585777
N2    N     N_3   0.766584 0.807020 0.644102 -0.604819
O1    O     O_R   0.507110 0.256280 0.580300 -0.523278
O2    O     O_R   0.837080 0.593860 0.915300 -0.532015
O3    O     O_R   0.064770 0.636080 0.932550 -0.500621
O4    O     O_R   0.280830 0.527190 0.577940 -0.499372
O5    O     O_R   0.068250 0.829200 0.092940 -0.510856
O6    O     O_R   0.799650 0.057040 0.080330 -0.508478
O7    O     O_R   0.586130 0.079760 0.077080 -0.512164
O8    O     O_R   0.627700 0.809630 0.066580 -0.491746
O9    O     O_R   0.816140 0.597180 0.075920 -0.515569
O10   O     O_R   0.045360 0.639170 0.081440 -0.506122
O11   O     O_3   0.833980 0.833750 0.001700 -0.253500
O12   O     O_R   0.524640 0.695370 0.425100 -0.496925
O13   O     O_R   0.261360 0.738990 0.584270 -0.525635
O14   O     O_R   0.532590 0.694780 0.574370 -0.518830
O15   O     O_R   0.744470 0.503750 0.577000 -0.542781
O16   O     O_R   0.698520 0.277230 0.571620 -0.499041
O17   O     O_R   0.498530 0.256920 0.419280 -0.517595
O18   O     O_R   0.272880 0.527780 0.428680 -0.508023
O19   O     O_R   0.252780 0.739630 0.423250 -0.508952
O20   O     O_R   0.735890 0.504390 0.415980 -0.513465
O21   O     O_R   0.690560 0.277820 0.422350 -0.494701
O22   O     O_3   0.499990 0.499990 0.499980 -0.249098
O23   O     O_R   0.089190 0.825870 0.932320 -0.518310
O24   O     O_R   0.819070 0.053960 0.931440 -0.495702
O25   O     O_R   0.607070 0.076440 0.916460 -0.524013
O26   O     O_R   0.647110 0.806550 0.917690 -0.506718

loop_
_geom_bond_atom_site_label_1
_geom_bond_atom_site_label_2
_ccdc_geom_bond_type
C14   H10   S    
C34   C37   S    
C35   C36   S    
Cr3   O16   S    
Cr5   O11   S    
C3    H3    S    
C25   O23   A    
Cr4   O23   S    
C26   O7    A    
Cr1   O4    S    
C12   H22   S    
C12   C23   S    
C35   H12   S    
Cr2   O14   S    
C3    C7    D    
C33   H18   S    
C5    C6    D    
C36   H20   S    
C18   H17   S    
C6    H32   S    
C13   H11   S    
C35   H19   S    
C19   H16   S    
C22   O25   A    
Cr1   O1    S    
C27   O8    A    
C12   C37   S    
Cr3   O22   S    
Cr4   O11   S    
C4    O14   A    
C28   O19   A    
C19   C20   D    
C36   N2    S    
C23   C24   S    
Cr1   O17   S    
C27   O9    A    
C24   O26   A    
C31   O17   A    
Cr4   O5    S    
Cr5   O7    S    
C9    C10   D    
C17   H9    S    
C21   H15   S    
H26   N1    S    
Cr5   O26   S    
Cr6   O3    S    
C28   O18   A    
C4    O15   A    
C32   H2    S    
C37   N1    S    
C9    H6    S    
H28   N2    S    
C12   H21   S    
C4    C34   S    
C40   H23   S    
Cr2   O13   S    
C15   H8    S    
C18   C28   S    
C39   C40   D    
Cr6   O9    S    
C22   O24   A    
C16   O1    A    
C5    H34   S    
C31   O21   A    
C2    C38   D    
C1    O13   A    
C30   O20   A    
C25   O3    A    
C33   C34   S    
Cr1   O18   S    
C39   H30   S    
C14   C26   S    
C20   H13   S    
Cr5   O8    S    
C5    C25   S    
C33   H14   S    
C23   C35   S    
C32   H1    S    
Cr6   O2    S    
C10   H4    S    
Cr2   O19   S    
H27   N2    S    
C9    C27   S    
C7    H33   S    
C1    O4    A    
C15   C17   S    
C18   C21   D    
Cr2   O12   S    
C13   C31   S    
Cr3   O15   S    
Cr2   O22   S    
C8    H7    S    
C6    C7    S    
C38   H31   S    
Cr4   O24   S    
Cr1   O22   S    
C13   C17   D    
C8    C30   S    
C23   C32   S    
C24   O2    A    
Cr3   O20   S    
C30   O12   A    
C32   C33   S    
C16   O16   A    
Cr6   O11   S    
C8    C11   D    
C22   C39   S    
C34   C36   S    
Cr3   O21   S    
C29   O5    A    
C11   H5    S    
C10   C11   S    
C2    C40   S    
Cr6   O10   S    
C20   C21   S    
C26   O6    A    
C14   C15   D    
C1    C3    S    
Cr4   O6    S    
C29   O10   A    
C37   H24   S    
C2    H29   S    
Cr5   O25   S    
C16   C38   S    
H25   N1    S    
C19   C29   S    
