data_mof_unit_51968.cif
_audit_creation_date              2012-12-10T17:38:16-0500
_audit_creation_method            fapswitch 2.2
_symmetry_space_group_name_H-M    P1
_symmetry_Int_Tables_number       1
_space_group_crystal_system       triclinic
_cell_length_a                    12.400034
_cell_length_b                    13.228603
_cell_length_c                    19.336129
_cell_angle_alpha                 75.955895
_cell_angle_beta                  101.312534
_cell_angle_gamma                 117.082492
_cell_volume                      2726.09778063

loop_
_atom_site_label
_atom_site_type_symbol
_atom_type_description
_atom_site_fract_x
_atom_site_fract_y
_atom_site_fract_z
_atom_type_partial_charge
C1    C     C_R   0.855113 0.286527 0.505929 0.758670
C2    C     C_R   0.998430 0.496726 0.708240 -0.024135
C3    C     C_R   0.998324 0.492984 0.069965 0.502882
C4    C     C_R   0.996892 0.492068 0.929579 0.364722
C5    C     C_R   0.028361 0.415057 0.201626 0.363439
C6    C     C_R   0.021035 0.412361 0.273709 0.319325
C7    C     C_R   0.999743 0.497646 0.292391 -0.390790
C8    C     C_R   0.981507 0.582573 0.238603 0.343136
C9    C     C_R   0.971684 0.575901 0.166314 0.356069
C10   C     C_R   0.998695 0.494026 0.146776 -0.302417
C11   C     C_R   0.277176 0.030338 0.409859 0.531299
C12   C     C_R   0.999531 0.499000 0.632265 0.760817
C13   C     C_R   0.229281 0.836946 0.477979 -0.220221
C14   C     C_R   0.816268 0.080930 0.544800 -0.193197
C15   C     C_R   0.738736 0.964063 0.552251 -0.196456
C16   C     C_R   0.615956 0.927917 0.527612 -0.090573
C17   C     C_R   0.568305 0.008863 0.494013 0.106881
C18   C     C_R   0.652010 0.125022 0.475165 0.010324
C19   C     C_R   0.441446 0.977980 0.475602 -0.176185
C20   C     C_R   0.402886 0.058400 0.427316 -0.099281
C21   C     C_R   0.490948 0.165857 0.397124 0.510893
C22   C     C_R   0.613710 0.198069 0.421627 -0.309191
C23   C     C_R   0.145225 0.713833 0.490877 0.837565
C24   C     C_R   0.351390 0.871621 0.506070 0.485966
C25   C     C_R   0.191516 0.917799 0.433910 -0.414684
C26   C     C_R   0.773914 0.162933 0.507087 -0.083164
C27   C     C_R   0.334780 0.312875 0.607666 -0.298771
C28   C     C_R   0.756001 0.639773 0.398529 0.711817
C29   C     C_R   0.645910 0.644376 0.366900 -0.384518
C30   C     C_R   0.542594 0.581874 0.402467 -0.247606
C31   C     C_R   0.546270 0.521564 0.472268 0.022154
C32   C     C_R   0.651917 0.501569 0.496995 0.172286
C33   C     C_R   0.442538 0.466499 0.512909 -0.096589
C34   C     C_R   0.999928 0.499738 0.367921 0.892354
C35   C     C_R   0.438079 0.375359 0.570127 0.109645
C36   C     C_R   0.538453 0.349458 0.590756 -0.248042
C37   C     C_R   0.644789 0.414123 0.556724 -0.158692
C38   C     C_R   0.346720 0.502619 0.502122 0.644184
C39   C     C_R   0.238272 0.343835 0.590785 -0.007067
C40   C     C_R   0.050577 0.433961 0.761087 -0.186499
C41   C     C_R   0.048342 0.430784 0.833368 -0.160019
C42   C     C_R   0.996247 0.492327 0.853638 0.075083
C43   C     C_R   0.944743 0.555602 0.800746 -0.159216
C44   C     C_R   0.944678 0.556800 0.728537 -0.196190
Cu1   Cu    Cu3+1 0.098280 0.475420 0.516260 0.988465
Cu2   Cu    Cu3+1 0.901720 0.524580 0.483740 0.964275
H1    H     H_    0.091870 0.386369 0.746547 0.146470
H2    H     H_    0.909664 0.107007 0.568353 0.156032
H3    H     H_    0.773349 0.901083 0.578660 0.149565
H4    H     H_    0.458404 0.567953 0.370585 0.154426
H5    H     H_    0.717834 0.390002 0.577256 0.202444
H6    H     H_    0.903465 0.603241 0.815232 0.150430
H7    H     H_    0.904073 0.605914 0.688612 0.153268
N1    N     N_R   0.996054 0.582692 0.949927 -0.246822
N2    N     N_R   0.997334 0.583211 0.018689 -0.173045
N3    N     N_R   0.998766 0.402146 0.049253 -0.175225
N4    N     N_R   0.998692 0.401844 0.980484 -0.245425
N5    N     N_R   0.246290 0.438200 0.540910 -0.207451
N6    N     N_R   0.754310 0.561190 0.459520 -0.252515
O1    O     O_R   0.972510 0.318130 0.520450 -0.582940
O2    O     O_R   0.806530 0.359650 0.492990 -0.609720
O3    O     O_R   0.083010 0.479220 0.613590 -0.575347
O4    O     O_R   0.917030 0.520740 0.586130 -0.606533
O5    O     O_R   0.193470 0.640350 0.507010 -0.498762
O6    O     O_R   0.027490 0.681870 0.479550 -0.550736
O7    O     O_R   0.082970 0.479260 0.413870 -0.571656
O8    O     O_R   0.916990 0.520780 0.386410 -0.521082
O9    O     O_3   0.458109 0.232578 0.337557 -0.558464
C45   C     C_3   0.480328 0.338260 0.354914 -0.224960
H8    H     H_    0.579340 0.395527 0.360024 0.151129
H9    H     H_    0.439201 0.325040 0.404528 0.181863
H10   H     H_    0.437097 0.382806 0.310648 0.168796
O10   O     O_3   0.241903 0.118195 0.377160 -0.545290
C46   C     C_3   0.146127 0.084650 0.322384 -0.243739
H11   H     H_    0.155880 0.030290 0.290363 0.128075
H12   H     H_    0.147783 0.163411 0.285127 0.223893
H13   H     H_    0.057292 0.041427 0.345241 0.139358
O11   O     O_3   0.380269 0.801954 0.565252 -0.559189
C47   C     C_3   0.366673 0.831122 0.627448 -0.304364
H14   H     H_    0.270435 0.813205 0.629626 0.149440
H15   H     H_    0.392170 0.776928 0.674942 0.194349
H16   H     H_    0.428094 0.922972 0.631209 0.156915
H17   H     H_    0.561593 0.836106 0.532433 0.216244
H18   H     H_    0.679676 0.278121 0.394962 0.172236
H19   H     H_    0.157729 0.294303 0.619061 0.136589
H20   H     H_    0.536180 0.280569 0.635184 0.148847
H21   H     H_    0.328934 0.240612 0.650211 0.149054
H22   H     H_    0.089080 0.381855 0.873336 0.150320
O12   O     O_3   0.373719 0.617712 0.472782 -0.556690
C48   C     C_3   0.324330 0.633855 0.400604 -0.246498
H23   H     H_    0.258916 0.671053 0.394892 0.167847
H24   H     H_    0.280903 0.554815 0.375904 0.143360
H25   H     H_    0.397863 0.701618 0.368370 0.143142
O13   O     O_3   0.863099 0.700398 0.365326 -0.517626
C49   C     C_3   0.870648 0.805321 0.321567 -0.318016
H26   H     H_    0.843590 0.854688 0.348413 0.129033
H27   H     H_    0.817037 0.790045 0.268857 0.179929
H28   H     H_    0.966031 0.859347 0.310331 0.177762
H29   H     H_    0.636788 0.689867 0.313123 0.151464
O14   O     O_3   0.061126 0.337208 0.185423 -0.541551
C50   C     C_3   0.189321 0.385440 0.189781 -0.263136
H30   H     H_    0.230840 0.397420 0.245423 0.170702
H31   H     H_    0.226711 0.468789 0.152026 0.144525
H32   H     H_    0.216056 0.325129 0.174367 0.186547
O15   O     O_3   0.043901 0.330715 0.326327 -0.542652
C51   C     C_3   0.933307 0.231370 0.336744 -0.233580
H33   H     H_    0.864174 0.250963 0.352599 0.122943
H34   H     H_    0.950443 0.167609 0.381017 0.181844
H35   H     H_    0.897076 0.190813 0.287990 0.170867
O16   O     O_3   0.977076 0.676028 0.255627 -0.515200
C52   C     C_3   0.097270 0.762417 0.264911 -0.223918
H36   H     H_    0.129107 0.757880 0.322857 0.139053
H37   H     H_    0.096756 0.847939 0.243958 0.168689
H38   H     H_    0.164415 0.758665 0.235791 0.123387
O17   O     O_3   0.945700 0.657019 0.115014 -0.527008
C53   C     C_3   0.818381 0.619424 0.105061 -0.225202
H39   H     H_    0.771238 0.533975 0.087545 0.139956
H40   H     H_    0.796969 0.682261 0.062125 0.180393
H41   H     H_    0.782503 0.615874 0.154466 0.172013
H42   H     H_    0.095422 0.893188 0.419240 0.202393

loop_
_geom_bond_atom_site_label_1
_geom_bond_atom_site_label_2
_ccdc_geom_bond_type
C40   H1    S    
Cu1   O1    S    
C50   H30   S    
Cu2   N6    S    
C41   C42   A    
C49   H26   S    
C18   C26   A    
C2    C12   S    
C34   O7    A    
C49   H28   S    
C7    C8    A    
Cu1   Cu2   S    
N3    N4    A    
C38   O12   S    
C46   H12   S    
C28   C29   A    
C5    C6    A    
C37   H5    S    
C43   H6    S    
C51   H33   S    
C11   C25   A    
C15   C16   A    
Cu1   O3    S    
C53   H39   S    
C13   C23   S    
C28   O13   S    
O10   C46   S    
C45   H9    S    
O16   C52   S    
C17   C19   A    
C38   N5    A    
C3    N2    A    
C44   H7    S    
C35   C36   A    
C27   C39   A    
C8    C9    A    
C46   H13   S    
C4    N4    A    
C31   C33   A    
C9    C10   A    
C51   H34   S    
C30   H4    S    
C50   H31   S    
C21   C22   A    
C13   C25   A    
C45   H8    S    
Cu1   N5    S    
C11   C20   A    
C46   H11   S    
C29   H29   S    
Cu2   O2    S    
C9    O17   S    
Cu2   O6    S    
C11   O10   S    
C1    O1    A    
C2    C44   A    
C47   H15   S    
C12   O4    A    
O11   C47   S    
C16   C17   A    
C14   H2    S    
C27   C35   A    
C39   N5    A    
C16   H17   S    
C13   C24   A    
C22   H18   S    
C45   H10   S    
C43   C44   A    
C29   C30   A    
C8    O16   S    
C12   O3    A    
C3    N3    A    
C48   H24   S    
C31   C32   A    
C5    O14   S    
C17   C18   A    
C52   H37   S    
C32   C37   A    
C14   C26   A    
C27   H21   S    
C24   O11   S    
C23   O5    A    
C50   H32   S    
C21   O9    S    
C1    C26   S    
C7    C34   S    
C42   C43   A    
C39   H19   S    
C25   H42   S    
C48   H25   S    
C28   N6    A    
C41   H22   S    
N1    N2    A    
C40   C41   A    
C52   H36   S    
C4    N1    A    
C18   C22   A    
O9    C45   S    
C1    O2    A    
C34   O8    A    
C47   H16   S    
C49   H27   S    
C6    C7    A    
O15   C51   S    
Cu1   O5    S    
C33   C38   A    
C53   H41   S    
Cu2   O4    S    
C36   H20   S    
C23   O6    A    
C19   C20   A    
C19   C24   A    
Cu2   O8    S    
C3    C10   S    
C48   H23   S    
C30   C31   A    
C4    C42   S    
O14   C50   S    
C33   C35   A    
C6    O15   S    
C53   H40   S    
C52   H38   S    
C15   H3    S    
O13   C49   S    
C47   H14   S    
C2    C40   A    
C5    C10   A    
C20   C21   A    
C36   C37   A    
Cu1   O7    S    
C14   C15   A    
C32   N6    A    
O12   C48   S    
O17   C53   S    
C51   H35   S    
