data_mof_unit_55643.cif
_audit_creation_date              2012-12-11T15:48:52-0500
_audit_creation_method            fapswitch 2.2
_symmetry_space_group_name_H-M    P1
_symmetry_Int_Tables_number       1
_space_group_crystal_system       triclinic
_cell_length_a                    10.937655
_cell_length_b                    11.009861
_cell_length_c                    18.813148
_cell_angle_alpha                 90.635524
_cell_angle_beta                  90.190837
_cell_angle_gamma                 60.345102
_cell_volume                      1968.65618159

loop_
_atom_site_label
_atom_site_type_symbol
_atom_type_description
_atom_site_fract_x
_atom_site_fract_y
_atom_site_fract_z
_atom_type_partial_charge
C1    C     C_R   0.237378 0.646791 0.609515 0.539538
C2    C     C_R   0.582505 0.132245 0.706837 -0.118513
C3    C     C_R   0.569851 0.142651 0.779906 0.187384
C4    C     C_R   0.652862 0.620687 0.601551 0.540973
C5    C     C_3   0.922984 0.115094 0.789506 -0.269556
C6    C     C_3   0.922233 0.120643 0.708951 -0.271637
C7    C     C_R   0.675197 0.162981 0.671444 -0.035365
C8    C     C_R   0.166338 0.678886 0.831939 0.010938
C9    C     C_R   0.145662 0.583605 0.791803 0.003832
C10   C     C_R   0.157145 0.577740 0.718115 -0.014908
C11   C     C_R   0.194748 0.775222 0.722512 -0.172168
C12   C     C_3   0.681061 0.540390 0.800169 -0.124230
C13   C     C_R   0.191067 0.775382 0.796141 -0.186547
C14   C     C_3   0.229833 0.430051 0.797370 -0.258117
C15   C     C_3   0.239529 0.422443 0.717249 -0.234651
C16   C     C_R   0.630483 0.225439 0.601624 0.535550
C17   C     C_R   0.185283 0.671338 0.682340 0.015501
C18   C     C_R   0.651916 0.659213 0.165298 0.016725
C19   C     C_R   0.747383 0.537639 0.201612 0.030883
C20   C     C_R   0.743238 0.530962 0.274209 0.037560
C21   C     C_R   0.531680 0.753402 0.278202 -0.162039
C22   C     C_R   0.535025 0.761003 0.203489 -0.171736
C23   C     C_3   0.697788 0.670584 0.813115 0.051848
C24   C     C_3   0.905615 0.456386 0.202212 -0.265654
C25   C     C_3   0.899020 0.452038 0.282176 -0.280121
C26   C     C_R   0.643539 0.642138 0.314554 0.019033
C27   C     C_R   0.634522 0.190126 0.168530 0.019443
C28   C     C_R   0.220968 0.648728 0.401971 0.554066
C29   C     C_R   0.516696 0.207947 0.206428 0.019383
C30   C     C_R   0.513439 0.219602 0.279157 0.032580
C31   C     C_R   0.730193 0.225201 0.277733 -0.154032
C32   C     C_R   0.732123 0.216907 0.203573 -0.155801
C33   C     C_3   0.447348 0.119985 0.208573 -0.270359
C34   C     C_3   0.668434 0.645249 0.677144 0.040823
C35   C     C_3   0.443373 0.134269 0.288612 -0.279884
C36   C     C_R   0.626540 0.213746 0.316332 0.021802
C37   C     C_R   0.118261 0.690716 0.188487 0.024652
C38   C     C_R   0.070284 0.809887 0.231630 0.046568
C39   C     C_R   0.083225 0.800977 0.303937 0.015251
C40   C     C_R   0.639234 0.619344 0.390525 0.546755
C41   C     C_R   0.174812 0.551529 0.293980 -0.164912
C42   C     C_R   0.161751 0.561647 0.220264 -0.179749
C43   C     C_3   0.102070 0.926811 0.228002 -0.264562
C44   C     C_3   0.112156 0.920727 0.308038 -0.273545
C45   C     C_3   0.808727 0.642700 0.690446 -0.258860
C46   C     C_R   0.148292 0.669916 0.335495 0.017674
C47   C     C_R   0.700785 0.099720 0.895101 0.538598
C48   C     C_R   0.723102 0.687489 0.888613 0.543368
C49   C     C_R   0.115347 0.708323 0.904884 0.539671
C50   C     C_R   0.672663 0.111632 0.102370 0.546150
C51   C     C_R   0.695078 0.688871 0.096946 0.541853
C52   C     C_R   0.611984 0.238224 0.392223 0.548017
C53   C     C_R   0.088965 0.712451 0.113815 0.546297
C54   C     C_3   0.568941 0.804026 0.783751 -0.217006
C55   C     C_3   0.546460 0.785758 0.704888 -0.237071
C56   C     C_3   0.666142 0.525269 0.719375 -0.192456
C57   C     C_3   0.829146 0.649942 0.770805 -0.237192
C58   C     C_3   0.559122 0.543686 0.842251 -0.421748
C59   C     C_R   0.675067 0.152785 0.821923 0.000964
C60   C     C_R   0.767765 0.183235 0.785865 -0.044180
C61   C     C_R   0.765477 0.191609 0.712077 -0.001323
Cr1   Cr    Cr6+3 0.392960 0.397920 0.502240 1.004487
Cr2   Cr    Cr6+3 0.398340 0.708480 0.501250 1.001402
Cr3   Cr    Cr6+3 0.708670 0.393570 0.496460 1.006521
Cr4   Cr    Cr6+3 0.937650 0.938540 0.007610 1.005842
Cr5   Cr    Cr6+3 0.625330 0.937370 0.994520 1.013410
Cr6   Cr    Cr6+3 0.937940 0.625230 0.001190 1.000970
H1    H     H_    0.592872 0.889769 0.788705 0.206639
H2    H     H_    0.213866 0.852338 0.697619 0.136840
H3    H     H_    0.471440 0.834000 0.814633 0.137999
H4    H     H_    0.204653 0.853633 0.824956 0.133134
H5    H     H_    0.169034 0.383265 0.820045 0.144028
H6    H     H_    0.330777 0.403335 0.823781 0.130633
H7    H     H_    0.348104 0.382562 0.697328 0.177315
H8    H     H_    0.180592 0.374849 0.692406 0.131954
H9    H     H_    0.445689 0.836665 0.307397 0.120756
H10   H     H_    0.452833 0.850770 0.176645 0.115252
H11   H     H_    0.953733 0.518530 0.184312 0.178327
H12   H     H_    0.757081 0.425285 0.701597 0.140677
H13   H     H_    0.948331 0.351824 0.176444 0.122738
H14   H     H_    0.939878 0.344922 0.302854 0.130398
H15   H     H_    0.445115 0.787097 0.698598 0.142883
H16   H     H_    0.939495 0.514628 0.309855 0.145543
H17   H     H_    0.811915 0.235172 0.304770 0.128668
H18   H     H_    0.817196 0.217044 0.174540 0.118295
H19   H     H_    0.519373 0.011740 0.190265 0.169442
H20   H     H_    0.341327 0.172244 0.183745 0.128022
H21   H     H_    0.334975 0.196287 0.310272 0.132575
H22   H     H_    0.511497 0.034123 0.316163 0.139933
H23   H     H_    0.922235 0.550381 0.787064 0.141587
H24   H     H_    0.220020 0.448814 0.317142 0.142994
H25   H     H_    0.191287 0.468654 0.188350 0.122317
H26   H     H_    0.012621 0.024432 0.208267 0.142575
H27   H     H_    0.540175 0.874218 0.673968 0.122855
H28   H     H_    0.204238 0.895383 0.201389 0.137289
H29   H     H_    0.218862 0.892934 0.326529 0.162224
H30   H     H_    0.025574 0.013845 0.334891 0.129239
H31   H     H_    0.850738 0.736922 0.782670 0.127237
H32   H     H_    0.808003 0.732944 0.663921 0.119335
H33   H     H_    0.778718 0.446212 0.818252 0.145775
H34   H     H_    0.898641 0.545493 0.668185 0.135259
H35   H     H_    0.568777 0.520734 0.706789 0.129498
H36   H     H_    0.419901 0.190301 0.849332 0.344389
H37   H     H_    0.576570 0.545958 0.900292 0.141858
H38   H     H_    0.458192 0.635950 0.828305 0.148387
H39   H     H_    0.550909 0.449260 0.830038 0.130795
H40   H     H_    0.506234 0.116001 0.677433 0.157538
H41   H     H_    0.967301 0.008995 0.811125 0.175714
H42   H     H_    0.959044 0.183005 0.815431 0.130975
H43   H     H_    0.960581 0.189895 0.688113 0.133699
H44   H     H_    0.967394 0.016962 0.682232 0.146675
O1    O     O_R   0.507380 0.255700 0.581440 -0.538328
O2    O     O_R   0.837170 0.593410 0.915250 -0.531319
O3    O     O_R   0.065200 0.635530 0.931570 -0.500838
O4    O     O_R   0.280320 0.527350 0.578930 -0.505883
O5    O     O_R   0.068260 0.828890 0.091840 -0.520100
O6    O     O_R   0.798870 0.057410 0.079340 -0.507192
O7    O     O_R   0.584930 0.080350 0.076780 -0.526366
O8    O     O_R   0.626960 0.809650 0.067060 -0.507757
O9    O     O_R   0.816040 0.596610 0.076510 -0.525995
O10   O     O_R   0.045610 0.638500 0.081060 -0.513765
O11   O     O_3   0.833640 0.833710 0.001100 -0.250292
O12   O     O_R   0.524480 0.695810 0.424040 -0.508171
O13   O     O_R   0.260510 0.739590 0.584590 -0.533275
O14   O     O_R   0.532300 0.695080 0.573820 -0.508722
O15   O     O_R   0.744840 0.503500 0.576370 -0.529785
O16   O     O_R   0.699120 0.276560 0.571960 -0.496036
O17   O     O_R   0.498940 0.256500 0.419860 -0.519762
O18   O     O_R   0.272500 0.528080 0.429150 -0.511184
O19   O     O_R   0.252060 0.740380 0.423010 -0.525049
O20   O     O_3   0.458461 0.130923 0.806571 -0.734121
O21   O     O_R   0.736390 0.504290 0.414790 -0.520115
O22   O     O_R   0.691300 0.277290 0.422170 -0.512027
O23   O     O_3   0.499990 0.499990 0.499980 -0.251480
O24   O     O_R   0.089400 0.825690 0.930570 -0.531018
O25   O     O_R   0.818460 0.054440 0.929850 -0.505407
O26   O     O_R   0.606060 0.077150 0.915510 -0.513779
O27   O     O_R   0.646550 0.806680 0.917570 -0.500888

loop_
_geom_bond_atom_site_label_1
_geom_bond_atom_site_label_2
_ccdc_geom_bond_type
C15   H8    S    
C21   C26   A    
C34   C56   S    
C8    C13   A    
C47   O25   A    
C27   C29   A    
C50   O6    A    
C41   C42   A    
C2    C7    A    
C43   C44   S    
C26   C40   S    
Cr2   O13   S    
C52   O17   A    
C21   H9    S    
C45   C57   S    
C29   C30   A    
C56   H12   S    
C20   C26   A    
C4    O14   A    
C3    O20   S    
C6    C61   S    
Cr6   O3    S    
C18   C19   A    
C10   C15   S    
C31   C36   A    
C5    C6    S    
C54   H1    S    
C20   C25   S    
C57   H31   S    
C10   C17   A    
C29   C33   S    
C2    H40   S    
C28   O18   A    
C44   H30   S    
Cr2   O19   S    
C37   C42   A    
C7    C61   A    
C43   H26   S    
Cr3   O22   S    
C24   H13   S    
C6    H44   S    
Cr3   O21   S    
C8    C9    A    
Cr5   O27   S    
C33   H20   S    
C43   H28   S    
C41   C46   A    
Cr5   O11   S    
C9    C10   A    
C42   H25   S    
C36   C52   S    
C27   C50   S    
C12   C58   S    
C49   O3    A    
C49   O24   A    
C34   C55   S    
C50   O7    A    
C21   C22   A    
C25   H14   S    
C52   O22   A    
C6    H43   S    
Cr1   O18   S    
C55   H27   S    
C30   C36   A    
Cr6   O10   S    
C18   C51   S    
C4    C34   S    
Cr3   O23   S    
C57   H23   S    
Cr2   O23   S    
C24   C25   S    
C45   H32   S    
C9    C14   S    
C12   C23   S    
C13   H4    S    
C47   C59   S    
C31   H17   S    
C60   C61   A    
C58   H39   S    
C12   C56   S    
C33   H19   S    
C14   H6    S    
C59   C60   A    
C37   C38   A    
C44   H29   S    
C35   H21   S    
C51   O8    A    
C31   C32   A    
C54   H3    S    
Cr3   O16   S    
C28   C46   S    
C47   O26   A    
C51   O9    A    
C34   C45   S    
Cr2   O14   S    
Cr4   O11   S    
C55   H15   S    
Cr4   O24   S    
C45   H34   S    
C39   C46   A    
C35   H22   S    
C24   H11   S    
C7    C16   S    
C41   H24   S    
Cr3   O15   S    
Cr5   O8    S    
Cr4   O5    S    
C58   H37   S    
Cr6   O11   S    
C16   O1    A    
C23   C54   S    
Cr6   O9    S    
C23   C57   S    
C40   O12   A    
C54   C55   S    
C11   C17   A    
C23   C48   S    
C5    C60   S    
C27   C32   A    
C18   C22   A    
C14   H5    S    
C22   H10   S    
Cr2   O12   S    
C11   H2    S    
C39   C44   S    
C4    O15   A    
C30   C35   S    
C1    C17   S    
C48   O27   A    
C53   O5    A    
C58   H38   S    
C19   C20   A    
C2    C3    A    
Cr6   O2    S    
C1    O13   A    
C37   C53   S    
Cr1   O4    S    
C53   O10   A    
Cr1   O17   S    
C11   C13   A    
Cr1   O23   S    
C38   C39   A    
Cr5   O26   S    
C5    H42   S    
C32   H18   S    
C33   C35   S    
C19   C24   S    
C28   O19   A    
C40   O21   A    
C16   O16   A    
C12   H33   S    
Cr4   O25   S    
C56   H35   S    
C38   C43   S    
C15   H7    S    
Cr1   O1    S    
Cr5   O7    S    
C25   H16   S    
Cr4   O6    S    
C14   C15   S    
C1    O4    A    
H36   O20   S    
C8    C49   S    
C48   O2    A    
C5    H41   S    
C3    C59   A    
