data_mof_unit_45977.cif
_audit_creation_date              2012-12-10T20:38:24-0500
_audit_creation_method            fapswitch 2.2
_symmetry_space_group_name_H-M    P1
_symmetry_Int_Tables_number       1
_space_group_crystal_system       triclinic
_cell_length_a                    9.847016
_cell_length_b                    10.669138
_cell_length_c                    16.520651
_cell_angle_alpha                 90.208479
_cell_angle_beta                  86.497713
_cell_angle_gamma                 89.898352
_cell_volume                      1732.38943096

loop_
_atom_site_label
_atom_site_type_symbol
_atom_type_description
_atom_site_fract_x
_atom_site_fract_y
_atom_site_fract_z
_atom_type_partial_charge
C1    C     C_R   0.500204 0.740165 0.497084 0.896700
C2    C     C_R   0.520619 0.533920 0.260403 -0.102437
C3    C     C_R   0.379196 0.936257 0.479148 0.140716
C4    C     C_R   0.483257 0.502170 0.653695 0.882158
C5    C     C_R   0.501448 0.871294 0.482567 -0.108562
C6    C     C_R   0.625397 0.934767 0.469000 -0.238651
C7    C     C_R   0.625536 0.064397 0.468827 -0.234262
C8    C     C_R   0.501717 0.128616 0.482172 -0.103700
C9    C     C_R   0.379326 0.064172 0.478853 0.124588
C10   C     C_3   0.252040 0.072281 0.532797 -0.478838
C11   C     C_3   0.252180 0.930261 0.533360 -0.493331
C12   C     C_R   0.579365 0.468677 0.784432 -0.255695
C13   C     C_R   0.924579 0.596069 0.535462 0.215126
C14   C     C_R   0.932415 0.411419 0.458492 -0.127327
C15   C     C_R   0.076536 0.411406 0.458483 -0.147045
C16   C     C_R   0.500438 0.259857 0.496827 0.869024
C17   C     C_R   0.067253 0.596118 0.535509 0.218359
C18   C     C_3   0.062448 0.633421 0.622722 -0.510952
C19   C     C_3   0.908487 0.633670 0.622337 -0.514024
C20   C     C_R   0.516978 0.501910 0.346201 0.879647
C21   C     C_R   0.482546 0.529790 0.739872 -0.035023
C22   C     C_R   0.416133 0.637760 0.771678 0.085674
C23   C     C_R   0.407224 0.528946 0.133212 0.138337
C24   C     C_R   0.448812 0.683735 0.847350 -0.207613
C25   C     C_R   0.547792 0.623337 0.890705 0.169610
C26   C     C_R   0.612285 0.515525 0.859090 -0.173866
C27   C     C_3   0.306033 0.468441 0.079070 -0.403549
C28   C     C_3   0.163604 0.524335 0.096381 -0.340953
C29   C     C_3   0.061685 0.468031 0.040605 -0.895923
C30   C     C_R   0.427192 0.477419 0.209751 0.014589
C31   C     C_R   0.597885 0.638179 0.233135 0.064428
C32   C     C_R   0.578171 0.688314 0.157154 -0.253055
C33   C     C_R   0.481695 0.636840 0.108354 0.093079
C34   C     C_2   0.575717 0.661485 0.973061 -0.232038
C35   C     C_2   0.471974 0.685843 0.026598 -0.230174
H1    H     H_    0.637302 0.768910 0.136376 0.153955
H2    H     H_    0.102671 0.559461 0.662073 0.229100
H3    H     H_    0.104696 0.728524 0.631257 0.203535
H4    H     H_    0.859578 0.559812 0.661408 0.225329
H5    H     H_    0.862967 0.728673 0.630269 0.202593
H6    H     H_    0.370754 0.702180 0.006137 0.157538
H7    H     H_    0.687471 0.466874 0.892588 0.133486
H8    H     H_    0.634194 0.387774 0.759483 0.147264
H9    H     H_    0.673106 0.633355 0.995203 0.157118
H10   H     H_    0.399121 0.767904 0.871226 0.129986
H11   H     H_    0.362858 0.796221 0.715589 0.168781
H12   H     H_    0.721936 0.885569 0.464779 0.172795
H13   H     H_    0.231648 0.714770 0.759701 0.176942
H14   H     H_    0.279004 0.391420 0.280859 0.207364
H15   H     H_    0.419410 0.301659 0.257348 0.171192
H16   H     H_    0.787213 0.698360 0.253745 0.179670
H17   H     H_    0.660129 0.790845 0.293494 0.179161
H18   H     H_    0.093053 0.488004 0.976209 0.261251
H19   H     H_    0.054685 0.365028 0.049434 0.263915
H20   H     H_    0.959633 0.509912 0.054840 0.247335
H21   H     H_    0.128312 0.505719 0.160417 0.231564
H22   H     H_    0.166737 0.627500 0.087373 0.212406
H23   H     H_    0.722137 0.113111 0.464580 0.166248
H24   H     H_    0.338605 0.479864 0.013977 0.203506
H25   H     H_    0.302381 0.365446 0.088704 0.219862
H26   H     H_    0.268970 0.114493 0.593008 0.204882
H27   H     H_    0.165862 0.112857 0.501126 0.199097
H28   H     H_    0.269931 0.890417 0.593824 0.199709
H29   H     H_    0.165797 0.888624 0.502363 0.203093
H30   H     H_    0.881395 0.338567 0.426322 0.140520
H31   H     H_    0.134459 0.338604 0.426281 0.139206
N1    N     N_R   0.857140 0.500860 0.500530 -0.102574
N2    N     N_R   0.142780 0.500820 0.500530 -0.101849
N3    N     N_3   0.323579 0.706111 0.724963 -0.467771
N4    N     N_3   0.352280 0.367351 0.235078 -0.478651
N5    N     N_3   0.691094 0.697789 0.284361 -0.433468
O1    O     O_R   0.385310 0.683210 0.499990 -0.608441
O2    O     O_R   0.614650 0.683240 0.500000 -0.616042
O3    O     O_R   0.371780 0.500000 0.615800 -0.594295
O4    O     O_R   0.601120 0.500040 0.615800 -0.615626
O5    O     O_R   0.385350 0.316760 0.500000 -0.621121
O6    O     O_R   0.614690 0.316790 0.500010 -0.627213
O7    O     O_R   0.398880 0.499960 0.384200 -0.627265
O8    O     O_R   0.628220 0.500000 0.384200 -0.589383
Zn1   Zn    Zn3+2 0.346870 0.499980 0.499990 0.942909
Zn2   Zn    Zn3+2 0.653130 0.500020 0.500010 0.947370

loop_
_geom_bond_atom_site_label_1
_geom_bond_atom_site_label_2
_ccdc_geom_bond_type
N2    Zn1   S    
H13   N3    S    
C28   H21   S    
C7    C8    A    
C28   H22   S    
C1    C5    S    
C24   H10   S    
C32   H1    S    
C28   C29   S    
C18   H2    S    
C34   C35   D    
C12   H8    S    
C11   H28   S    
C27   H25   S    
C5    C6    A    
O7    Zn1   S    
C29   H19   S    
C18   C19   S    
H11   N3    S    
C8    C9    A    
C23   C33   A    
C14   N1    A    
C23   C27   S    
C9    C10   S    
C7    H23   S    
C4    O3    A    
C25   C34   S    
C31   N5    S    
C8    C16   S    
O3    Zn1   S    
C21   C22   A    
C10   H27   S    
H16   N5    S    
O2    Zn2   S    
C30   N4    S    
C1    O1    A    
C6    H12   S    
C13   C19   S    
C2    C20   S    
C23   C30   A    
C34   H9    S    
C24   C25   A    
C11   H29   S    
C10   C11   S    
O8    Zn2   S    
O4    Zn2   S    
C29   H20   S    
C25   C26   A    
C15   H31   S    
C12   C21   A    
C12   C26   A    
C2    C31   A    
C3    C9    A    
C31   C32   A    
O6    Zn2   S    
C17   C18   S    
C19   H4    S    
N1    Zn2   S    
H14   N4    S    
C22   C24   A    
C10   H26   S    
C26   H7    S    
C13   N1    A    
C17   N2    A    
C22   N3    S    
C20   O8    A    
C16   O5    A    
O5    Zn1   S    
C3    C5    A    
C6    C7    A    
C13   C17   A    
C20   O7    A    
C2    C30   A    
C1    O2    A    
C32   C33   A    
H15   N4    S    
O1    Zn1   S    
H17   N5    S    
C27   H24   S    
C4    C21   S    
C29   H18   S    
C15   N2    A    
C33   C35   S    
C14   H30   S    
C18   H3    S    
C35   H6    S    
C3    C11   S    
C19   H5    S    
C4    O4    A    
C27   C28   S    
C14   C15   A    
C16   O6    A    
