data_mof_unit_45294.cif
_audit_creation_date              2012-12-10T19:04:15-0500
_audit_creation_method            fapswitch 2.2
_symmetry_space_group_name_H-M    P1
_symmetry_Int_Tables_number       1
_space_group_crystal_system       triclinic
_cell_length_a                    10.689224
_cell_length_b                    13.034342
_cell_length_c                    13.604415
_cell_angle_alpha                 85.870742
_cell_angle_beta                  90.273253
_cell_angle_gamma                 94.143781
_cell_volume                      1885.59967432

loop_
_atom_site_label
_atom_site_type_symbol
_atom_type_description
_atom_site_fract_x
_atom_site_fract_y
_atom_site_fract_z
_atom_type_partial_charge
C1    C     C_R   0.497110 0.481309 0.685191 0.890336
C2    C     C_1   0.490282 0.466898 0.788202 -0.173610
C3    C     C_2   0.454363 0.030354 0.496067 0.348546
C4    C     C_R   0.742291 0.500582 0.501424 0.922993
C5    C     C_2   0.553242 0.969325 0.505109 0.004085
C6    C     C_1   0.532359 0.855509 0.511670 0.188159
C7    C     C_1   0.470250 0.144399 0.488754 -0.003958
C8    C     C_R   0.500938 0.518710 0.314824 0.934461
C9    C     C_R   0.256861 0.498729 0.499415 0.932202
C10   C     C_3   0.920284 0.416285 0.579728 0.350719
C11   C     C_3   0.064379 0.425184 0.591969 -0.182676
C12   C     C_3   0.119851 0.494142 0.499214 -0.033751
C13   C     C_3   0.917860 0.475666 0.396761 -0.621465
C14   C     C_3   0.939938 0.610013 0.517203 -0.450362
C15   C     C_3   0.877534 0.501389 0.501056 -0.033417
C16   C     C_3   0.093421 0.611424 0.273997 0.075651
C17   C     C_3   0.036044 0.596194 0.172324 -0.346548
C18   C     C_3   0.988750 0.696340 0.126159 -0.979923
C19   C     C_3   0.487697 0.732711 0.012754 0.105042
C20   C     C_3   0.358801 0.755408 0.051827 -0.346424
C21   C     C_3   0.368128 0.851371 0.110148 -0.988267
C22   C     C_3   0.686908 0.018314 0.499759 -0.458529
C23   C     C_3   0.063293 0.461015 0.394634 0.654640
C24   C     C_3   0.787044 0.944038 0.530166 -0.850922
C25   C     C_3   0.279842 0.978125 0.411641 0.074257
C26   C     C_3   0.146424 0.928220 0.423391 -0.298792
C27   C     C_3   0.085560 0.909820 0.323953 -1.010914
C28   C     C_3   0.851918 0.492452 0.724319 0.091463
C29   C     C_3   0.827287 0.458819 0.832845 -0.328530
C30   C     C_3   0.813681 0.551370 0.893642 -0.961337
C31   C     C_3   0.121073 0.319871 0.620448 -0.408727
C32   C     C_3   0.055105 0.258306 0.707760 -0.812903
C33   C     C_3   0.069794 0.344610 0.371255 -0.397396
C34   C     C_3   0.081782 0.605904 0.516369 -0.487116
C35   C     C_3   0.197147 0.305570 0.346532 -0.739022
C36   C     C_1   0.495919 0.533779 0.211916 -0.198908
C37   C     C_2   0.483802 0.550763 0.019817 0.535951
C38   C     C_2   0.482810 0.460678 0.979260 -0.266125
C39   C     C_1   0.485320 0.459642 0.875580 0.070778
C40   C     C_1   0.490337 0.544559 0.124700 -0.175485
H1    H     H_    0.897591 0.342000 0.546065 0.129986
H2    H     H_    0.178043 0.665798 0.263832 0.162283
H3    H     H_    0.029798 0.650160 0.320274 0.137773
H4    H     H_    0.108028 0.569444 0.123283 0.227924
H5    H     H_    0.956753 0.536142 0.178441 0.218990
H6    H     H_    0.914691 0.723250 0.173078 0.266078
H7    H     H_    0.948425 0.683220 0.052436 0.271707
H8    H     H_    0.067091 0.757019 0.117384 0.269845
H9    H     H_    0.520818 0.798142 0.960240 0.161986
H10   H     H_    0.559634 0.730041 0.072217 0.136740
H11   H     H_    0.293676 0.767421 0.988783 0.230520
H12   H     H_    0.123886 0.664384 0.460662 0.204469
H13   H     H_    0.318764 0.689180 0.100372 0.225045
H14   H     H_    0.428104 0.838939 0.176249 0.266611
H15   H     H_    0.273250 0.867854 0.134640 0.261365
H16   H     H_    0.408304 0.919124 0.063524 0.268447
H17   H     H_    0.767854 0.907834 0.605530 0.262120
H18   H     H_    0.789927 0.883123 0.477297 0.254141
H19   H     H_    0.880260 0.987381 0.530376 0.245788
H20   H     H_    0.706438 0.050979 0.423185 0.206804
H21   H     H_    0.696262 0.082663 0.549319 0.222416
H22   H     H_    0.335183 0.929535 0.366361 0.136421
H23   H     H_    0.885008 0.533635 0.341120 0.182014
H24   H     H_    0.275486 0.056249 0.373110 0.132595
H25   H     H_    0.148414 0.853257 0.467572 0.225754
H26   H     H_    0.089081 0.979344 0.463587 0.220456
H27   H     H_    0.081829 0.983835 0.278495 0.272101
H28   H     H_    0.988454 0.874797 0.335616 0.265068
H29   H     H_    0.139400 0.856105 0.284071 0.260619
H30   H     H_    0.774754 0.539383 0.696749 0.149958
H31   H     H_    0.941551 0.540666 0.720612 0.123056
H32   H     H_    0.740365 0.406764 0.839773 0.233831
H33   H     H_    0.906446 0.415338 0.862691 0.215337
H34   H     H_    0.485772 0.387973 0.023538 0.119343
H35   H     H_    0.901117 0.602985 0.889446 0.258350
H36   H     H_    0.795701 0.524315 0.971917 0.266776
H37   H     H_    0.733903 0.595416 0.866105 0.286867
H38   H     H_    0.049134 0.306978 0.771037 0.263854
H39   H     H_    0.959714 0.228092 0.686789 0.278357
H40   H     H_    0.109409 0.191288 0.731270 0.239645
H41   H     H_    0.122054 0.269702 0.558846 0.225346
H42   H     H_    0.219751 0.334934 0.644377 0.236283
H43   H     H_    0.262533 0.367890 0.312799 0.296199
H44   H     H_    0.239160 0.266868 0.412457 0.253771
H45   H     H_    0.088850 0.468546 0.657377 0.166215
H46   H     H_    0.183658 0.245572 0.292629 0.201407
H47   H     H_    0.019482 0.290123 0.425932 0.148358
H48   H     H_    0.014682 0.335218 0.302304 0.200426
H49   H     H_    0.861016 0.404905 0.377225 0.152189
H50   H     H_    0.912052 0.666925 0.457637 0.197474
H51   H     H_    0.909173 0.640822 0.586118 0.175540
H52   H     H_    0.119003 0.630905 0.588183 0.186859
N1    N     N_1   0.479840 0.234530 0.484780 -0.105620
N2    N     N_1   0.520150 0.765470 0.515220 -0.111322
O1    O     O_R   0.492620 0.402510 0.634760 -0.605068
O2    O     O_3   0.478939 0.642624 0.960022 -0.640509
O3    O     O_3   0.333617 0.984809 0.506076 -0.636412
O4    O     O_3   0.852939 0.403408 0.670830 -0.642937
O5    O     O_R   0.505570 0.572960 0.644530 -0.600939
O6    O     O_R   0.678730 0.414780 0.495130 -0.611252
O7    O     O_R   0.691680 0.585220 0.504900 -0.638544
O8    O     O_R   0.494430 0.427040 0.355470 -0.620232
O9    O     O_R   0.507380 0.597490 0.365240 -0.611891
O10   O     O_R   0.308320 0.414780 0.495100 -0.636370
O11   O     O_R   0.321270 0.585220 0.504870 -0.620509
O12   O     O_3   0.133961 0.516841 0.315657 -0.653511
Zn1   Zn    Zn3+2 0.491360 0.386190 0.493470 0.950946
Zn2   Zn    Zn3+2 0.508640 0.613810 0.506530 0.958487

loop_
_geom_bond_atom_site_label_1
_geom_bond_atom_site_label_2
_ccdc_geom_bond_type
C19   C20   S    
C18   H7    S    
C1    O5    A    
O5    Zn2   S    
C12   C23   S    
N2    Zn2   S    
C26   C27   S    
C29   C30   S    
C31   H42   S    
C28   C29   S    
C33   H48   S    
C17   H5    S    
C20   H11   S    
C3    C7    S    
C10   C15   S    
C24   H19   S    
C22   H20   S    
C21   H14   S    
C35   H46   S    
C29   H33   S    
C9    O11   A    
C13   C23   S    
C1    C2    S    
C8    C36   S    
C10   O4    S    
C3    O3    S    
C14   H50   S    
C27   H28   S    
C30   H37   S    
C2    C39   T    
C5    C22   S    
C24   H17   S    
C23   C33   S    
O9    Zn2   S    
C27   H29   S    
C16   O12   S    
C29   H32   S    
O7    Zn2   S    
C11   C31   S    
C10   H1    S    
C18   H6    S    
C9    C12   S    
C38   C39   S    
C7    N1    T    
O11   Zn2   S    
C26   H26   S    
C36   C40   T    
C21   H15   S    
C35   H43   S    
C16   C17   S    
C6    N2    T    
C25   C26   S    
C23   O12   S    
C37   O2    S    
C25   H24   S    
C37   C38   D    
C32   H40   S    
C30   H36   S    
C19   H9    S    
C31   C32   S    
C13   H23   S    
C1    O1    A    
C4    O7    A    
C17   C18   S    
O8    Zn1   S    
C16   H3    S    
O1    Zn1   S    
C25   O3    S    
C13   C15   S    
C22   C24   S    
C28   H31   S    
C12   C34   S    
C16   H2    S    
C38   H34   S    
C28   O4    S    
O6    Zn1   S    
C13   H49   S    
C26   H25   S    
C28   H30   S    
C20   H13   S    
C3    C5    D    
C18   H8    S    
C14   C34   S    
C21   H16   S    
C35   H44   S    
C37   C40   S    
C34   H12   S    
C31   H41   S    
C4    C15   S    
C4    O6    A    
C33   H47   S    
C17   H4    S    
N1    Zn1   S    
C22   H21   S    
C30   H35   S    
C19   H10   S    
C5    C6    S    
C11   H45   S    
C9    O10   A    
C33   C35   S    
C25   H22   S    
C8    O9    A    
C34   H52   S    
C14   H51   S    
C27   H27   S    
C10   C11   S    
C32   H38   S    
C20   C21   S    
C24   H18   S    
C14   C15   S    
C8    O8    A    
O10   Zn1   S    
C19   O2    S    
C11   C12   S    
C32   H39   S    
