data_mof_unit_62766.cif
_audit_creation_date              2012-10-26T18:56:23-0400
_audit_creation_method            fapswitch 2.2
_symmetry_space_group_name_H-M    P1
_symmetry_Int_Tables_number       1
_space_group_crystal_system       triclinic
_cell_length_a                    10.609361
_cell_length_b                    10.612022
_cell_length_c                    9.416383
_cell_angle_alpha                 89.604856
_cell_angle_beta                  89.762718
_cell_angle_gamma                 90.132584
_cell_volume                      1060.12295709

loop_
_atom_site_label
_atom_site_type_symbol
_atom_type_description
_atom_site_fract_x
_atom_site_fract_y
_atom_site_fract_z
_atom_type_partial_charge
C1    C     C_R   0.500554 0.259555 0.500493 0.571547
C2    C     C_3   0.399299 0.446552 0.051373 -0.010999
C3    C     C_R   0.259427 0.499391 0.500375 0.553484
C4    C     C_R   0.740611 0.500156 0.499628 0.553307
C5    C     C_3   0.039929 0.497506 0.635294 -0.113566
C6    C     C_3   0.960234 0.501460 0.364688 -0.115649
C7    C     C_3   0.957033 0.395154 0.565929 -0.123098
C8    C     C_3   0.043150 0.603740 0.434109 -0.122402
C9    C     C_3   0.877600 0.499936 0.498746 0.048352
C10   C     C_3   0.122505 0.499017 0.501266 0.049271
C11   C     C_3   0.958236 0.602282 0.567949 -0.123706
C12   C     C_R   0.499251 0.740453 0.499511 0.572014
C13   C     C_3   0.041945 0.396667 0.432023 -0.127269
C14   C     C_3   0.522687 0.039690 0.634338 -0.149587
C15   C     C_3   0.477024 0.960452 0.365731 -0.151726
C16   C     C_3   0.613497 0.957292 0.544874 -0.160996
C17   C     C_3   0.386118 0.042732 0.455262 -0.162380
C18   C     C_3   0.499623 0.877163 0.498251 0.020083
C19   C     C_3   0.499946 0.122865 0.501789 0.020774
C20   C     C_3   0.261201 0.997004 0.761862 0.009257
C21   C     C_3   0.302649 0.974807 0.915626 -0.259927
C22   C     C_3   0.249150 0.074964 0.014466 -0.491030
C23   C     C_3   0.410490 0.958521 0.585945 0.278026
C24   C     C_3   0.750808 0.000744 0.253802 0.006292
C25   C     C_3   0.889025 0.006946 0.298666 -0.259425
C26   C     C_3   0.968642 0.911675 0.217505 -0.495513
C27   C     C_3   0.589074 0.041524 0.414286 0.277336
C28   C     C_3   0.504175 0.613802 0.049461 -0.009342
C29   C     C_3   0.495802 0.386208 0.950535 -0.007865
C30   C     C_3   0.403586 0.560305 0.949303 -0.004508
C31   C     C_3   0.596397 0.439705 0.050693 -0.001550
C32   C     C_3   0.600680 0.553459 0.948636 -0.010737
Cu1   Cu    Cu3+1 0.500030 0.499990 0.643150 0.932504
Cu2   Cu    Cu3+1 0.499970 0.500010 0.356850 0.933246
H1    H     H_    0.918531 0.309810 0.619605 0.108799
H2    H     H_    0.460863 0.925762 0.256311 0.104267
H3    H     H_    0.322645 0.611347 0.901782 0.113198
H4    H     H_    0.677375 0.388750 0.098240 0.116634
H5    H     H_    0.507711 0.709901 0.095119 0.094820
H6    H     H_    0.492357 0.290155 0.904777 0.100724
H7    H     H_    0.685328 0.598707 0.900680 0.097841
H8    H     H_    0.314643 0.401355 0.099377 0.098630
H9    H     H_    0.157167 0.986055 0.756376 0.137915
H10   H     H_    0.282126 0.096216 0.728829 0.119347
H11   H     H_    0.269744 0.880309 0.951806 0.160915
H12   H     H_    0.083010 0.688642 0.381008 0.113399
H13   H     H_    0.407141 0.976704 0.922034 0.156666
H14   H     H_    0.284849 0.169683 0.983317 0.139399
H15   H     H_    0.278696 0.054829 0.125279 0.147339
H16   H     H_    0.144576 0.074983 0.010197 0.141313
H17   H     H_    0.744597 0.020097 0.137923 0.138325
H18   H     H_    0.714714 0.902845 0.271306 0.117959
H19   H     H_    0.926620 0.103276 0.278067 0.168377
H20   H     H_    0.896142 0.986838 0.414344 0.156799
H21   H     H_    0.932769 0.814644 0.236931 0.145256
H22   H     H_    0.068020 0.917180 0.253611 0.146852
H23   H     H_    0.075312 0.495842 0.746101 0.111451
H24   H     H_    0.965741 0.932253 0.101759 0.139420
H25   H     H_    0.924899 0.503270 0.253866 0.110668
H26   H     H_    0.920711 0.686461 0.623138 0.101027
H27   H     H_    0.079468 0.312558 0.376669 0.096761
H28   H     H_    0.706137 0.919221 0.578547 0.094048
H29   H     H_    0.293253 0.080503 0.421851 0.095264
H30   H     H_    0.540479 0.075642 0.742822 0.103698
N1    N     N_3   0.500090 0.499970 0.858290 -0.228802
N2    N     N_3   0.499910 0.500030 0.141710 -0.228232
O1    O     O_R   0.500060 0.316850 0.620870 -0.525018
O2    O     O_3   0.682066 0.095471 0.325119 -0.559754
O3    O     O_R   0.499940 0.683150 0.379130 -0.525176
O4    O     O_R   0.500000 0.316860 0.379090 -0.470802
O5    O     O_R   0.500000 0.683140 0.620910 -0.472312
O6    O     O_R   0.316880 0.499960 0.620870 -0.504347
O7    O     O_R   0.683120 0.500040 0.379130 -0.504691
O8    O     O_R   0.316830 0.499970 0.379090 -0.511041
O9    O     O_R   0.683170 0.500030 0.620910 -0.511137
O10   O     O_3   0.315862 0.904685 0.673232 -0.560018

loop_
_geom_bond_atom_site_label_1
_geom_bond_atom_site_label_2
_ccdc_geom_bond_type
C24   H18   S    
C15   C18   S    
C22   H14   S    
C12   O3    A    
C31   N2    S    
C23   O10   S    
C26   H21   S    
Cu2   N2    S    
C6    C9    S    
Cu1   N1    S    
C17   C23   S    
C2    C29   S    
C25   H19   S    
C5    C11   S    
C20   O10   S    
C15   C17   S    
C3    O8    A    
C4    O9    A    
C27   O2    S    
Cu1   O6    S    
C17   C19   S    
Cu1   O9    S    
C32   H7    S    
C19   C27   S    
Cu2   O4    S    
C22   H16   S    
C24   H17   S    
C21   C22   S    
C16   H28   S    
C14   C19   S    
C20   H10   S    
C21   H11   S    
C1    C19   S    
C18   C23   S    
C28   C32   S    
C25   H20   S    
C5    C7    S    
Cu1   O5    S    
C6    C8    S    
C28   H5    S    
C25   C26   S    
C30   H3    S    
C14   C23   S    
C28   N2    S    
C9    C11   S    
C15   C27   S    
C31   C32   S    
C14   H30   S    
C16   C27   S    
Cu1   Cu2   S    
C24   C25   S    
C26   H24   S    
Cu2   O3    S    
C4    O7    A    
Cu2   O8    S    
C22   H15   S    
C29   N1    S    
C16   C18   S    
C12   O5    A    
C14   C16   S    
C11   H26   S    
C15   H2    S    
C20   H9    S    
Cu1   O1    S    
C7    C9    S    
C7    H1    S    
C6    H25   S    
C2    N2    S    
C10   C13   S    
C26   H22   S    
C1    O4    A    
C31   H4    S    
C5    H23   S    
C2    C30   S    
C28   C30   S    
C3    O6    A    
C5    C10   S    
C29   C31   S    
C3    C10   S    
C17   H29   S    
C6    C13   S    
C2    H8    S    
C8    C11   S    
C29   H6    S    
C1    O1    A    
C8    H12   S    
C30   N1    S    
C24   O2    S    
Cu2   O7    S    
C7    C13   S    
C13   H27   S    
C20   C21   S    
C8    C10   S    
C12   C18   S    
C4    C9    S    
C32   N1    S    
C21   H13   S    
