data_mof_unit_62019.cif
_audit_creation_date              2012-12-11T18:32:03-0500
_audit_creation_method            fapswitch 2.2
_symmetry_space_group_name_H-M    P1
_symmetry_Int_Tables_number       1
_space_group_crystal_system       triclinic
_cell_length_a                    8.233927
_cell_length_b                    14.293325
_cell_length_c                    18.773633
_cell_angle_alpha                 94.130438
_cell_angle_beta                  92.149019
_cell_angle_gamma                 91.803333
_cell_volume                      2200.88932016

loop_
_atom_site_label
_atom_site_type_symbol
_atom_type_description
_atom_site_fract_x
_atom_site_fract_y
_atom_site_fract_z
_atom_type_partial_charge
Ba1   Ba    Ba6+2 0.841340 0.543980 0.464170 1.815876
Ba2   Ba    Ba6+2 0.348470 0.456100 0.535830 1.718220
C1    C     C_3   0.603735 0.888414 0.261614 0.532143
C2    C     C_3   0.603529 0.795333 0.296312 0.040475
C3    C     C_3   0.496548 0.319724 0.323714 0.345074
C4    C     C_3   0.477213 0.295149 0.243637 -0.381179
C5    C     C_3   0.109681 0.262028 0.740032 0.423376
C6    C     C_3   0.112594 0.234597 0.817337 -0.031385
C7    C     C_3   0.600050 0.203687 0.702706 0.440001
C8    C     C_3   0.553486 0.103746 0.720984 0.032375
C9    C     C_2   0.302940 0.524102 0.294122 0.345019
C10   C     C_3   0.386017 0.588377 0.245593 -0.089453
C11   C     C_2   0.354343 0.557734 0.167038 0.120447
C12   C     C_3   0.076751 0.751638 0.260044 0.403226
C13   C     C_2   0.209799 0.511718 0.146463 -0.038630
C14   C     C_2   0.107558 0.475622 0.204959 -0.247351
C15   C     C_1   0.163553 0.479857 0.273226 -0.019421
C16   C     C_R   0.040493 0.490244 0.928453 0.453686
C17   C     C_R   0.149434 0.502089 0.068912 0.527941
C18   C     C_R   0.076720 0.526404 0.799084 -0.135372
C19   C     C_R   0.025079 0.519004 0.726249 0.047468
C20   C     C_R   0.782259 0.431768 0.756573 0.008707
C21   C     C_R   0.834167 0.437903 0.828909 -0.154136
C22   C     C_R   0.983697 0.484057 0.851217 -0.066670
C23   C     C_3   0.048472 0.783153 0.184967 0.459697
C24   C     C_R   0.880747 0.469066 0.705775 -0.269660
C25   C     C_R   0.699064 0.935879 0.538695 -0.014013
C26   C     C_R   0.512580 0.800622 0.496808 -0.025263
C27   C     C_R   0.370534 0.767879 0.458388 0.303957
C28   C     C_R   0.265516 0.830332 0.428624 -0.070379
C29   C     C_R   0.310974 0.924922 0.429267 -0.256659
C30   C     C_R   0.457651 0.958771 0.463818 -0.009168
C31   C     C_R   0.557792 0.897692 0.500425 -0.095891
C32   C     C_R   0.643556 0.091420 0.500342 -0.021012
C33   C     C_R   0.744677 0.031348 0.537424 0.001515
C34   C     C_3   0.187621 0.743600 0.609957 0.308306
C35   C     C_R   0.687467 0.187708 0.500945 0.092692
C36   C     C_R   0.830649 0.222473 0.537066 -0.236638
C37   C     C_R   0.936396 0.162647 0.569528 0.003584
C38   C     C_R   0.892207 0.067309 0.571123 -0.148981
C39   C     C_R   0.501810 0.053774 0.463670 0.003779
C40   C     C_3   0.196672 0.849739 0.624930 -0.422722
C41   C     C_3   0.024448 0.246763 0.381944 0.868709
C42   C     C_3   0.124277 0.159318 0.375388 -0.264619
C43   C     C_3   0.698641 0.666254 0.673600 0.296741
C44   C     C_3   0.714053 0.692894 0.753550 -0.383065
H1    H     H_    0.674094 0.804584 0.348052 0.104497
H2    H     H_    0.295602 0.870207 0.665434 0.124974
H3    H     H_    0.221269 0.884440 0.575365 0.064409
H4    H     H_    0.079276 0.874259 0.645310 0.121222
H5    H     H_    0.057149 0.286194 0.433898 -0.056063
H6    H     H_    0.073618 0.109950 0.331085 0.143531
H7    H     H_    0.121705 0.123949 0.426086 0.053541
H8    H     H_    0.251110 0.178153 0.363487 0.049814
H9    H     H_    0.819956 0.649406 0.654013 0.001139
H10   H     H_    0.614878 0.603803 0.664369 0.062848
H11   H     H_    0.801687 0.753354 0.764487 0.123714
H12   H     H_    0.757819 0.633043 0.782416 0.067855
H13   H     H_    0.593732 0.712366 0.773802 0.127793
H14   H     H_    0.475004 0.777348 0.307127 0.153375
H15   H     H_    0.542344 0.941455 0.296384 -0.035157
H16   H     H_    0.376199 0.338244 0.343992 0.010478
H17   H     H_    0.583269 0.380837 0.332871 0.104919
H18   H     H_    0.387151 0.235914 0.232534 0.120493
H19   H     H_    0.434219 0.356706 0.216411 0.036183
H20   H     H_    0.595865 0.274843 0.222042 0.152711
H21   H     H_    0.536909 0.879792 0.208952 -0.011364
H22   H     H_    0.109283 0.852893 0.180752 0.026620
H23   H     H_    0.180413 0.328996 0.736977 0.068968
H24   H     H_    0.981700 0.273315 0.723549 -0.147524
H25   H     H_    0.026776 0.278166 0.848432 0.025475
H26   H     H_    0.071305 0.159794 0.817712 0.088605
H27   H     H_    0.734051 0.212676 0.706422 -0.121373
H28   H     H_    0.557425 0.210827 0.646580 0.006058
H29   H     H_    0.634927 0.052851 0.694056 -0.003278
H30   H     H_    0.427977 0.085975 0.699419 0.105466
H31   H     H_    0.017672 0.680968 0.262622 0.043861
H32   H     H_    0.989249 0.442534 0.190652 0.143489
H33   H     H_    0.189091 0.565001 0.814811 0.107825
H34   H     H_    0.757052 0.408056 0.867509 0.093340
H35   H     H_    0.840014 0.464055 0.650150 0.058316
H36   H     H_    0.230179 0.972026 0.404084 0.106401
H37   H     H_    0.973503 0.021429 0.597456 0.068864
H38   H     H_    0.209723 0.748044 0.270543 -0.187758
H39   H     H_    0.864297 0.296217 0.536521 0.049977
H40   H     H_    0.776221 0.892485 0.569193 0.094458
H41   H     H_    0.423740 0.097707 0.434529 0.074863
H42   H     H_    0.916342 0.788368 0.172692 0.113416
H43   H     H_    0.307596 0.719556 0.593753 0.037647
H44   H     H_    0.095110 0.725606 0.566220 0.087945
N1    N     N_R   0.162991 0.551484 0.952315 -0.243903
N2    N     N_R   0.214803 0.557527 0.020655 -0.208584
N3    N     N_R   0.024841 0.441420 0.045360 -0.256757
N4    N     N_R   0.971836 0.435605 0.976742 -0.254140
O1    O     O_2   0.878750 0.447310 0.330740 -0.465970
O2    O     O_3   0.638217 0.742556 0.639519 -0.652521
O3    O     O_3   0.008938 0.816602 0.309107 -0.580161
O4    O     O_2   0.310950 0.552720 0.669300 -0.458952
O5    O     O_3   0.058670 0.551200 0.581940 -0.485411
O6    O     O_3   0.562310 0.381900 0.632830 -0.489605
O7    O     O_3   0.145901 0.702781 0.672471 -0.643304
O8    O     O_3   0.636050 0.386930 0.468580 -0.448632
O9    O     O_3   0.150490 0.333430 0.599380 -0.483818
O10   O     O_2   0.276342 0.167443 0.566125 -0.504039
O11   O     O_3   0.175371 0.190215 0.695935 -0.601692
O12   O     O_3   0.131030 0.448880 0.418060 -0.406757
O13   O     O_3   0.553640 0.613150 0.531430 -0.389695
O14   O     O_2   0.393070 0.270760 0.474720 -0.495261
O15   O     O_3   0.554872 0.242021 0.356966 -0.580376
O16   O     O_2   0.444979 0.445610 0.755453 -0.498264
O17   O     O_3   0.528305 0.269949 0.749788 -0.571652
O18   O     O_3   0.627390 0.618170 0.367170 -0.393378
O19   O     O_2   0.723371 0.544267 0.242376 -0.477768
O20   O     O_3   0.048760 0.297828 0.322242 -0.660607
O21   O     O_3   0.673963 0.726054 0.251064 -0.602328
O22   O     O_2   0.796630 0.729270 0.525320 -0.492240
O23   O     O_3   0.039210 0.666640 0.400620 -0.415572
O24   O     O_2   0.932168 0.834507 0.442372 -0.487226
P1    P     P_3+3 0.053470 0.419720 0.342720 1.068293
P2    P     P_3+3 0.625250 0.715650 0.546950 1.029909
P3    P     P_3+3 0.061865 0.787817 0.395684 1.025305
P4    P     P_3+3 0.136230 0.580350 0.657290 0.998853
P5    P     P_3+3 0.134448 0.212066 0.606528 0.947855
P6    P     P_3+3 0.604317 0.615936 0.274620 1.019743
P7    P     P_3+3 0.571861 0.269993 0.449405 1.042927
P8    P     P_3+3 0.580072 0.382840 0.725630 0.941439
F1    F     F_    0.864797 0.217072 0.379700 -0.738742
F2    F     F_    0.761047 0.920385 0.252268 -0.665684
N5    N     N_2   0.274394 0.248565 0.850166 -0.367826
H45   H     H_    0.316667 0.317487 0.852383 0.220253
C45   C     C_3   0.297438 0.207452 0.917769 -0.185603
H46   H     H_    0.218168 0.241060 0.958146 0.100620
H47   H     H_    0.426325 0.218365 0.936971 0.118494
H48   H     H_    0.269232 0.130714 0.911387 0.113372
N6    N     N_2   0.558765 0.094094 0.797495 -0.379225
H49   H     H_    0.494725 0.035232 0.811084 0.194824
C46   C     C_3   0.717611 0.104873 0.833301 -0.195691
H50   H     H_    0.707181 0.092026 0.890610 0.103497
H51   H     H_    0.766977 0.177543 0.830507 0.113865
H52   H     H_    0.802193 0.053905 0.808798 0.085535
N7    N     N_2   0.474896 0.578370 0.117112 -0.417895
H53   H     H_    0.489703 0.529706 0.074790 0.198816
C47   C     C_3   0.501696 0.675857 0.102981 -0.076552
H54   H     H_    0.454931 0.687761 0.048275 0.125219
H55   H     H_    0.634180 0.693212 0.106486 0.118180
H56   H     H_    0.440356 0.723924 0.141786 0.118426
F3    F     F_    0.368586 0.517042 0.360856 -0.668275
F4    F     F_    0.328184 0.675253 0.454302 -0.666437
F5    F     F_    0.111050 0.719272 0.135456 -0.748798

loop_
_geom_bond_atom_site_label_1
_geom_bond_atom_site_label_2
_ccdc_geom_bond_type
C34   H43   S    
C7    O17   S    
C47   H56   S    
C19   C24   A    
N3    N4    A    
C44   H13   S    
C32   C35   A    
C2    O21   S    
C34   C40   S    
C12   H38   S    
O8    P7    S    
O9    P5    S    
Ba1   O5    S    
C5    H24   S    
N6    H49   S    
O10   P5    D    
C43   C44   S    
C25   C31   A    
C13   C17   S    
C46   H51   S    
C3    H17   S    
C35   C36   A    
C29   H36   S    
C16   C22   S    
C16   N1    A    
C26   C27   A    
O18   P6    S    
N7    C47   S    
C41   O20   S    
C3    C4    S    
O12   P1    S    
C20   P8    S    
C26   C31   A    
Ba2   O8    S    
C47   H54   S    
C47   H55   S    
Ba2   O13   S    
C37   P5    S    
O11   P5    S    
C23   F5    S    
C32   C33   A    
Ba1   P1    S    
C12   H31   S    
C4    H18   S    
C19   P4    S    
O23   P3    S    
O3    P3    S    
C17   N2    A    
C8    H30   S    
C42   H7    S    
C4    H19   S    
C18   C22   A    
C43   H10   S    
C14   C15   D    
C21   C22   A    
C5    O11   S    
Ba1   O22   S    
C11   N7    S    
O14   P7    D    
C7    C8    S    
O20   P1    S    
C17   N3    A    
Ba1   O12   S    
C42   H6    S    
C1    H15   S    
Ba2   O6    S    
C44   H12   S    
C38   H37   S    
C32   C39   A    
C7    H27   S    
C27   F4    S    
C35   P7    S    
Ba2   P4    S    
C39   H41   S    
C46   H52   S    
C6    H26   S    
C13   C14   S    
C36   H39   S    
C5    C6    S    
C8    N6    S    
C26   P2    S    
C41   F1    S    
C37   C38   A    
C1    F2    S    
C40   H2    S    
O1    P1    D    
Ba2   O12   S    
C23   H42   S    
O22   P2    D    
C34   O7    S    
O24   P3    D    
C25   H40   S    
C41   C42   S    
C27   C28   A    
C8    H29   S    
C29   C30   A    
C10   P6    S    
C28   P3    S    
C28   C29   A    
Ba1   O1    S    
C2    H14   S    
O17   P8    S    
Ba1   O23   S    
C10   C11   S    
C43   H9    S    
O16   P8    D    
O5    P4    S    
O4    P4    D    
O15   P7    S    
C40   H4    S    
Ba2   O5    S    
C24   H35   S    
C11   C13   D    
C44   H11   S    
C21   H34   S    
O6    P8    S    
C7    H28   S    
C30   C39   A    
C1    C2    S    
O13   P2    S    
N1    N2    A    
C12   O3    S    
N5    H45   S    
C34   H44   S    
N6    C46   S    
C9    C15   D    
C6    H25   S    
O21   P6    S    
C18   H33   S    
O2    P2    S    
C1    H21   S    
C45   H47   S    
C5    H23   S    
C9    C10   S    
C23   H22   S    
C46   H50   S    
O7    P4    S    
C25   C33   A    
C30   C31   A    
C33   C38   A    
Ba1   O18   S    
N7    H53   S    
C41   H5    S    
C36   C37   A    
O19   P6    D    
C3    O15   S    
Ba2   O9    S    
C16   N4    A    
Ba1   Ba2   S    
Ba2   O14   S    
C3    H16   S    
C14   H32   S    
C12   C23   S    
C15   P1    S    
C40   H3    S    
Ba1   O13   S    
C42   H8    S    
C4    H20   S    
C18   C19   A    
Ba2   O4    S    
C20   C24   A    
C6    N5    S    
C20   C21   A    
C9    F3    S    
C43   O2    S    
Ba1   O8    S    
Ba1   P2    S    
C45   H48   S    
C45   H46   S    
N5    C45   S    
C2    H1    S    
