data_mof_unit_28360.cif
_audit_creation_date              2012-12-10T19:05:19-0500
_audit_creation_method            fapswitch 2.2
_symmetry_space_group_name_H-M    P1
_symmetry_Int_Tables_number       1
_space_group_crystal_system       triclinic
_cell_length_a                    9.579565
_cell_length_b                    10.798743
_cell_length_c                    17.315581
_cell_angle_alpha                 90.954036
_cell_angle_beta                  85.82567
_cell_angle_gamma                 90.646691
_cell_volume                      1786.15875724

loop_
_atom_site_label
_atom_site_type_symbol
_atom_type_description
_atom_site_fract_x
_atom_site_fract_y
_atom_site_fract_z
_atom_type_partial_charge
C1    C     C_R   0.500532 0.737778 0.503520 0.837296
C2    C     C_R   0.402183 0.392269 0.773984 -0.011698
C3    C     C_R   0.431561 0.443978 0.147574 -0.120381
C4    C     C_R   0.437093 0.434780 0.226650 -0.154306
C5    C     C_R   0.618684 0.595764 0.225569 -0.057391
C6    C     C_R   0.616220 0.602327 0.144282 0.441169
C7    C     C_R   0.519867 0.526714 0.106066 -0.035709
C8    C     C_2   0.534668 0.443387 0.972288 -0.095128
C9    C     C_2   0.502296 0.537795 0.022750 0.324586
C10   C     C_R   0.527612 0.510939 0.266265 -0.160867
C11   C     C_R   0.376823 0.935169 0.511328 0.008788
C12   C     C_R   0.481808 0.496695 0.649452 0.747448
C13   C     C_R   0.500421 0.871135 0.516643 -0.205471
C14   C     C_R   0.617480 0.936611 0.542794 0.404589
C15   C     C_R   0.613301 0.067969 0.548353 0.335697
C16   C     C_R   0.494993 0.130763 0.523305 -0.264637
C17   C     C_R   0.372797 0.061602 0.515720 -0.012719
C18   C     C_3   0.258121 0.067227 0.461711 -0.166952
C19   C     C_3   0.266391 0.925921 0.455194 -0.350245
C20   C     C_R   0.935211 0.484642 0.432515 0.197116
C21   C     C_R   0.916706 0.533768 0.564139 -0.046172
C22   C     C_R   0.064636 0.539206 0.563549 0.451579
C23   C     C_R   0.498587 0.262830 0.506382 0.821808
C24   C     C_R   0.081977 0.483423 0.432684 0.085092
C25   C     C_3   0.096650 0.379433 0.375116 -0.559611
C26   C     C_3   0.937095 0.378968 0.375225 0.703979
C27   C     C_R   0.518512 0.503199 0.350447 0.797916
C28   C     C_R   0.475818 0.488477 0.733333 -0.089903
C29   C     C_R   0.563570 0.569431 0.771863 -0.178544
C30   C     C_R   0.581705 0.554833 0.849655 -0.040323
C31   C     C_R   0.511112 0.459702 0.890409 0.085154
C32   C     C_R   0.420448 0.379823 0.853190 -0.139489
Cu1   Cu    Cu3+1 0.359330 0.500020 0.500000 0.948722
Cu2   Cu    Cu3+1 0.640670 0.499980 0.500000 1.014287
H1    H     H_    0.621847 0.642034 0.740819 0.160468
H2    H     H_    0.290045 0.116028 0.407117 0.140510
H3    H     H_    0.172922 0.874015 0.479613 0.233916
H4    H     H_    0.308439 0.892604 0.397068 0.174726
H5    H     H_    0.854732 0.562105 0.615923 0.182711
H6    H     H_    0.149390 0.410259 0.319445 0.205129
H7    H     H_    0.369314 0.368251 0.257328 0.149534
H8    H     H_    0.141107 0.295390 0.398924 0.175271
H9    H     H_    0.366968 0.306403 0.885868 0.173568
H10   H     H_    0.357593 0.386509 0.118358 0.158283
H11   H     H_    0.652915 0.616367 0.877946 0.159002
N1    N     N_R   0.852130 0.499070 0.499500 -0.253055
N2    N     N_R   0.148040 0.499110 0.499500 -0.237700
O1    O     O_R   0.381190 0.680360 0.500000 -0.608609
O2    O     O_R   0.618770 0.680320 0.499990 -0.524396
O3    O     O_R   0.367430 0.500040 0.613600 -0.567653
O4    O     O_R   0.605020 0.500000 0.613590 -0.599027
O5    O     O_R   0.381230 0.319680 0.500010 -0.607637
O6    O     O_R   0.618810 0.319640 0.500000 -0.526178
O7    O     O_R   0.394980 0.500000 0.386410 -0.575965
O8    O     O_R   0.632570 0.499960 0.386400 -0.542214
O9    O     O_3   0.705006 0.685584 0.104827 -0.664399
H12   H     H_    0.705765 0.669896 0.048373 0.336365
O10   O     O_3   0.732671 0.870951 0.562346 -0.694557
H13   H     H_    0.804352 0.928143 0.581366 0.394900
O11   O     O_3   0.725347 0.131001 0.576615 -0.697964
H14   H     H_    0.688651 0.204428 0.606248 0.326713
C33   C     C_2   0.125212 0.114300 0.503384 0.423674
H15   H     H_    0.126145 0.202127 0.534767 0.080291
O12   O     O_2   0.015336 0.056454 0.501127 -0.503268
O13   O     O_3   0.120152 0.592645 0.626913 -0.705090
H16   H     H_    0.193575 0.651062 0.606519 0.359648
O14   O     O_3   0.889179 0.414325 0.304343 -0.683464
H17   H     H_    0.908049 0.343596 0.267904 0.354275
O15   O     O_3   0.871307 0.269704 0.403257 -0.661997
H18   H     H_    0.897529 0.257693 0.456968 0.344539
C34   C     C_2   0.709953 0.681850 0.268080 0.517430
H19   H     H_    0.683143 0.706126 0.328294 0.034782
O16   O     O_2   0.816689 0.726494 0.236658 -0.448899
O17   O     O_3   0.445590 0.645054 0.995986 -0.707261
H20   H     H_    0.424138 0.701989 0.040721 0.343226
C35   C     C_2   0.314446 0.299901 0.734399 0.382675
H21   H     H_    0.311600 0.297953 0.671993 0.079935
O18   O     O_2   0.244239 0.223155 0.771379 -0.520367
C36   C     C_2   0.599266 0.324435 0.993030 0.325584
H22   H     H_    0.602653 0.247759 0.951624 0.099252
O19   O     O_2   0.653846 0.311602 0.053894 -0.502390

loop_
_geom_bond_atom_site_label_1
_geom_bond_atom_site_label_2
_ccdc_geom_bond_type
C10   C27   S    
C8    C9    D    
C15   O11   S    
C30   H11   S    
C27   O7    A    
Cu1   O5    S    
C11   C19   S    
Cu2   O4    S    
C33   H15   S    
C12   C28   S    
C26   O14   S    
C28   C29   A    
C35   O18   D    
C3    C7    A    
C25   H6    S    
C5    C6    A    
C27   O8    A    
C4    H7    S    
C15   C16   A    
O9    H12   S    
C2    C32   A    
C18   C19   S    
C33   O12   D    
C19   H3    S    
C20   C24   A    
C16   C17   A    
C8    C36   S    
Cu2   N1    S    
C22   N2    A    
Cu2   O8    S    
C21   C22   A    
C24   N2    A    
C25   C26   S    
C23   O6    A    
C14   O10   S    
C3    H10   S    
O17   H20   S    
O14   H17   S    
C24   C25   S    
C34   O16   D    
C18   C33   S    
Cu1   O3    S    
O11   H14   S    
C22   O13   S    
C29   C30   A    
C19   H4    S    
C31   C32   A    
C21   H5    S    
C17   C18   S    
C35   H21   S    
C16   C23   S    
Cu1   N2    S    
C1    C13   S    
C9    O17   S    
C4    C10   A    
C3    C4    A    
C12   O4    A    
C2    C35   S    
C36   O19   D    
C21   N1    A    
Cu1   O7    S    
C7    C9    S    
C11   C17   A    
Cu2   O2    S    
C8    C31   S    
C6    O9    S    
C25   H8    S    
C12   O3    A    
C1    O1    A    
C6    C7    A    
C29   H1    S    
O10   H13   S    
C34   H19   S    
C5    C34   S    
C11   C13   A    
C18   H2    S    
C23   O5    A    
C30   C31   A    
C20   C26   S    
C32   H9    S    
Cu1   Cu2   S    
O15   H18   S    
C36   H22   S    
C5    C10   A    
Cu2   O6    S    
O13   H16   S    
Cu1   O1    S    
C14   C15   A    
C2    C28   A    
C26   O15   S    
C13   C14   A    
C1    O2    A    
C20   N1    A    
