data_mof_unit_49170.cif
_audit_creation_date              2012-12-11T16:58:22-0500
_audit_creation_method            fapswitch 2.2
_symmetry_space_group_name_H-M    P1
_symmetry_Int_Tables_number       1
_space_group_crystal_system       triclinic
_cell_length_a                    16.953986
_cell_length_b                    7.262
_cell_length_c                    16.776266
_cell_angle_alpha                 90.08103
_cell_angle_beta                  100.290019
_cell_angle_gamma                 89.913008
_cell_volume                      2032.26656858

loop_
_atom_site_label
_atom_site_type_symbol
_atom_type_description
_atom_site_fract_x
_atom_site_fract_y
_atom_site_fract_z
_atom_type_partial_charge
O1    O     O_R   0.413450 0.494370 0.415710 -0.535311
O2    O     O_R   0.586550 0.994370 0.584290 -0.534932
O3    O     O_R   0.578420 0.819350 0.429360 -0.539065
O4    O     O_R   0.421580 0.319350 0.570640 -0.540503
C1    C     C_R   0.604971 0.656778 0.413993 0.698749
C2    C     C_R   0.395012 0.157151 0.585999 0.699691
O5    O     O_R   0.413570 0.823780 0.406240 -0.541442
O6    O     O_R   0.586430 0.323780 0.593760 -0.541176
O7    O     O_R   0.420530 0.998740 0.561000 -0.536618
O8    O     O_R   0.579470 0.498740 0.439000 -0.535460
C3    C     C_R   0.385950 0.655380 0.383838 0.684474
C4    C     C_R   0.614052 0.155367 0.616166 0.688025
O9    O     O_3   0.502480 0.662320 0.550800 -0.377890
O10   O     O_3   0.497520 0.162320 0.449200 -0.377345
V1    V     V_3+5 0.499540 0.935370 0.490580 1.390875
V2    V     V_3+5 0.500460 0.435370 0.509420 1.389477
C5    C     C_R   0.734282 0.990350 0.694763 0.111503
C6    C     C_R   0.265744 0.490616 0.305236 0.112539
C7    C     C_R   0.685150 0.147026 0.682360 -0.109342
C8    C     C_R   0.314853 0.647068 0.317639 -0.110049
C9    C     C_R   0.708766 0.300031 0.732776 -0.187295
C10   C     C_R   0.291220 0.799878 0.267213 -0.189641
H1    H     H_    0.674093 0.425755 0.725030 0.146007
H2    H     H_    0.325877 0.925427 0.274952 0.145631
C11   C     C_R   0.774571 0.288785 0.797219 -0.183796
C12   C     C_R   0.225419 0.788616 0.202767 -0.184537
H3    H     H_    0.788209 0.406989 0.836543 0.138019
H4    H     H_    0.211767 0.906646 0.163437 0.138097
C13   C     C_R   0.818913 0.123876 0.813545 -0.108475
C14   C     C_R   0.181095 0.623883 0.186446 -0.108330
C15   C     C_R   0.799162 0.978986 0.758452 0.115868
C16   C     C_R   0.200867 0.479236 0.241545 0.116135
C17   C     C_3   0.783864 0.780678 0.772650 -0.424700
C18   C     C_3   0.216196 0.280742 0.227355 -0.425204
C19   C     C_3   0.713056 0.793014 0.703002 -0.408054
C20   C     C_3   0.287004 0.293095 0.297001 -0.408798
H5    H     H_    0.765905 0.756046 0.832336 0.169297
H6    H     H_    0.234158 0.255605 0.167670 0.168401
H7    H     H_    0.832921 0.690882 0.758984 0.177977
H8    H     H_    0.167155 0.191344 0.241025 0.178331
H9    H     H_    0.654115 0.775328 0.722361 0.175352
H10   H     H_    0.345947 0.274917 0.277639 0.172807
H11   H     H_    0.721403 0.710366 0.649286 0.170641
H12   H     H_    0.278673 0.210848 0.350719 0.171172
C21   C     C_R   0.332207 0.161878 0.637620 -0.064860
C22   C     C_R   0.667874 0.660634 0.362486 -0.073836
C23   C     C_R   0.168420 0.105715 0.863743 -0.117121
C24   C     C_R   0.831443 0.608006 0.135868 -0.109233
C25   C     C_R   0.270915 0.917228 0.813882 0.280033
C26   C     C_R   0.723305 0.429508 0.179938 0.280232
C27   C     C_R   0.218552 0.949418 0.869114 -0.192457
C28   C     C_R   0.777694 0.458579 0.126568 -0.195375
C29   C     C_R   0.173332 0.236739 0.803841 -0.254683
C30   C     C_R   0.828837 0.734490 0.198313 -0.259700
C31   C     C_R   0.225745 0.209493 0.748426 0.125129
C32   C     C_R   0.775000 0.709029 0.252428 0.109043
C33   C     C_R   0.274877 0.049518 0.752815 0.079013
C34   C     C_R   0.722287 0.555331 0.244188 0.083514
C35   C     C_R   0.328052 0.028011 0.696915 -0.231852
C36   C     C_R   0.669936 0.531238 0.300669 -0.227852
C37   C     C_R   0.281269 0.316262 0.633208 -0.164003
C38   C     C_R   0.720904 0.811167 0.369478 -0.148867
C39   C     C_R   0.228860 0.339743 0.687713 -0.172727
C40   C     C_R   0.773979 0.834488 0.315626 -0.147630
H13   H     H_    0.369058 0.912664 0.701215 0.137083
H14   H     H_    0.628718 0.416383 0.295475 0.139270
H15   H     H_    0.283064 0.421976 0.588059 0.122804
H16   H     H_    0.720573 0.913413 0.416519 0.122522
H17   H     H_    0.191409 0.461740 0.682982 0.116914
H18   H     H_    0.813645 0.952576 0.322864 0.121164
H19   H     H_    0.214117 0.848840 0.915537 0.135756
H20   H     H_    0.778992 0.363668 0.077062 0.132901
H21   H     H_    0.134355 0.356287 0.798454 0.133304
H22   H     H_    0.870589 0.848789 0.206583 0.130138
O11   O     O_R   0.920630 0.775410 0.061150 -0.533892
O12   O     O_R   0.079370 0.275410 0.938850 -0.534034
O13   O     O_R   0.086500 0.441450 0.093690 -0.536314
O14   O     O_R   0.913500 0.941450 0.906310 -0.536155
C41   C     C_R   0.114065 0.610254 0.116146 0.684283
C42   C     C_R   0.885936 0.110268 0.883847 0.685424
O15   O     O_R   0.921670 0.445960 0.070740 -0.540253
O16   O     O_R   0.078330 0.945960 0.929260 -0.541373
O17   O     O_R   0.913380 0.271130 0.915780 -0.539599
O18   O     O_R   0.086620 0.771130 0.084220 -0.539638
C43   C     C_R   0.895442 0.612857 0.085600 0.705184
C44   C     C_R   0.104691 0.112403 0.914470 0.704679
O19   O     O_3   0.997500 0.603030 0.949220 -0.376681
O20   O     O_3   0.002500 0.103030 0.050780 -0.376234
V3    V     V_3+5 0.000470 0.329940 0.009420 1.388261
V4    V     V_3+5 0.999530 0.829940 0.990580 1.387466
N1    N     N_2   0.317227 0.751036 0.816582 -0.525997
H23   H     H_    0.312364 0.683353 0.761854 0.255043
C45   C     C_3   0.323438 0.628362 0.885396 -0.546178
H24   H     H_    0.368163 0.519103 0.880287 0.204763
H25   H     H_    0.264823 0.561208 0.886497 0.194072
H26   H     H_    0.344052 0.705008 0.942664 0.199047
N2    N     N_2   0.669349 0.276274 0.169936 -0.528852
H27   H     H_    0.609481 0.311030 0.162378 0.247229
C46   C     C_3   0.686551 0.117048 0.123904 -0.536969
H28   H     H_    0.648057 0.000447 0.135940 0.205082
H29   H     H_    0.750113 0.074665 0.142493 0.209371
H30   H     H_    0.673565 0.147931 0.058033 0.182539

loop_
_geom_bond_atom_site_label_1
_geom_bond_atom_site_label_2
_ccdc_geom_bond_type
C45   H24   S    
C2    C21   S    
C29   C31   A    
C20   H10   S    
O1    C3    A    
O2    C4    A    
C2    O7    A    
N2    H27   S    
O14   V4    S    
C24   C30   A    
O13   V3    S    
C17   H7    S    
C27   H19   S    
C22   C38   A    
C18   H8    S    
C7    C9    A    
C41   O18   A    
O14   C42   A    
C33   C35   A    
C34   C36   A    
C25   C33   A    
C37   C39   A    
C38   C40   A    
O11   V4    S    
C5    C7    A    
C30   H22   S    
O11   C43   A    
C39   H17   S    
C25   C27   A    
C31   C39   A    
C26   C28   A    
C32   C40   A    
C40   H18   S    
C19   H11   S    
C18   C20   S    
O12   V3    S    
C23   C29   A    
O15   V3    S    
O5    V1    S    
C36   H14   S    
C45   H25   S    
O18   V4    S    
C25   N1    S    
C42   O17   A    
N2    C46   S    
O13   C41   A    
C11   C13   A    
O17   V3    S    
C30   C32   A    
C3    C8    S    
C26   C34   A    
C23   C44   S    
O4    C2    A    
N1    H23   S    
C23   C27   A    
O16   C44   A    
C17   H5    S    
C16   C18   S    
O4    V2    S    
O5    C3    A    
C28   H20   S    
N1    C45   S    
C37   H15   S    
C46   H28   S    
O6    C4    A    
C15   C17   S    
O1    V2    S    
O2    V1    S    
C14   C41   S    
C46   H29   S    
C8    C10   A    
C12   C14   A    
C45   H26   S    
C31   C33   A    
C5    C15   A    
C10   H2    S    
C20   H12   S    
C6    C16   A    
O12   C44   A    
O3    V1    S    
C9    C11   A    
C21   C35   A    
C26   N2    S    
C22   C36   A    
C18   H6    S    
C24   C43   S    
C29   H21   S    
O3    C1    A    
O9    V2    S    
C11   H3    S    
C1    C22   S    
C12   H4    S    
O16   V4    S    
C38   H16   S    
C9    H1    S    
O7    V1    S    
C1    O8    A    
C13   C15   A    
O8    V2    S    
C35   H13   S    
C14   C16   A    
C13   C42   S    
C4    C7    S    
C21   C37   A    
C17   C19   S    
C32   C34   A    
C6    C8    A    
C19   H9    S    
C24   C28   A    
C46   H30   S    
O20   V3    S    
O6    V2    S    
C10   C12   A    
O19   V4    S    
O10   V1    S    
C5    C19   S    
C6    C20   S    
O15   C43   A    
