data_mof_unit_31042.cif
_audit_creation_date              2012-12-10T20:41:03-0500
_audit_creation_method            fapswitch 2.2
_symmetry_space_group_name_H-M    P1
_symmetry_Int_Tables_number       1
_space_group_crystal_system       triclinic
_cell_length_a                    27.648573
_cell_length_b                    10.655789
_cell_length_c                    9.887408
_cell_angle_alpha                 90.75149
_cell_angle_beta                  92.30597
_cell_angle_gamma                 90.890404
_cell_volume                      2910.01638169

loop_
_atom_site_label
_atom_site_type_symbol
_atom_type_description
_atom_site_fract_x
_atom_site_fract_y
_atom_site_fract_z
_atom_type_partial_charge
C1    C     C_R   0.498613 0.260087 0.499312 0.937277
C2    C     C_R   0.976081 0.399629 0.562641 0.041223
C3    C     C_R   0.976674 0.626334 0.518448 -0.131789
C4    C     C_R   0.406044 0.500763 0.497497 0.933938
C5    C     C_R   0.951136 0.513369 0.543658 -0.056205
C6    C     C_R   0.951754 0.300621 0.626952 0.401597
C7    C     C_R   0.900645 0.295032 0.620377 0.353993
C8    C     C_R   0.874793 0.401572 0.577711 -0.087578
C9    C     C_R   0.900275 0.514032 0.551631 -0.185900
C10   C     C_R   0.874861 0.626266 0.529705 -0.201499
C11   C     C_R   0.824181 0.619251 0.512364 0.547253
C12   C     C_R   0.278156 0.438208 0.369703 0.525590
C13   C     C_R   0.824017 0.401018 0.564403 0.602656
C14   C     C_R   0.723578 0.488861 0.641116 -0.213877
C15   C     C_R   0.672964 0.484729 0.637171 0.477756
C16   C     C_R   0.496659 0.739508 0.500339 0.890866
C17   C     C_R   0.673083 0.516056 0.392925 -0.290728
C18   C     C_R   0.723418 0.518845 0.398688 -0.069817
C19   C     C_R   0.748578 0.505520 0.522825 0.238049
C20   C     C_R   0.025151 0.391866 0.526809 -0.004113
C21   C     C_R   0.050637 0.503879 0.497704 0.011598
C22   C     C_R   0.026328 0.620192 0.488108 0.112965
C23   C     C_R   0.252281 0.500439 0.468563 0.213260
C24   C     C_R   0.048339 0.274900 0.507662 0.372548
C25   C     C_R   0.101280 0.721062 0.421958 -0.118787
C26   C     C_R   0.951473 0.741519 0.530257 0.390873
C27   C     C_R   0.900999 0.741389 0.529117 0.485291
C28   C     C_R   0.594163 0.499447 0.503018 0.920967
C29   C     C_R   0.051755 0.724440 0.437721 -0.221208
C30   C     C_R   0.498678 0.065575 0.620685 -0.123233
C31   C     C_R   0.491047 0.128526 0.500007 -0.184337
C32   C     C_R   0.471747 0.063941 0.385481 -0.180634
C33   C     C_R   0.467821 0.933733 0.387118 0.451296
C34   C     C_R   0.100840 0.499794 0.476851 -0.147536
C35   C     C_R   0.486815 0.870298 0.502583 -0.259619
C36   C     C_R   0.496961 0.937932 0.622095 -0.009051
C37   C     C_3   0.537007 0.932543 0.729923 0.754575
C38   C     C_3   0.538525 0.076075 0.728516 0.188541
C39   C     C_R   0.471224 0.417164 0.066463 0.098761
C40   C     C_R   0.176355 0.387896 0.482151 0.667241
C41   C     C_R   0.532355 0.570610 0.078062 -0.070790
C42   C     C_R   0.532806 0.570991 0.935045 0.516598
C43   C     C_R   0.471226 0.417167 0.923969 -0.000980
C44   C     C_3   0.417546 0.404520 0.908427 -0.537095
C45   C     C_R   0.125512 0.385278 0.485239 -0.151004
C46   C     C_3   0.417085 0.406505 0.062509 0.774483
C47   C     C_R   0.176711 0.607602 0.438549 0.535522
C48   C     C_R   0.276529 0.563479 0.576945 -0.299605
C49   C     C_R   0.327185 0.565544 0.588402 0.428631
C50   C     C_R   0.328697 0.437945 0.382436 -0.393763
C51   C     C_R   0.098828 0.271881 0.489076 0.368845
C52   C     C_R   0.126439 0.610605 0.446427 0.015122
C53   C     C_R   0.353214 0.501243 0.490469 -0.120854
C54   C     C_R   0.647373 0.499549 0.511402 -0.094199
H1    H     H_    0.742918 0.531409 0.306888 0.165331
H2    H     H_    0.853907 0.848412 0.608079 0.365443
H3    H     H_    0.460677 0.113576 0.294720 0.194582
H4    H     H_    0.431343 0.795251 0.303805 0.362709
H5    H     H_    0.546380 0.901678 0.920938 0.362698
H6    H     H_    0.276811 0.340375 0.202108 0.352465
H7    H     H_    0.583895 0.888531 0.592629 0.305217
H8    H     H_    0.586274 0.105245 0.588456 0.335326
H9    H     H_    0.557677 0.629770 0.137034 0.169482
H10   H     H_    0.560338 0.648324 0.781315 0.416234
H11   H     H_    0.406052 0.313223 0.860785 0.194221
H12   H     H_    0.033920 0.809507 0.407397 0.206119
H13   H     H_    0.360272 0.505064 0.090804 0.342210
H14   H     H_    0.417847 0.223578 0.082738 0.320222
H15   H     H_    0.100167 0.103335 0.411634 0.339726
H16   H     H_    0.671811 0.457164 0.831888 0.342075
H17   H     H_    0.743884 0.478668 0.736272 0.146039
H18   H     H_    0.896919 0.114605 0.646196 0.381963
H19   H     H_    0.957363 0.182793 0.776085 0.350932
H20   H     H_    0.039041 0.096547 0.536214 0.368463
H21   H     H_    0.327945 0.671211 0.750647 0.348516
H22   H     H_    0.526466 0.121583 0.822955 0.144645
H23   H     H_    0.400665 0.488089 0.861605 0.261833
H24   H     H_    0.348917 0.387010 0.308974 0.238208
H25   H     H_    0.255662 0.611216 0.651857 0.169681
H26   H     H_    0.119680 0.805277 0.389421 0.202380
H27   H     H_    0.003264 0.837911 0.619785 0.333592
H28   H     H_    0.654309 0.527535 0.295707 0.191323
N1    N     N_R   0.200577 0.498309 0.461314 -0.344809
N2    N     N_R   0.800248 0.508125 0.530282 -0.359785
N3    N     N_R   0.499670 0.499140 0.142800 -0.131762
N4    N     N_R   0.499670 0.499180 0.857150 -0.145071
O1    O     O_R   0.500010 0.316790 0.614690 -0.595942
O2    O     O_R   0.571250 0.500000 0.614690 -0.565576
O3    O     O_R   0.571240 0.499960 0.385340 -0.645359
O4    O     O_2   0.201662 0.282223 0.503662 -0.440615
O5    O     O_3   0.974576 0.854835 0.559728 -0.713137
O6    O     O_3   0.878888 0.856061 0.539397 -0.652103
O7    O     O_3   0.447465 0.873253 0.274076 -0.712075
O8    O     O_3   0.520225 0.884774 0.851097 -0.723282
O9    O     O_3   0.253232 0.378817 0.262597 -0.718167
O10   O     O_3   0.579773 0.874023 0.690448 -0.715641
O11   O     O_3   0.582349 0.128308 0.684925 -0.693954
O12   O     O_2   0.798284 0.294377 0.582895 -0.450053
O13   O     O_3   0.567227 0.646069 0.879054 -0.704691
O14   O     O_3   0.395376 0.513859 0.114738 -0.714573
O15   O     O_3   0.399519 0.295036 0.119316 -0.781744
O16   O     O_3   0.122148 0.160253 0.466058 -0.682835
O17   O     O_3   0.648294 0.465409 0.754205 -0.699722
O18   O     O_3   0.875854 0.188114 0.657640 -0.674201
O19   O     O_3   0.978382 0.219505 0.707567 -0.721325
O20   O     O_3   0.020644 0.166090 0.494335 -0.698637
O21   O     O_3   0.351720 0.631997 0.691356 -0.748637
O22   O     O_2   0.201755 0.713154 0.410185 -0.521574
O23   O     O_2   0.798834 0.721342 0.475531 -0.506320
O24   O     O_R   0.500000 0.316760 0.385350 -0.629498
O25   O     O_R   0.428760 0.500040 0.614660 -0.587466
O26   O     O_R   0.428750 0.500000 0.385310 -0.576152
O27   O     O_R   0.500000 0.683240 0.614650 -0.596178
O28   O     O_R   0.499990 0.683210 0.385310 -0.608363
Zn1   Zn    Zn3+2 0.500000 0.500020 0.653130 1.039289
Zn2   Zn    Zn3+2 0.500000 0.499980 0.346870 1.005205

loop_
_geom_bond_atom_site_label_1
_geom_bond_atom_site_label_2
_ccdc_geom_bond_type
C10   C27   A    
C1    O1    A    
H21   O21   S    
C8    C13   A    
C22   C29   A    
C4    C53   S    
C11   O23   S    
C25   H26   S    
C14   H17   S    
C35   C36   A    
C16   O27   A    
H7    O10   S    
C7    C8    A    
C49   O21   S    
C38   H22   S    
H15   O16   S    
C51   O16   S    
C13   N2    A    
C26   C27   A    
C23   N1    S    
C48   H25   S    
C36   C37   S    
H4    O7    S    
C17   H28   S    
C16   C35   S    
C30   C31   A    
C45   C51   A    
C1    C31   S    
C30   C38   S    
C18   C19   A    
C41   C42   A    
C13   O12   S    
H10   O13   S    
C20   C24   A    
C8    C9    A    
C28   O2    A    
C12   O9    S    
C28   O3    A    
C42   N4    A    
H5    O8    S    
C47   N1    A    
C9    C10   A    
O1    Zn1   S    
C24   C51   A    
C4    O26   A    
O3    Zn2   S    
C21   C22   A    
C40   N1    A    
C44   H11   S    
C2    C6    A    
C32   H3    S    
C38   O11   S    
C50   H24   S    
C44   C46   S    
N3    Zn2   S    
C25   C29   A    
C40   C45   A    
C46   O15   S    
C50   C53   A    
C2    C20   A    
C15   C54   A    
H14   O15   S    
C28   C54   S    
H16   O17   S    
C39   C43   A    
C21   C34   A    
H18   O18   S    
C26   O5    S    
C37   O10   S    
C16   O28   A    
N4    Zn1   S    
C43   C44   S    
C5    C9    A    
C37   C38   S    
C1    O24   A    
H20   O20   S    
H8    O11   S    
H19   O19   S    
C31   C32   A    
C12   C23   A    
C17   C18   A    
C27   O6    S    
C34   C45   A    
C47   C52   A    
C18   H1    S    
C39   C46   S    
H13   O14   S    
C48   C49   A    
C4    O25   A    
C7    O18   S    
C2    C5    A    
C24   O20   S    
C41   H9    S    
C19   N2    S    
O24   Zn2   S    
O26   Zn2   S    
C46   O14   S    
C44   H23   S    
C23   C48   A    
C43   N4    A    
C14   C19   A    
C3    C26   A    
C3    C5    A    
C33   O7    S    
O28   Zn2   S    
C6    C7    A    
C11   N2    A    
C41   N3    A    
C34   C52   A    
C30   C36   A    
C15   O17   S    
C32   C33   A    
O2    Zn1   S    
C25   C52   A    
C42   O13   S    
C49   C53   A    
C33   C35   A    
C6    O19   S    
C37   O8    S    
C10   C11   A    
C29   H12   S    
H27   O5    S    
H6    O9    S    
H2    O6    S    
C20   C21   A    
C47   O22   S    
C39   N3    A    
C14   C15   A    
C3    C22   A    
O25   Zn1   S    
C40   O4    S    
C17   C54   A    
C12   C50   A    
O27   Zn1   S    
