data_mof_unit_42905.cif
_audit_creation_date              2012-12-10T17:03:57-0500
_audit_creation_method            fapswitch 2.2
_symmetry_space_group_name_H-M    P1
_symmetry_Int_Tables_number       1
_space_group_crystal_system       triclinic
_cell_length_a                    9.805415
_cell_length_b                    10.961603
_cell_length_c                    15.871535
_cell_angle_alpha                 94.715689
_cell_angle_beta                  79.286351
_cell_angle_gamma                 111.250174
_cell_volume                      1562.0103936

loop_
_atom_site_label
_atom_site_type_symbol
_atom_type_description
_atom_site_fract_x
_atom_site_fract_y
_atom_site_fract_z
_atom_type_partial_charge
C1    C     C_R   0.556731 0.746191 0.505605 0.750223
C2    C     C_R   0.442903 0.253443 0.494902 0.751010
C3    C     C_R   0.315676 0.433917 0.075082 -0.192109
C4    C     C_R   0.671306 0.499167 0.922283 -0.205788
C5    C     C_R   0.214975 0.415456 0.020050 -0.218233
C6    C     C_R   0.771343 0.514132 0.977165 -0.217305
C7    C     C_2   0.589583 0.887182 0.507485 0.253361
C8    C     C_2   0.408590 0.111829 0.496450 0.245707
C9    C     C_2   0.476618 0.930536 0.533211 -0.201867
C10   C     C_2   0.495995 0.068640 0.532497 -0.189807
C11   C     C_2   0.923153 0.489892 0.492577 -0.025683
C12   C     C_2   0.077012 0.510401 0.507238 -0.018188
C13   C     C_R   0.411298 0.486148 0.662722 0.787594
C14   C     C_R   0.588438 0.512650 0.337241 0.836927
C15   C     C_R   0.357821 0.471768 0.755578 -0.055938
C16   C     C_R   0.639382 0.515172 0.243981 -0.054874
C17   C     C_R   0.160096 0.416934 0.878028 -0.190310
C18   C     C_R   0.829746 0.531028 0.119944 -0.179846
C19   C     C_R   0.206753 0.434887 0.790007 -0.179274
C20   C     C_R   0.786519 0.531216 0.208701 -0.149898
C21   C     C_R   0.461246 0.490802 0.810048 -0.236147
C22   C     C_R   0.536202 0.498075 0.189645 -0.212297
C23   C     C_R   0.416774 0.467984 0.898454 0.088893
C24   C     C_R   0.575307 0.492286 0.100075 0.088799
C25   C     C_R   0.263620 0.433547 0.932365 0.161129
C26   C     C_R   0.725801 0.512483 0.065556 0.160986
C27   C     C_R   0.520189 0.480118 0.953968 0.068551
C28   C     C_R   0.469917 0.469650 0.044112 0.067250
Cu1   Cu    Cu3+1 0.362980 0.479380 0.485080 1.001722
Cu2   Cu    Cu3+1 0.637020 0.520620 0.514920 0.986965
H1    H     H_    0.097864 0.387364 0.046552 0.147215
H2    H     H_    0.885872 0.528415 0.950047 0.140394
H3    H     H_    0.426043 0.492290 0.218893 0.159996
H4    H     H_    0.576807 0.525762 0.781937 0.155803
H5    H     H_    0.868062 0.544474 0.249519 0.166626
H6    H     H_    0.124899 0.419537 0.749059 0.161627
H7    H     H_    0.042741 0.388879 0.903633 0.134634
H8    H     H_    0.944604 0.545298 0.093719 0.137532
H9    H     H_    0.267621 0.415081 0.141579 0.153964
H10   H     H_    0.715885 0.499170 0.854969 0.143340
H11   H     H_    0.589780 0.137246 0.559171 0.192015
H12   H     H_    0.364628 0.861525 0.552435 0.182358
H13   H     H_    0.122776 0.579354 0.556744 0.154369
H14   H     H_    0.877519 0.421172 0.442935 0.178832
H15   H     H_    0.110891 0.383205 0.416188 0.218256
H16   H     H_    0.888965 0.616509 0.583971 0.209758
N1    N     N_2   0.842890 0.551600 0.537350 -0.285053
N2    N     N_2   0.157110 0.448400 0.462650 -0.275734
O1    O     O_R   0.426810 0.668300 0.492040 -0.578301
O2    O     O_R   0.573190 0.331700 0.507960 -0.589728
O3    O     O_R   0.658240 0.703130 0.517240 -0.549642
O4    O     O_R   0.341760 0.296870 0.482760 -0.539068
O5    O     O_R   0.319390 0.472820 0.610170 -0.583470
O6    O     O_R   0.680610 0.527180 0.389830 -0.573168
O7    O     O_R   0.550820 0.507640 0.635370 -0.580420
O8    O     O_R   0.449180 0.492360 0.364630 -0.567759
S1    S     S_3+6 0.256416 0.003170 0.450036 0.032156
O9    O     O_2   0.301898 0.900810 0.395826 -0.241019
O10   O     O_2   0.132213 0.936335 0.520751 -0.320064
O11   O     O_3   0.197164 0.083998 0.387673 -0.470983
H17   H     H_    0.122734 0.112808 0.426506 0.401465
S2    S     S_3+6 0.774195 0.991972 0.469424 0.020238
O12   O     O_2   0.775274 0.105885 0.422308 -0.277326
O13   O     O_2   0.854088 0.043147 0.544325 -0.302134
O14   O     O_3   0.863133 0.908123 0.401571 -0.478710
H18   H     H_    0.904226 0.865998 0.438169 0.400448

loop_
_geom_bond_atom_site_label_1
_geom_bond_atom_site_label_2
_ccdc_geom_bond_type
C5    H1    S    
C14   O8    A    
Cu2   O3    S    
C7    S2    S    
S2    O12   D    
Cu1   O8    S    
C23   C27   A    
C8    S1    S    
Cu2   O6    S    
Cu2   O7    S    
C6    H2    S    
C18   C26   A    
C13   C15   S    
C12   N2    D    
C16   C20   A    
C17   C25   A    
C3    C5    A    
C23   C25   A    
S2    O13   D    
C18   H8    S    
C3    H9    S    
C11   H14   S    
Cu1   O1    S    
C10   H11   S    
C15   C19   A    
C1    O3    A    
S1    O9    D    
Cu1   Cu2   S    
C2    O4    A    
C1    C7    S    
C5    C25   A    
C8    C10   D    
C3    C28   A    
C14   O6    A    
C24   C26   A    
C12   H13   S    
C13   O5    A    
C19   H6    S    
C21   C23   A    
C9    H12   S    
Cu2   O2    S    
C22   C24   A    
S1    O10   D    
C16   C22   A    
Cu1   N2    S    
C4    H10   S    
Cu2   N1    S    
C15   C21   A    
C4    C27   A    
C18   C20   A    
C4    C6    A    
O14   H18   S    
C9    C10   S    
H15   N2    S    
C27   C28   A    
C7    C9    D    
C22   H3    S    
C6    C26   A    
S1    O11   S    
C17   H7    S    
C21   H4    S    
C2    O2    A    
S2    O14   S    
C17   C19   A    
C14   C16   S    
H16   N1    S    
C20   H5    S    
C11   N1    D    
C2    C8    S    
C24   C28   A    
C11   C12   S    
C13   O7    A    
O11   H17   S    
Cu1   O5    S    
Cu1   O4    S    
C1    O1    A    
