data_mof_unit_8383.cif
_audit_creation_date              2012-12-10T17:24:48-0500
_audit_creation_method            fapswitch 2.2
_symmetry_space_group_name_H-M    P1
_symmetry_Int_Tables_number       1
_space_group_crystal_system       triclinic
_cell_length_a                    18.868909
_cell_length_b                    18.265932
_cell_length_c                    18.376978
_cell_angle_alpha                 107.598938
_cell_angle_beta                  109.021103
_cell_angle_gamma                 108.707661
_cell_volume                      5052.2551863

loop_
_atom_site_label
_atom_site_type_symbol
_atom_type_description
_atom_site_fract_x
_atom_site_fract_y
_atom_site_fract_z
_atom_type_partial_charge
C1    C     C_R   0.621618 0.619805 0.499560 0.872133
C2    C     C_R   0.667679 0.742775 0.464873 0.046266
C3    C     C_2   0.556109 0.311704 0.579603 0.379191
C4    C     C_2   0.127406 0.199399 0.186248 0.316353
C5    C     C_3   0.517841 0.410713 0.802302 -0.845152
C6    C     C_2   0.379428 0.312792 0.827851 0.398250
C7    C     C_3   0.206347 0.249183 0.698519 -0.729247
C8    C     C_3   0.313574 0.572931 0.163701 -0.874522
C9    C     C_3   0.194253 0.724764 0.254102 -0.837204
C10   C     C_3   0.306989 0.899450 0.296406 -0.879644
C11   C     C_3   0.252129 0.036382 0.335318 -0.851665
C12   C     C_3   0.070505 0.976086 0.290670 -0.827132
C13   C     C_R   0.818237 0.837921 0.529268 -0.219565
C14   C     C_3   0.934532 0.724370 0.421899 -0.824686
C15   C     C_3   0.760167 0.582872 0.308429 -0.894089
C16   C     C_2   0.808786 0.555781 0.055774 0.454308
C17   C     C_2   0.912303 0.083305 0.922473 0.398738
C18   C     C_2   0.313032 0.399472 0.172058 0.466583
C19   C     C_3   0.207455 0.470023 0.917166 -0.873645
C20   C     C_2   0.989294 0.257223 0.551679 0.461637
C21   C     C_2   0.815693 0.061164 0.629338 0.424690
C22   C     C_3   0.811546 0.964744 0.737856 -0.806842
C23   C     C_3   0.040317 0.262191 0.981620 -0.816577
C24   C     C_R   0.375448 0.496100 0.380293 0.910757
C25   C     C_2   0.175351 0.414843 0.341728 0.429952
C26   C     C_2   0.919577 0.617427 0.644188 0.483189
C27   C     C_3   0.522435 0.632021 0.340692 -0.797135
C28   C     C_3   0.475279 0.776644 0.366942 -0.940962
C29   C     C_R   0.836701 0.788805 0.571962 0.091194
C30   C     C_R   0.773994 0.703292 0.538883 -0.099235
C31   C     C_R   0.687680 0.684658 0.494283 -0.176145
C32   C     C_R   0.914506 0.821187 0.646324 0.240745
C33   C     C_R   0.936186 0.763031 0.670717 -0.290965
C34   C     C_R   0.883757 0.673776 0.622024 -0.013162
C35   C     C_R   0.800991 0.642370 0.555269 -0.106396
C36   C     C_3   0.184392 0.411571 0.196912 -0.384222
C37   C     C_R   0.744459 0.664588 0.781115 0.216777
C38   C     C_R   0.773373 0.725641 0.865995 -0.030810
C39   C     C_R   0.836478 0.727201 0.932287 -0.234279
C40   C     C_R   0.379029 0.380259 0.499182 0.868679
C41   C     C_R   0.868288 0.668603 0.913279 0.065083
C42   C     C_R   0.817000 0.589139 0.833795 -0.059026
C43   C     C_R   0.750403 0.585655 0.766815 0.020692
C44   C     C_R   0.827993 0.513470 0.818633 -0.157002
C45   C     C_R   0.781179 0.440583 0.736992 0.013163
C46   C     C_R   0.706278 0.430445 0.676824 0.060951
C47   C     C_3   0.212716 0.455667 0.294930 0.009588
C48   C     C_R   0.692910 0.504853 0.689311 -0.151017
C49   C     C_R   0.808047 0.377184 0.714908 -0.112129
C50   C     C_R   0.759082 0.302202 0.635472 -0.023551
C51   C     C_R   0.676224 0.283852 0.582098 -0.075977
C52   C     C_R   0.621404 0.499765 0.621377 0.855667
C53   C     C_R   0.647720 0.345500 0.607117 0.069080
C54   C     C_R   0.409801 0.362639 0.652397 -0.076935
C55   C     C_R   0.427222 0.360667 0.731082 0.138434
C56   C     C_R   0.360389 0.313210 0.742516 0.006630
C57   C     C_R   0.276091 0.269749 0.673905 0.134846
C58   C     C_3   0.305559 0.493517 0.314170 -0.073298
C59   C     C_R   0.260043 0.261800 0.588970 0.055115
C60   C     C_R   0.327729 0.313467 0.580946 -0.022239
C61   C     C_R   0.179304 0.207108 0.512509 -0.185511
C62   C     C_R   0.164420 0.218534 0.436347 0.077204
C63   C     C_R   0.234059 0.263236 0.427275 0.048669
C64   C     C_3   0.304807 0.576533 0.310946 -0.312239
C65   C     C_R   0.313681 0.314663 0.501187 -0.125986
C66   C     C_R   0.082448 0.185899 0.367683 -0.073969
C67   C     C_R   0.070893 0.180421 0.287156 -0.289008
C68   C     C_R   0.140526 0.211510 0.273693 0.041508
C69   C     C_R   0.583918 0.723114 0.409962 0.095259
C70   C     C_R   0.221611 0.256666 0.344487 -0.134124
C71   C     C_R   0.002452 0.619824 0.123424 0.981344
C72   C     C_R   0.122505 0.498838 0.125477 0.877870
C73   C     C_R   0.014539 0.380271 0.893714 0.906213
C74   C     C_R   0.885676 0.507359 0.887690 0.930847
C75   C     C_R   0.000696 0.879236 0.381873 0.949985
C76   C     C_3   0.210863 0.537422 0.290265 -0.007363
C77   C     C_R   0.882079 0.890849 0.511928 0.857668
C78   C     C_R   0.995936 0.119213 0.619074 0.786373
C79   C     C_R   0.117814 0.127335 0.505044 0.872146
C80   C     C_R   0.565325 0.790643 0.401907 0.243662
C81   C     C_R   0.160669 0.789884 0.257825 0.172771
C82   C     C_R   0.218970 0.877692 0.288085 0.195928
C83   C     C_R   0.192908 0.942731 0.307220 0.197406
C84   C     C_R   0.111902 0.919544 0.302709 0.134832
C85   C     C_R   0.062708 0.834792 0.288607 -0.018966
C86   C     C_R   0.076434 0.768284 0.245745 0.020199
C87   C     C_R   0.002476 0.812450 0.318409 -0.158143
C88   C     C_3   0.184676 0.494973 0.193564 -0.026197
C89   C     C_R   0.944734 0.724545 0.286514 -0.017130
C90   C     C_R   0.930846 0.667382 0.207113 0.051752
C91   C     C_R   0.632090 0.871018 0.428146 0.238506
C92   C     C_R   0.003139 0.685091 0.192265 -0.094358
C93   C     C_R   0.896534 0.691926 0.325459 0.155396
C94   C     C_R   0.818017 0.615960 0.272633 0.277523
C95   C     C_R   0.792620 0.571567 0.184850 -0.274906
C96   C     C_R   0.847605 0.596068 0.150917 -0.014762
C97   C     C_R   0.143646 0.417255 0.823036 0.227768
C98   C     C_R   0.163872 0.442246 0.764704 -0.209189
C99   C     C_R   0.114380 0.388771 0.676384 -0.146740
C100  C     C_3   0.277791 0.532564 0.213366 0.204938
C101  C     C_R   0.049461 0.305302 0.645132 -0.045373
C102  C     C_R   0.714334 0.882772 0.464466 -0.156923
C103  C     C_R   0.036599 0.275139 0.705085 0.004444
C104  C     C_R   0.071500 0.337195 0.791250 0.100682
C105  C     C_R   0.990898 0.186634 0.683631 -0.150660
C106  C     C_R   0.961470 0.164942 0.739932 -0.028336
C107  C     C_R   0.992871 0.228486 0.823977 0.068210
C108  C     C_R   0.033407 0.316014 0.841941 -0.176269
C109  C     C_R   0.889724 0.086795 0.710283 -0.054235
C110  C     C_R   0.877214 0.056830 0.769841 0.105976
C111  C     C_R   0.925259 0.114505 0.859296 0.011417
C112  C     C_3   0.278245 0.450022 0.217033 0.020532
C113  C     C_R   0.733739 0.821318 0.486017 -0.001094
C114  C     C_R   0.981984 0.202094 0.886527 0.160493
C115  C     C_2   0.172323 0.583556 0.333602 0.363210
C116  C     C_3   0.617769 0.944329 0.416131 -0.852540
C117  C     C_3   0.971156 0.916524 0.707647 -0.836270
C118  C     C_2   0.747027 0.548046 0.497890 0.510538
C119  C     C_2   0.617888 0.198185 0.504274 0.370544
C120  C     C_3   0.741535 0.699609 0.716537 -0.764860
C121  C     C_2   0.750245 0.796936 0.886265 0.394930
C122  C     C_2   0.960094 0.704068 0.968323 0.445500
C123  C     C_2   0.795213 0.243467 0.610660 0.400865
H1    H     H_    0.763417 0.943729 0.480623 0.158518
H2    H     H_    0.729669 0.517159 0.142569 0.145638
H3    H     H_    0.217731 0.503768 0.787778 0.164068
H4    H     H_    0.127291 0.412547 0.632418 0.206865
H5    H     H_    0.134071 0.344253 0.152807 0.183428
H6    H     H_    0.212445 0.647132 0.388931 0.080761
H7    H     H_    0.579076 0.923248 0.346466 0.234076
H8    H     H_    0.585121 0.964403 0.452759 0.261430
H9    H     H_    0.678049 0.002451 0.439794 0.223433
H10   H     H_    0.945006 0.957779 0.688265 0.237124
H11   H     H_    0.978178 0.928846 0.773230 0.214983
H12   H     H_    0.996618 0.787678 0.726174 0.146850
H13   H     H_    0.034917 0.936393 0.711502 0.255162
H14   H     H_    0.710091 0.525048 0.429165 0.074881
H15   H     H_    0.624214 0.140789 0.502438 0.067669
H16   H     H_    0.733440 0.651887 0.657040 0.214493
H17   H     H_    0.690100 0.717938 0.701797 0.301300
H18   H     H_    0.802424 0.758319 0.743226 0.203169
H19   H     H_    0.788672 0.853417 0.949164 0.063722
H20   H     H_    0.999835 0.694275 0.939130 0.070485
H21   H     H_    0.764022 0.190951 0.545893 0.038036
H22   H     H_    0.511386 0.291382 0.513790 0.146998
H23   H     H_    0.869380 0.782140 0.995919 0.178157
H24   H     H_    0.063749 0.170370 0.134008 0.115250
H25   H     H_    0.537054 0.366334 0.823776 0.253148
H26   H     H_    0.562789 0.441476 0.780898 0.262825
H27   H     H_    0.524054 0.463230 0.857782 0.214439
H28   H     H_    0.432516 0.367900 0.886710 0.074815
H29   H     H_    0.198428 0.193510 0.713115 0.300814
H30   H     H_    0.221888 0.305973 0.756624 0.219171
H31   H     H_    0.146732 0.235430 0.647276 0.203694
H32   H     H_    0.379133 0.584019 0.182823 0.251998
H33   H     H_    0.276290 0.527528 0.094270 0.244929
H34   H     H_    0.351909 0.642850 0.361391 0.160228
H35   H     H_    0.310878 0.634910 0.174678 0.246780
H36   H     H_    0.146485 0.661943 0.240652 0.225438
H37   H     H_    0.215626 0.714987 0.204039 0.264858
H38   H     H_    0.248506 0.748169 0.317608 0.214076
H39   H     H_    0.345389 0.967687 0.312706 0.260410
H40   H     H_    0.343169 0.886422 0.347691 0.240343
H41   H     H_    0.301747 0.859178 0.234100 0.240839
H42   H     H_    0.312223 0.059515 0.393309 0.252472
H43   H     H_    0.265372 0.041619 0.282002 0.254808
H44   H     H_    0.226911 0.081902 0.354279 0.244035
H45   H     H_    0.869645 0.388160 0.758003 0.181158
H46   H     H_    0.095205 0.030933 0.353491 0.237529
H47   H     H_    0.084398 0.001417 0.246381 0.245488
H48   H     H_    0.000554 0.939436 0.259434 0.254612
H49   H     H_    0.002790 0.770269 0.456170 0.258255
H50   H     H_    0.898624 0.752537 0.446467 0.242211
H51   H     H_    0.930637 0.669455 0.437406 0.245437
H52   H     H_    0.698367 0.526882 0.256725 0.245277
H53   H     H_    0.790069 0.561101 0.354483 0.242733
H54   H     H_    0.747522 0.635091 0.342037 0.243676
H55   H     H_    0.755592 0.490935 0.017010 0.056516
H56   H     H_    0.462877 0.401295 0.646906 0.162762
H57   H     H_    0.896191 0.016540 0.909342 0.064426
H58   H     H_    0.271963 0.332275 0.124037 0.110971
H59   H     H_    0.191147 0.436789 0.955158 0.223266
H60   H     H_    0.270845 0.477803 0.925378 0.229228
H61   H     H_    0.211320 0.535356 0.942691 0.255458
H62   H     H_    0.924462 0.211183 0.529209 0.098858
H63   H     H_    0.824822 0.079462 0.580993 0.064947
H64   H     H_    0.841491 0.930081 0.766261 0.200654
H65   H     H_    0.760990 0.965577 0.755888 0.271388
H66   H     H_    0.782180 0.926043 0.666890 0.268542
H67   H     H_    0.025835 0.166826 0.374665 0.216395
H68   H     H_    0.004048 0.281881 0.013361 0.289404
H69   H     H_    0.070176 0.228494 0.011986 0.241698
H70   H     H_    0.093317 0.321333 0.993941 0.183971
H71   H     H_    0.108713 0.368475 0.308885 0.098534
H72   H     H_    0.962944 0.638697 0.710942 0.028121
H73   H     H_    0.548825 0.585975 0.338606 0.261681
H74   H     H_    0.464874 0.609123 0.347571 0.244223
H75   H     H_    0.507484 0.632290 0.277426 0.234394
H76   H     H_    0.466794 0.828823 0.352761 0.249000
H77   H     H_    0.433984 0.716689 0.305897 0.255393
H78   H     H_    0.007223 0.151387 0.235162 0.158894
H79   H     H_    0.454224 0.773719 0.416102 0.244266
H80   H     H_    0.273785 0.286004 0.333271 0.196952
O1    O     O_R   0.592010 0.539900 0.448660 -0.633681
O2    O     O_R   0.948620 0.908400 0.356980 -0.614299
O3    O     O_R   0.960510 0.908410 0.552140 -0.612093
O4    O     O_R   0.591210 0.643320 0.551330 -0.610696
O5    O     O_R   0.856270 0.908390 0.447890 -0.620050
O6    O     O_R   0.051380 0.091620 0.643040 -0.613556
O7    O     O_R   0.947140 0.091600 0.538800 -0.659502
O8    O     O_R   0.143730 0.091640 0.552130 -0.592661
O9    O     O_R   0.039490 0.091610 0.447890 -0.634314
O10   O     O_R   0.408080 0.448290 0.356360 -0.599175
O11   O     O_R   0.407280 0.551710 0.459030 -0.597524
O12   O     O_R   0.054870 0.643310 0.094700 -0.599907
O13   O     O_R   0.408790 0.356680 0.448670 -0.657719
O14   O     O_R   0.407990 0.460100 0.551340 -0.595060
O15   O     O_R   0.592720 0.448290 0.540970 -0.603857
O16   O     O_R   0.591920 0.551710 0.643640 -0.618073
O17   O     O_R   0.951440 0.539900 0.094740 -0.628459
O18   O     O_2   0.096020 0.549118 0.308061 -0.554028
O19   O     O_2   0.741692 0.495361 0.526429 -0.525774
O20   O     O_2   0.562719 0.191060 0.440817 -0.572863
O21   O     O_2   0.686675 0.792262 0.834647 -0.562802
O22   O     O_2   0.993640 0.751681 0.045714 -0.569208
O23   O     O_R   0.044440 0.448270 0.096110 -0.611830
O24   O     O_2   0.861930 0.254091 0.662705 -0.613317
O25   O     O_2   0.529960 0.301003 0.629992 -0.600014
O26   O     O_2   0.187203 0.220429 0.171085 -0.604233
O27   O     O_2   0.338065 0.249672 0.833200 -0.559296
O28   O     O_2   0.832804 0.596453 0.019633 -0.594898
O29   O     O_2   0.916600 0.130814 0.988605 -0.587086
O30   O     O_2   0.387092 0.433746 0.188282 -0.570612
O31   O     O_2   0.010311 0.271167 0.499082 -0.589653
O32   O     O_2   0.743703 0.027864 0.619551 -0.563824
O33   O     O_2   0.218618 0.435729 0.417478 -0.563294
O34   O     O_R   0.147870 0.551680 0.096080 -0.650536
O35   O     O_2   0.906004 0.550183 0.588465 -0.515900
O36   O     O_R   0.952810 0.356650 0.912880 -0.594405
O37   O     O_R   0.056240 0.460060 0.912840 -0.619905
O38   O     O_R   0.859800 0.448280 0.911500 -0.597096
O39   O     O_R   0.963240 0.551690 0.911470 -0.663087
O40   O     O_R   0.052860 0.908430 0.461230 -0.618683
Zn1   Zn    Zn3+2 0.500540 0.430950 0.431450 1.031850
Zn2   Zn    Zn3+2 0.499460 0.569050 0.568550 1.030794
Zn3   Zn    Zn3+2 0.934770 0.430930 0.003810 1.018110
Zn4   Zn    Zn3+2 0.072900 0.569020 0.003770 0.933328
Zn5   Zn    Zn3+2 0.069600 0.000030 0.569620 0.975759
Zn6   Zn    Zn3+2 0.930400 1.000000 0.430410 0.948000

loop_
_geom_bond_atom_site_label_1
_geom_bond_atom_site_label_2
_ccdc_geom_bond_type
O13   Zn1   S    
C55   C56   A    
C63   C65   A    
O12   Zn4   S    
C93   C94   A    
C40   O14   A    
C118  O19   D    
C75   O2    A    
C41   C42   A    
C117  H13   S    
C95   C96   A    
C27   H74   S    
C32   C117  S    
C117  H10   S    
C15   C94   S    
C23   H68   S    
C81   C82   A    
C19   C97   S    
C18   O30   D    
C21   H63   S    
C39   C41   A    
C54   C60   A    
C85   C86   A    
C36   C88   S    
C79   O8    A    
C7    H31   S    
O34   Zn4   S    
C10   H40   S    
C30   C35   A    
O36   Zn3   S    
C58   C112  S    
C13   C29   A    
C37   C38   A    
O14   Zn2   S    
C47   C76   S    
C73   O36   A    
C29   C32   A    
C30   C31   A    
C2    C113  A    
C3    H22   S    
C57   C59   A    
C123  O24   D    
C106  C107  A    
C9    H36   S    
C98   C99   A    
C17   C111  S    
C1    C31   S    
C76   C115  S    
C5    H26   S    
C91   C116  S    
C12   C84   S    
C36   C47   S    
C28   C80   S    
C34   C35   A    
C5    H27   S    
C22   H64   S    
C8    H32   S    
C26   O35   D    
C110  C111  A    
O17   Zn3   S    
O1    Zn1   S    
C20   H62   S    
C54   H56   S    
C74   O38   A    
C24   O11   A    
C26   C34   S    
C71   C92   S    
C25   O33   D    
C22   C110  S    
C116  H9    S    
C123  H21   S    
C36   C112  S    
C11   H43   S    
C51   C119  S    
C107  C108  A    
O16   Zn2   S    
O23   Zn3   S    
C120  H17   S    
O15   Zn1   S    
O11   Zn2   S    
C2    C69   A    
C43   C48   A    
C25   C47   S    
O7    Zn6   S    
C81   C86   A    
C27   C69   S    
C48   C52   S    
C5    C55   S    
C68   C70   A    
C66   C67   A    
C8    H35   S    
C59   C60   A    
C10   H39   S    
C5    H25   S    
C72   O23   A    
C9    H38   S    
C11   H44   S    
C23   H70   S    
C36   H5    S    
C27   H75   S    
C42   C44   A    
C122  H20   S    
C102  H1    S    
C117  H11   S    
O4    Zn2   S    
C19   H59   S    
C23   H69   S    
C72   C88   S    
C17   O29   D    
C16   H55   S    
C97   C98   A    
C12   H48   S    
C13   C77   S    
C85   C87   A    
C58   C64   S    
C79   O9    A    
C46   C48   A    
C16   C96   S    
C28   H76   S    
C59   C61   A    
C62   C66   A    
C1    O4    A    
C67   C68   A    
C97   C104  A    
C38   C39   A    
C84   C85   A    
C49   H45   S    
C14   H49   S    
C77   O5    A    
C19   H60   S    
C4    C68   S    
C73   C108  S    
C12   H47   S    
C20   C101  S    
C18   H58   S    
C11   C83   S    
C45   C46   A    
C4    H24   S    
C82   C83   A    
C76   C88   S    
O38   Zn3   S    
C32   C33   A    
C26   H72   S    
C2    C31   A    
C51   C53   A    
C41   C122  S    
C64   H34   S    
O3    Zn5   S    
C107  C114  A    
C62   C63   A    
C67   H78   S    
O37   Zn4   S    
C24   O10   A    
C33   H12   S    
C90   C92   A    
C83   C84   A    
C7    H30   S    
C63   C70   A    
C45   C49   A    
C40   O13   A    
C119  O20   D    
C33   C34   A    
C64   C76   S    
C94   C95   A    
C50   C51   A    
C120  H16   S    
C28   H77   S    
C22   H66   S    
C44   C74   S    
C78   O6    A    
C88   C100  S    
C73   O37   A    
C6    O27   D    
C6    H28   S    
C15   H53   S    
C17   H57   S    
C75   C87   S    
C95   H2    S    
C99   C101  A    
C39   H23   S    
C60   C65   A    
C49   C50   A    
C20   O31   D    
C40   C65   S    
C78   C105  S    
C103  C105  A    
C37   C43   A    
C56   C57   A    
C50   C123  S    
C91   C102  A    
C118  H14   S    
C104  C108  A    
C44   C45   A    
C37   C120  S    
C115  H6    S    
C70   H80   S    
C78   O7    A    
C54   C55   A    
C122  O22   D    
C52   O16   A    
C10   H41   S    
C14   C93   S    
C22   H65   S    
C119  H15   S    
C121  H19   S    
C115  O18   D    
O10   Zn1   S    
C120  H18   S    
C18   C112  S    
C69   C80   A    
O8    Zn5   S    
C19   H61   S    
C99   H4    S    
C90   C96   A    
C12   H46   S    
C14   H50   S    
C105  C106  A    
C16   O28   D    
C52   O15   A    
O39   Zn4   S    
C9    H37   S    
C101  C103  A    
C15   H52   S    
C28   H79   S    
C4    O26   D    
C80   C91   A    
C15   H54   S    
C8    C100  S    
C64   C100  S    
C3    O25   D    
C14   H51   S    
C102  C113  A    
C86   C92   A    
C77   O3    A    
C6    C56   S    
C23   C114  S    
C3    C53   S    
C100  C112  S    
C21   O32   D    
C116  H8    S    
C61   C79   S    
O2    Zn6   S    
C71   O12   A    
C66   H67   S    
C46   C53   A    
C121  O21   D    
C10   C82   S    
C111  C114  A    
O5    Zn6   S    
C89   C93   A    
C61   C62   A    
C8    H33   S    
C38   C121  S    
C75   O40   A    
C71   O17   A    
C29   C30   A    
C7    H29   S    
C74   O39   A    
C98   H3    S    
C116  H7    S    
O6    Zn5   S    
C24   C58   S    
O40   Zn5   S    
C42   C43   A    
C103  C104  A    
C11   H42   S    
C87   C89   A    
C72   O34   A    
C35   C118  S    
C27   H73   S    
C89   C90   A    
C109  C110  A    
C1    O1    A    
O9    Zn6   S    
C7    C57   S    
C13   C113  A    
C25   H71   S    
C9    C81   S    
C21   C109  S    
C47   C58   S    
C106  C109  A    
