data_mof_unit_5063.cif
_audit_creation_date              2012-12-10T17:22:11-0500
_audit_creation_method            fapswitch 2.2
_symmetry_space_group_name_H-M    P1
_symmetry_Int_Tables_number       1
_space_group_crystal_system       triclinic
_cell_length_a                    15.885518
_cell_length_b                    10.778756
_cell_length_c                    9.614471
_cell_angle_alpha                 90.044905
_cell_angle_beta                  90.111501
_cell_angle_gamma                 92.519839
_cell_volume                      1644.65302536

loop_
_atom_site_label
_atom_site_type_symbol
_atom_type_description
_atom_site_fract_x
_atom_site_fract_y
_atom_site_fract_z
_atom_type_partial_charge
C1    C     C_R   0.497169 0.262619 0.499981 0.789193
C2    C     C_3   0.948670 0.395504 0.597652 -0.156961
C3    C     C_3   0.917166 0.498314 0.497868 0.220001
C4    C     C_3   0.955074 0.625041 0.551200 -0.400619
C5    C     C_3   0.052587 0.625533 0.550764 -0.379120
C6    C     C_1   0.824688 0.499817 0.499611 -0.088387
C7    C     C_1   0.175219 0.499787 0.499297 -0.093146
C8    C     C_1   0.250751 0.499872 0.499665 -0.182711
C9    C     C_R   0.362510 0.120581 0.644176 -0.187822
C10   C     C_R   0.299668 0.051601 0.714379 -0.141761
C11   C     C_R   0.299772 0.922580 0.714535 -0.135626
C12   C     C_R   0.340381 0.499708 0.499938 0.803299
C13   C     C_R   0.362750 0.861722 0.644567 -0.172159
C14   C     C_R   0.427968 0.929726 0.574452 0.099925
C15   C     C_R   0.427836 0.060972 0.574275 0.097545
C16   C     C_R   0.491499 0.128432 0.499799 -0.101971
C17   C     C_R   0.551254 0.067356 0.422300 -0.184746
C18   C     C_R   0.551390 0.939358 0.422443 -0.203716
C19   C     C_R   0.491765 0.870522 0.500079 -0.088641
C20   C     C_R   0.611924 0.665156 0.144225 -0.135524
C21   C     C_R   0.666618 0.745836 0.072353 -0.189058
C22   C     C_R   0.666596 0.745861 0.929041 -0.193551
C23   C     C_R   0.497542 0.737085 0.500050 0.762460
C24   C     C_R   0.611878 0.665204 0.856664 -0.134152
C25   C     C_R   0.554913 0.581253 0.925478 0.206901
C26   C     C_R   0.554920 0.581210 0.074953 0.209682
C27   C     C_R   0.447778 0.422660 0.073591 -0.054726
C28   C     C_R   0.447793 0.422688 0.925818 -0.054026
C29   C     C_R   0.659603 0.500415 0.500067 0.809738
C30   C     C_3   0.046624 0.394863 0.594936 -0.412300
C31   C     C_3   0.048986 0.476102 0.349246 -0.408413
C32   C     C_3   0.950935 0.474441 0.347731 -0.136655
C33   C     C_1   0.749197 0.500369 0.500205 -0.154572
C34   C     C_3   0.083041 0.499118 0.498663 0.287116
Cu1   Cu    Cu3+1 0.499990 0.499990 0.640660 0.931496
Cu2   Cu    Cu3+1 0.500010 0.500010 0.359340 0.939835
H1    H     H_    0.071334 0.409149 0.702483 0.157651
H2    H     H_    0.928513 0.416984 0.705555 0.137453
H3    H     H_    0.933560 0.702334 0.485254 0.185343
H4    H     H_    0.599281 0.119298 0.363893 0.157179
H5    H     H_    0.358128 0.220356 0.643150 0.136328
H6    H     H_    0.250034 0.098457 0.767321 0.130838
H7    H     H_    0.250203 0.869306 0.767569 0.133429
H8    H     H_    0.358554 0.761422 0.643995 0.152673
H9    H     H_    0.599524 0.893745 0.364127 0.138577
H10   H     H_    0.404941 0.359173 0.128410 0.137776
H11   H     H_    0.068979 0.303701 0.558843 0.169051
H12   H     H_    0.617356 0.672898 0.253841 0.190873
H13   H     H_    0.709418 0.808815 0.128624 0.156502
H14   H     H_    0.709389 0.808858 0.873180 0.155508
H15   H     H_    0.617261 0.672883 0.747047 0.196213
H16   H     H_    0.404969 0.359205 0.870577 0.133361
H17   H     H_    0.076608 0.548850 0.278442 0.170729
H18   H     H_    0.070187 0.385400 0.310104 0.156581
H19   H     H_    0.926862 0.381350 0.311853 0.134702
H20   H     H_    0.076806 0.644605 0.657736 0.166938
H21   H     H_    0.077861 0.701738 0.482528 0.173722
H22   H     H_    0.932645 0.642822 0.658723 0.171993
N1    N     N_R   0.500800 0.501210 0.147910 -0.198143
N2    N     N_R   0.500820 0.501290 0.852040 -0.197852
O1    O     O_R   0.499990 0.319640 0.618810 -0.575056
O2    O     O_R   0.500000 0.319660 0.381240 -0.574890
O3    O     O_R   0.379430 0.499990 0.618840 -0.588712
O4    O     O_R   0.379440 0.500020 0.381260 -0.569175
O5    O     O_R   0.500000 0.680340 0.618760 -0.602513
O6    O     O_R   0.500010 0.680360 0.381190 -0.591162
O7    O     O_R   0.620560 0.499980 0.618740 -0.587407
O8    O     O_R   0.620570 0.500010 0.381160 -0.588794
C35   C     C_1   0.911476 0.270948 0.563865 0.224206
N3    N     N_1   0.882314 0.173486 0.537398 -0.295539
C36   C     C_1   0.920582 0.564924 0.245719 0.231979
N4    N     N_1   0.896707 0.635686 0.165920 -0.297190

loop_
_geom_bond_atom_site_label_1
_geom_bond_atom_site_label_2
_ccdc_geom_bond_type
C3    C32   S    
C19   C23   S    
C6    C33   T    
C11   H7    S    
C25   N2    A    
Cu1   O7    S    
C30   H11   S    
C10   H6    S    
C2    C35   S    
C11   C13   A    
C9    C10   A    
C2    H2    S    
C32   H19   S    
C9    H5    S    
Cu1   Cu2   S    
C4    H3    S    
C5    H21   S    
C8    C12   S    
C3    C6    S    
C5    C34   S    
Cu2   N1    S    
C24   H15   S    
C21   H13   S    
C17   C18   A    
C9    C15   A    
C31   C34   S    
C7    C8    T    
Cu1   O1    S    
C1    C16   S    
C27   N1    A    
C21   C22   A    
C31   H17   S    
C28   H16   S    
C23   O5    A    
Cu1   N2    S    
C20   H12   S    
C20   C26   A    
Cu2   O2    S    
C27   H10   S    
Cu2   O4    S    
C25   C26   A    
C2    C3    S    
C32   C36   S    
Cu2   O6    S    
C28   N2    A    
C31   H18   S    
C35   N3    T    
C12   O4    A    
C7    C34   S    
C22   C24   A    
C10   C11   A    
Cu1   O5    S    
C15   C16   A    
C29   O8    A    
C18   H9    S    
C29   C33   S    
C22   H14   S    
C36   N4    T    
C2    C30   S    
C24   C25   A    
C23   O6    A    
C1    O2    A    
C31   C32   S    
C18   C19   A    
C26   N1    A    
C4    H22   S    
C27   C28   A    
C12   O3    A    
C30   C34   S    
C14   C15   A    
C16   C17   A    
Cu1   O3    S    
C5    H20   S    
C13   C14   A    
C20   C21   A    
C29   O7    A    
Cu2   O8    S    
C14   C19   A    
C13   H8    S    
C3    C4    S    
C30   H1    S    
C4    C5    S    
C17   H4    S    
C1    O1    A    
