data_mof_unit_49552.cif
_audit_creation_date              2012-10-26T20:09:46-0400
_audit_creation_method            fapswitch 2.2
_symmetry_space_group_name_H-M    P1
_symmetry_Int_Tables_number       1
_space_group_crystal_system       triclinic
_cell_length_a                    11.051976
_cell_length_b                    9.681855
_cell_length_c                    15.854866
_cell_angle_alpha                 90.653036
_cell_angle_beta                  89.313313
_cell_angle_gamma                 88.975681
_cell_volume                      1696.02086672

loop_
_atom_site_label
_atom_site_type_symbol
_atom_type_description
_atom_site_fract_x
_atom_site_fract_y
_atom_site_fract_z
_atom_type_partial_charge
C1    C     C_R   0.258703 0.501555 0.498936 0.612428
C2    C     C_3   0.922439 0.400917 0.562898 -0.240772
C3    C     C_3   0.066849 0.480653 0.400311 -0.017802
C4    C     C_3   0.116476 0.504158 0.497598 -0.055286
C5    C     C_3   0.873200 0.499471 0.494610 -0.110720
C6    C     C_R   0.499566 0.499310 0.341066 0.601032
C7    C     C_3   0.921009 0.458639 0.402577 0.006928
C8    C     C_3   0.602279 0.081843 0.552734 -0.221413
C9    C     C_3   0.612463 0.915479 0.541284 -0.196538
C10   C     C_3   0.385590 0.084890 0.536370 0.545711
C11   C     C_3   0.400262 0.922403 0.555734 0.578784
C12   C     C_3   0.631821 0.513035 0.946624 0.372331
C13   C     C_3   0.525909 0.073967 0.414186 -0.009015
C14   C     C_3   0.504286 0.912769 0.414232 -0.001815
C15   C     C_R   0.737756 0.499259 0.499217 0.547747
C16   C     C_R   0.500506 0.500670 0.658971 0.572600
C17   C     C_3   0.430630 0.630036 0.051632 0.100285
C18   C     C_3   0.436987 0.365212 0.049536 0.070848
C19   C     C_3   0.444528 0.361730 0.950910 -0.039041
C20   C     C_3   0.420920 0.629284 0.952926 -0.083010
C21   C     C_1   0.498764 0.501992 0.748351 0.077817
C22   C     C_3   0.501230 0.497967 0.083467 -0.058036
C23   C     C_3   0.637586 0.496204 0.047869 -0.008732
C24   C     C_3   0.495671 0.501541 0.916313 -0.026146
C25   C     C_2   0.294196 0.655373 0.918671 0.634084
C26   C     C_2   0.331936 0.308255 0.907918 0.636132
C27   C     C_2   0.109308 0.602459 0.344847 0.567293
C28   C     C_2   0.122183 0.358501 0.350734 0.648911
C29   C     C_2   0.859180 0.543397 0.332338 0.643691
C30   C     C_2   0.882560 0.307140 0.383300 0.596198
C31   C     C_2   0.487868 0.136947 0.328895 0.654248
C32   C     C_2   0.404786 0.865880 0.355698 0.620594
C33   C     C_2   0.716404 0.610314 0.085726 0.583925
C34   C     C_1   0.496671 0.502033 0.823786 0.096727
C35   C     C_2   0.700113 0.359867 0.075835 0.590993
C36   C     C_2   0.084886 0.673025 0.628135 0.629696
C37   C     C_2   0.114636 0.385567 0.649354 0.626819
C38   C     C_1   0.499332 0.497109 0.176120 0.102838
C39   C     C_1   0.499042 0.497676 0.251613 0.158128
C40   C     C_3   0.055983 0.648202 0.534676 0.162199
C41   C     C_3   0.063912 0.386069 0.558966 0.213165
C42   C     C_3   0.917525 0.644683 0.520443 -0.197557
Cu1   Cu    Cu3+1 0.499860 0.642410 0.500040 1.102804
Cu2   Cu    Cu3+1 0.499860 0.357590 0.500040 1.093994
H1    H     H_    0.891697 0.719231 0.470782 0.240715
H2    H     H_    0.484326 0.721795 0.068318 0.200472
H3    H     H_    0.513897 0.281055 0.934303 0.182979
H4    H     H_    0.465331 0.724114 0.930660 0.106334
H5    H     H_    0.865727 0.684144 0.576362 0.171771
H6    H     H_    0.890409 0.443975 0.624787 0.165753
H7    H     H_    0.143292 0.776109 0.923073 0.360144
H8    H     H_    0.264751 0.178063 0.820551 0.368288
H9    H     H_    0.076965 0.790386 0.294194 0.380790
H10   H     H_    0.132578 0.253077 0.239862 0.363459
H11   H     H_    0.744864 0.697136 0.297537 0.373363
H12   H     H_    0.879417 0.298244 0.559967 0.174938
H13   H     H_    0.789104 0.176451 0.310167 0.367927
H14   H     H_    0.407717 0.164367 0.650658 0.326788
H15   H     H_    0.471236 0.961485 0.670082 0.291046
H16   H     H_    0.307632 0.094882 0.329123 0.384924
H17   H     H_    0.362180 0.804767 0.237679 0.389702
H18   H     H_    0.219099 0.070796 0.495273 0.395585
H19   H     H_    0.232154 0.899564 0.580956 0.368907
H20   H     H_    0.258635 0.587836 0.071430 0.418669
H21   H     H_    0.319831 0.321933 0.138140 0.365535
H22   H     H_    0.882268 0.694220 0.090082 0.372121
H23   H     H_    0.595204 0.112630 0.620069 0.109074
H24   H     H_    0.744184 0.159411 0.052157 0.368769
H25   H     H_    0.651164 0.717667 0.954972 0.314528
H26   H     H_    0.787727 0.427581 0.915774 0.405214
H27   H     H_    0.158327 0.749907 0.456996 0.423280
H28   H     H_    0.059260 0.184181 0.562554 0.341249
H29   H     H_    0.026169 0.698507 0.748677 0.376798
H30   H     H_    0.259128 0.396604 0.725061 0.365660
H31   H     H_    0.632392 0.865417 0.602400 0.170221
H32   H     H_    0.689964 0.126373 0.532873 0.164082
H33   H     H_    0.694264 0.889548 0.502127 0.136155
H34   H     H_    0.626219 0.080011 0.404614 0.093123
H35   H     H_    0.586366 0.865651 0.382952 0.131837
H36   H     H_    0.485155 0.270864 0.072314 0.168874
N1    N     N_3   0.500250 0.143650 0.501830 -0.260553
N2    N     N_3   0.500250 0.856350 0.501830 -0.250209
O1    O     O_R   0.317570 0.620260 0.500050 -0.429309
O2    O     O_R   0.224118 0.765135 0.952065 -0.624111
O3    O     O_2   0.230747 0.349828 0.928784 -0.368505
O4    O     O_R   0.345111 0.207183 0.844574 -0.705436
O5    O     O_2   0.212880 0.601401 0.316163 -0.488869
O6    O     O_R   0.035862 0.719199 0.330579 -0.642864
O7    O     O_2   0.194584 0.281068 0.382361 -0.401951
O8    O     O_R   0.090312 0.336948 0.266352 -0.609284
O9    O     O_2   0.885683 0.517998 0.258490 -0.362490
O10   O     O_R   0.775864 0.650324 0.350058 -0.694182
O11   O     O_2   0.927292 0.209406 0.420420 -0.490123
O12   O     O_R   0.317570 0.379740 0.500050 -0.339242
O13   O     O_R   0.797066 0.279159 0.321310 -0.595845
O14   O     O_3   0.343292 0.158302 0.608451 -0.614735
O15   O     O_3   0.419552 0.893121 0.642495 -0.631201
O16   O     O_2   0.567583 0.169881 0.279324 -0.462485
O17   O     O_R   0.369661 0.151927 0.300087 -0.632919
O18   O     O_2   0.299317 0.865410 0.378085 -0.478119
O19   O     O_R   0.435239 0.830399 0.272156 -0.661590
O20   O     O_3   0.297937 0.102998 0.474473 -0.581990
O21   O     O_3   0.291800 0.862044 0.538675 -0.575700
O22   O     O_3   0.319105 0.651452 0.094563 -0.621271
O23   O     O_R   0.499890 0.620310 0.379470 -0.489000
O24   O     O_3   0.317036 0.357694 0.079726 -0.631702
O25   O     O_2   0.675788 0.694443 0.137242 -0.534331
O26   O     O_R   0.838231 0.616297 0.061087 -0.597537
O27   O     O_2   0.741950 0.352001 0.146779 -0.394850
O28   O     O_R   0.703134 0.241313 0.024414 -0.672520
O29   O     O_3   0.679703 0.639995 0.918460 -0.644233
O30   O     O_3   0.701129 0.408466 0.905284 -0.608686
O31   O     O_3   0.089688 0.769352 0.494000 -0.666697
O32   O     O_3   0.093620 0.256104 0.525304 -0.602974
O33   O     O_2   0.190141 0.682189 0.649941 -0.419629
O34   O     O_R   0.499890 0.379690 0.379470 -0.469947
O35   O     O_R   0.993386 0.683762 0.689858 -0.698526
O36   O     O_2   0.048362 0.363142 0.709949 -0.487784
O37   O     O_R   0.237930 0.401555 0.663183 -0.615744
O38   O     O_R   0.682190 0.620260 0.500020 -0.512409
O39   O     O_R   0.682190 0.379740 0.500020 -0.529346
O40   O     O_R   0.499870 0.620210 0.620600 -0.440504
O41   O     O_R   0.499870 0.379790 0.620600 -0.509437
O42   O     O_2   0.257275 0.591167 0.857708 -0.473301

loop_
_geom_bond_atom_site_label_1
_geom_bond_atom_site_label_2
_ccdc_geom_bond_type
C5    C42   S    
C16   C21   S    
C7    C29   S    
C13   N1    S    
C10   N1    S    
Cu1   O1    S    
C33   O25   D    
C12   O30   S    
C41   O32   S    
H16   O17   S    
H30   O37   S    
C12   C23   S    
C30   O13   S    
C3    C28   S    
C17   O22   S    
H10   O8    S    
C30   O11   D    
C3    C7    S    
C38   C39   T    
C19   H3    S    
C4    C41   S    
C2    C41   S    
C22   C38   S    
H28   O32   S    
Cu2   O39   S    
C8    H32   S    
C17   C20   S    
C15   O38   A    
H27   O31   S    
C18   C19   S    
Cu1   O23   S    
C31   O16   D    
C19   C26   S    
H14   O14   S    
C16   O40   A    
C2    H6    S    
C37   O36   D    
C4    C40   S    
C16   O41   A    
C1    O12   A    
C23   C33   S    
C20   C25   S    
C25   O2    S    
C28   O7    D    
C10   O14   S    
C35   O27   D    
C9    N2    S    
C40   C42   S    
C7    C30   S    
C13   C14   S    
C33   O26   S    
C22   C23   S    
C11   N2    S    
H29   O35   S    
C8    N1    S    
C20   C24   S    
C10   O20   S    
C17   H2    S    
H19   O21   S    
Cu2   N1    S    
H22   O26   S    
C5    C7    S    
C8    C9    S    
H24   O28   S    
C21   C34   T    
C24   C34   S    
C32   O18   D    
C42   H1    S    
H17   O19   S    
Cu1   Cu2   S    
C18   O24   S    
H11   O10   S    
C40   O31   S    
C37   O37   S    
C36   C40   S    
C26   O4    S    
C6    C39   S    
C9    H33   S    
C14   H35   S    
C27   O5    D    
C36   O35   S    
Cu1   O40   S    
C6    O34   A    
C20   H4    S    
C35   O28   S    
H26   O30   S    
C31   O17   S    
H15   O15   S    
C2    C5    S    
C14   N2    S    
C3    C4    S    
H21   O24   S    
C29   O9    D    
H20   O22   S    
C12   C24   S    
C13   H34   S    
C15   O39   A    
C18   C22   S    
C13   C31   S    
C14   C32   S    
C28   O8    S    
C1    O1    A    
Cu1   O38   S    
Cu2   O41   S    
C23   C35   S    
C17   C22   S    
C11   O15   S    
C1    C4    S    
H8    O4    S    
C19   C24   S    
C2    H12   S    
H25   O29   S    
C26   O3    D    
C3    C27   S    
C6    O23   A    
H9    O6    S    
C12   O29   S    
C37   C41   S    
C27   O6    S    
C25   O42   D    
C5    C15   S    
Cu2   O12   S    
C10   C11   S    
C42   H5    S    
Cu2   O34   S    
C8    H23   S    
C18   H36   S    
H13   O13   S    
Cu1   N2    S    
C32   O19   S    
C11   O21   S    
C9    H31   S    
C36   O33   D    
H7    O2    S    
C29   O10   S    
H18   O20   S    
