data_mof_unit_18302.cif
_audit_creation_date              2012-12-11T16:04:53-0500
_audit_creation_method            fapswitch 2.2
_symmetry_space_group_name_H-M    P1
_symmetry_Int_Tables_number       1
_space_group_crystal_system       triclinic
_cell_length_a                    10.604196
_cell_length_b                    10.739242
_cell_length_c                    16.931219
_cell_angle_alpha                 98.705554
_cell_angle_beta                  98.604458
_cell_angle_gamma                 61.303247
_cell_volume                      1665.2376657

loop_
_atom_site_label
_atom_site_type_symbol
_atom_type_description
_atom_site_fract_x
_atom_site_fract_y
_atom_site_fract_z
_atom_type_partial_charge
C1    C     C_R   0.352134 0.779288 0.400475 0.567387
C2    C     C_3   0.723344 0.307497 0.247107 -0.108434
C3    C     C_3   0.802654 0.358152 0.317493 0.062108
C4    C     C_3   0.948437 0.260508 0.285973 -0.135439
C5    C     C_3   0.928488 0.381987 0.239512 -0.113754
C6    C     C_3   0.781248 0.481154 0.271832 -0.108245
C7    C     C_3   0.704032 0.429054 0.200072 -0.157219
C8    C     C_3   0.850123 0.330266 0.169162 0.047950
C9    C     C_3   0.463310 0.787969 0.223464 -0.154068
C10   C     C_3   0.403765 0.700270 0.255420 -0.128839
C11   C     C_3   0.337896 0.821750 0.321540 0.040785
C12   C     C_R   0.369590 0.346482 0.359093 0.543519
C13   C     C_3   0.397105 0.908804 0.291031 -0.148661
C14   C     C_3   0.253502 0.979341 0.237403 -0.142403
C15   C     C_3   0.195211 0.890564 0.269461 0.090890
C16   C     C_3   0.261741 0.771316 0.202651 0.107425
C17   C     C_3   0.321311 0.857317 0.171360 0.037297
C18   C     C_3   0.390976 0.373638 0.801943 0.030978
C19   C     C_3   0.277407 0.466680 0.738888 -0.093945
C20   C     C_3   0.362115 0.351814 0.674057 0.034651
C21   C     C_3   0.476694 0.260435 0.736814 -0.140908
C22   C     C_3   0.387266 0.182206 0.738556 -0.130540
C23   C     C_R   0.770797 0.380417 0.399739 0.558501
C24   C     C_3   0.273124 0.273934 0.674808 -0.107489
C25   C     C_3   0.188109 0.387505 0.741297 -0.133213
C26   C     C_3   0.303021 0.295881 0.803887 0.031576
C27   C     C_1   0.816686 0.342672 0.709762 -0.049079
C28   C     C_1   0.843520 0.315275 0.778167 -0.046750
C29   C     C_1   0.357429 0.766644 0.714283 -0.050091
C30   C     C_1   0.326370 0.813170 0.781839 -0.009266
C31   C     C_R   0.892246 0.311197 0.090240 0.544011
C32   C     C_R   0.318733 0.298168 0.120638 0.569116
C33   C     C_R   0.294912 0.890863 0.088825 0.580188
C34   C     C_R   0.379412 0.716530 0.631769 0.529745
C35   C     C_R   0.885207 0.299332 0.860961 0.536428
C36   C     C_R   0.281072 0.257629 0.877142 0.536524
C37   C     C_R   0.282368 0.881070 0.859519 0.597494
C38   C     C_R   0.403150 0.373206 0.601506 0.531660
C39   C     C_R   0.773124 0.380353 0.629741 0.534277
C40   C     C_1   0.342268 0.335165 0.275492 -0.052900
C41   C     C_1   0.330875 0.324390 0.204319 -0.038609
C42   C     C_3   0.870766 0.208556 0.214029 -0.089974
Cr1   Cr    Cr6+3 0.608340 0.611040 0.520430 1.030587
Cr2   Cr    Cr6+3 0.287650 0.601120 0.489350 1.055854
Cr3   Cr    Cr6+3 0.604040 0.287870 0.490280 1.042099
Cr4   Cr    Cr6+3 0.054020 0.052700 0.970850 1.052852
Cr5   Cr    Cr6+3 0.059230 0.375120 0.993390 1.072418
Cr6   Cr    Cr6+3 0.374950 0.061200 0.992340 1.043802
H1    H     H_    0.639903 0.275909 0.252741 0.145674
H2    H     H_    0.198391 0.092373 0.224213 0.110758
H3    H     H_    0.233110 0.583267 0.737358 0.142202
H4    H     H_    0.595278 0.210065 0.733908 0.124197
H5    H     H_    0.430773 0.065518 0.739762 0.135723
H6    H     H_    0.225509 0.233853 0.620615 0.138600
H7    H     H_    0.069756 0.437853 0.744895 0.139204
H8    H     H_    0.904450 0.100493 0.182625 0.177455
H9    H     H_    0.044302 0.198045 0.326467 0.130055
H10   H     H_    0.012840 0.412801 0.234371 0.145185
H11   H     H_    0.746608 0.592656 0.298067 0.147070
H12   H     H_    0.608941 0.492453 0.159382 0.126198
H13   H     H_    0.458597 0.586650 0.267545 0.119819
H14   H     H_    0.570637 0.748082 0.201335 0.136949
H15   H     H_    0.450874 0.965918 0.329676 0.146800
O1    O     O_R   0.751220 0.499230 0.435170 -0.520322
O2    O     O_R   0.297880 0.469080 0.560050 -0.509068
O3    O     O_R   0.489720 0.254590 0.564810 -0.502437
O4    O     O_R   0.725220 0.304230 0.585080 -0.508187
O5    O     O_3   0.500010 0.500010 0.500020 -0.303975
O6    O     O_R   0.171830 0.913880 0.057510 -0.482003
O7    O     O_R   0.940690 0.186050 0.054730 -0.511826
O8    O     O_R   0.920470 0.405720 0.075010 -0.502012
O9    O     O_R   0.196690 0.370460 0.084120 -0.466379
O10   O     O_R   0.412990 0.180750 0.091610 -0.508985
O11   O     O_R   0.366620 0.943130 0.065760 -0.498777
O12   O     O_R   0.477220 0.727600 0.436870 -0.503814
O13   O     O_R   0.160510 0.906330 0.879210 -0.486646
O14   O     O_R   0.930190 0.179050 0.889450 -0.506693
O15   O     O_R   0.909140 0.398170 0.896710 -0.504416
O16   O     O_R   0.186190 0.363460 0.918830 -0.474829
O17   O     O_R   0.401670 0.173200 0.913310 -0.526134
O18   O     O_R   0.356120 0.936130 0.900470 -0.509890
O19   O     O_3   0.162740 0.163010 0.985530 -0.296946
O20   O     O_R   0.258650 0.745120 0.411470 -0.471191
O21   O     O_R   0.297070 0.467240 0.395960 -0.480619
O22   O     O_R   0.488830 0.252610 0.387790 -0.507663
O23   O     O_R   0.724400 0.302390 0.420980 -0.482636
O24   O     O_R   0.752100 0.501210 0.612190 -0.508815
O25   O     O_R   0.478040 0.729440 0.600970 -0.487811
O26   O     O_R   0.259530 0.747110 0.588490 -0.503753
I1    I     I_    0.994788 0.931994 0.313799 -0.351471
I2    I     I_    0.142002 0.677641 0.129481 -0.280462
C43   C     C_2   0.459257 0.424759 0.874415 0.249258
H16   H     H_    0.541457 0.348601 0.913635 0.123302
O27   O     O_2   0.423136 0.551409 0.889699 -0.510983

loop_
_geom_bond_atom_site_label_1
_geom_bond_atom_site_label_2
_ccdc_geom_bond_type
C18   C21   S    
C3    C23   S    
C2    C7    S    
C1    C11   S    
Cr5   O16   S    
C3    C6    S    
Cr4   O13   S    
C7    C8    S    
C32   O9    A    
C12   O22   A    
Cr1   O25   S    
C8    C42   S    
C5    C6    S    
C24   H6    S    
C15   C16   S    
Cr6   O18   S    
C12   O21   A    
C18   C19   S    
Cr5   O19   S    
C9    C13   S    
Cr4   O6    S    
C42   H8    S    
Cr4   O19   S    
C11   C15   S    
C31   O7    A    
C38   O3    A    
C28   C35   S    
C27   C39   S    
Cr1   O5    S    
C23   O23   A    
C18   C26   S    
C4    H9    S    
Cr3   O4    S    
C32   C41   S    
C39   O24   A    
C9    C10   S    
C33   O6    A    
Cr2   O20   S    
C31   O8    A    
C21   C22   S    
C14   C17   S    
C37   O18   A    
Cr2   O2    S    
C17   C33   S    
Cr6   O10   S    
Cr1   O1    S    
C22   H5    S    
Cr1   O12   S    
C9    H14   S    
C1    O12   A    
Cr6   O11   S    
C24   C25   S    
C36   O17   A    
C32   O10   A    
C16   C17   S    
C25   C26   S    
C29   C34   S    
C35   O14   A    
C30   C37   S    
C12   C40   S    
Cr3   O22   S    
C29   C30   T    
C2    H1    S    
C5    C8    S    
C20   C38   S    
C13   H15   S    
C38   O2    A    
Cr3   O5    S    
C43   O27   D    
C34   O25   A    
Cr5   O8    S    
C5    H10   S    
C26   C36   S    
C23   O1    A    
C37   O13   A    
C22   C24   S    
Cr2   O5    S    
C10   H13   S    
C3    C4    S    
C7    H12   S    
Cr3   O3    S    
C9    C17   S    
C40   C41   T    
C8    C31   S    
C39   O4    A    
C6    H11   S    
C25   H7    S    
C4    C5    S    
Cr2   O21   S    
C36   O16   A    
Cr4   O14   S    
C6    C7    S    
C1    O20   A    
C35   O15   A    
Cr1   O24   S    
Cr6   O17   S    
C19   C20   S    
C2    C3    S    
C34   O26   A    
C18   C43   S    
C10   C16   S    
C15   I1    S    
C11   C13   S    
C14   H2    S    
C4    C42   S    
C2    C42   S    
C43   H16   S    
Cr6   O19   S    
Cr3   O23   S    
C19   C25   S    
Cr5   O9    S    
Cr4   O7    S    
C10   C11   S    
C19   H3    S    
C33   O11   A    
C20   C21   S    
C16   I2    S    
C22   C26   S    
C27   C28   T    
C14   C15   S    
Cr5   O15   S    
C13   C14   S    
C20   C24   S    
C21   H4    S    
Cr2   O26   S    
