data_mof_unit_15048.cif
_audit_creation_date              2012-12-11T15:57:35-0500
_audit_creation_method            fapswitch 2.2
_symmetry_space_group_name_H-M    P1
_symmetry_Int_Tables_number       1
_space_group_crystal_system       triclinic
_cell_length_a                    10.864542
_cell_length_b                    10.75264
_cell_length_c                    17.131752
_cell_angle_alpha                 99.732912
_cell_angle_beta                  100.425097
_cell_angle_gamma                 61.161378
_cell_volume                      1716.4415382

loop_
_atom_site_label
_atom_site_type_symbol
_atom_type_description
_atom_site_fract_x
_atom_site_fract_y
_atom_site_fract_z
_atom_type_partial_charge
C1    C     C_R   0.354881 0.772536 0.401241 0.551663
C2    C     C_2   0.824415 0.334174 0.156140 -0.119259
C3    C     C_2   0.850930 0.223654 0.194529 -0.171401
C4    C     C_2   0.817231 0.245771 0.275843 -0.148409
C5    C     C_2   0.327662 0.836016 0.328816 -0.095736
C6    C     C_2   0.284201 0.951281 0.175508 0.017428
C7    C     C_2   0.386491 0.825650 0.200837 0.013659
C8    C     C_2   0.429190 0.813371 0.285675 -0.027057
C9    C     C_2   0.346536 0.324733 0.655208 -0.057737
C10   C     C_2   0.322603 0.357758 0.830537 -0.034291
C11   C     C_2   0.438739 0.285793 0.792067 -0.050343
C12   C     C_R   0.371284 0.348046 0.356519 0.540211
C13   C     C_2   0.437562 0.332423 0.718405 -0.036117
C14   C     C_1   0.849656 0.326789 0.704313 -0.087549
C15   C     C_1   0.893390 0.292072 0.771198 -0.078656
C16   C     C_1   0.338958 0.816067 0.708503 -0.074487
C17   C     C_1   0.311197 0.845912 0.775994 -0.081765
C18   C     C_R   0.893224 0.308599 0.085816 0.543582
C19   C     C_R   0.319557 0.300272 0.119433 0.539059
C20   C     C_R   0.252539 0.967244 0.092047 0.593350
C21   C     C_R   0.941996 0.273444 0.853939 0.553812
C22   C     C_R   0.304617 0.294717 0.893755 0.534630
C23   C     C_R   0.775657 0.377130 0.404891 0.560270
C24   C     C_R   0.275541 0.889991 0.855483 0.539422
C25   C     C_R   0.358714 0.770415 0.626939 0.537691
C26   C     C_R   0.367865 0.343885 0.579332 0.537557
C27   C     C_R   0.780599 0.377142 0.627998 0.533024
C28   C     C_1   0.345809 0.339771 0.273142 -0.048269
C29   C     C_1   0.334385 0.329060 0.202437 -0.043037
C30   C     C_2   0.850737 0.329216 0.334609 -0.013270
Cr1   Cr    Cr6+3 0.608020 0.610770 0.522990 1.000116
Cr2   Cr    Cr6+3 0.289390 0.599570 0.488050 1.021257
Cr3   Cr    Cr6+3 0.602610 0.289690 0.489020 1.012566
Cr4   Cr    Cr6+3 0.053780 0.052210 0.965970 0.980441
Cr5   Cr    Cr6+3 0.060060 0.372530 0.992430 1.005764
Cr6   Cr    Cr6+3 0.372600 0.061970 0.991430 1.018092
H1    H     H_    0.900850 0.114651 0.167195 0.156694
H2    H     H_    0.270022 0.288865 0.658980 0.066362
H3    H     H_    0.753359 0.198480 0.285699 0.155934
H4    H     H_    0.772424 0.442603 0.184040 0.109202
H5    H     H_    0.219660 0.872761 0.300036 0.104232
O1    O     O_R   0.749250 0.499990 0.439200 -0.524862
O2    O     O_R   0.299400 0.468710 0.556310 -0.494727
O3    O     O_R   0.489240 0.256450 0.560730 -0.514895
O4    O     O_R   0.723350 0.306730 0.584410 -0.502969
O5    O     O_3   0.500010 0.500010 0.500020 -0.256361
O6    O     O_R   0.170650 0.915100 0.051290 -0.526791
O7    O     O_R   0.941960 0.184500 0.049060 -0.527380
O8    O     O_R   0.922640 0.402670 0.071640 -0.509208
O9    O     O_R   0.196880 0.368740 0.083740 -0.499417
O10   O     O_R   0.411120 0.181190 0.091480 -0.513459
O11   O     O_R   0.364220 0.944920 0.062310 -0.499890
O12   O     O_R   0.477870 0.725740 0.440280 -0.499487
O13   O     O_R   0.158740 0.906940 0.874970 -0.519060
O14   O     O_R   0.930920 0.176940 0.885610 -0.503568
O15   O     O_R   0.910730 0.394510 0.895320 -0.514577
O16   O     O_R   0.185840 0.361180 0.920280 -0.516262
O17   O     O_R   0.399210 0.173040 0.915160 -0.501317
O18   O     O_R   0.353170 0.937370 0.898860 -0.488174
O19   O     O_3   0.162150 0.162240 0.983280 -0.297450
O20   O     O_R   0.260770 0.742210 0.412610 -0.514317
O21   O     O_R   0.297990 0.466320 0.394220 -0.497400
O22   O     O_R   0.487720 0.253870 0.385870 -0.518331
O23   O     O_R   0.721940 0.304340 0.422320 -0.503976
O24   O     O_R   0.750770 0.502570 0.614050 -0.523562
O25   O     O_R   0.479280 0.728140 0.602370 -0.504363
O26   O     O_R   0.262290 0.744790 0.587460 -0.511918
C31   C     C_3   0.544974 0.380855 0.717756 -0.338075
H6    H     H_    0.564488 0.432673 0.777172 0.108500
H7    H     H_    0.642632 0.282537 0.704874 0.170063
H8    H     H_    0.511287 0.459114 0.673678 0.163476
C32   C     C_R   0.196083 0.487724 0.798588 0.015620
C33   C     C_R   0.205473 0.607010 0.783510 -0.064452
C34   C     C_R   0.088387 0.717792 0.744811 -0.063851
C35   C     C_R   0.960351 0.714049 0.725018 -0.106794
C36   C     C_R   0.949445 0.598210 0.741983 -0.114993
C37   C     C_R   0.067793 0.483896 0.775251 -0.076363
H9    H     H_    0.304475 0.610759 0.799388 0.111048
H10   H     H_    0.094171 0.807863 0.729771 0.141338
H11   H     H_    0.869638 0.801113 0.696813 0.120598
H12   H     H_    0.849607 0.596782 0.729232 0.150133
H13   H     H_    0.062321 0.389593 0.781569 0.119755
C38   C     C_3   0.949210 0.389348 0.328894 -0.389765
H14   H     H_    0.005043 0.346275 0.275283 0.135829
H15   H     H_    0.889002 0.506985 0.328568 0.136299
H16   H     H_    0.030937 0.363446 0.381427 0.136171
C39   C     C_3   0.452643 0.691047 0.144983 -0.363864
H17   H     H_    0.517574 0.596261 0.178904 0.113501
H18   H     H_    0.369304 0.671719 0.105579 0.156847
H19   H     H_    0.522399 0.699317 0.108419 0.156968
C40   C     C_3   0.584319 0.755156 0.315144 -0.352735
H20   H     H_    0.642358 0.762409 0.270380 0.119990
H21   H     H_    0.600626 0.817378 0.371042 0.155689
H22   H     H_    0.628758 0.641306 0.323891 0.165252
C41   C     C_3   0.223825 0.087321 0.230077 -0.425403
H23   H     H_    0.143996 0.089747 0.263117 0.127074
H24   H     H_    0.308910 0.097629 0.272899 0.146237
H25   H     H_    0.170718 0.181418 0.195135 0.118068
C42   C     C_R   0.560369 0.147785 0.813398 0.056257
C43   C     C_R   0.560198 0.020278 0.777769 -0.063298
C44   C     C_R   0.657928 0.890966 0.807931 -0.102408
C45   C     C_R   0.759673 0.887325 0.871765 -0.112071
C46   C     C_R   0.763152 0.013378 0.905799 -0.081499
C47   C     C_R   0.663192 0.143766 0.877097 -0.051671
H26   H     H_    0.479328 0.022278 0.729829 0.105460
H27   H     H_    0.653031 0.794075 0.782565 0.116069
H28   H     H_    0.835317 0.786941 0.895110 0.121605
H29   H     H_    0.840986 0.010278 0.955759 0.141089
H30   H     H_    0.662081 0.241790 0.906303 0.123393

loop_
_geom_bond_atom_site_label_1
_geom_bond_atom_site_label_2
_ccdc_geom_bond_type
Cr1   O25   S    
C39   H17   S    
C44   C45   A    
Cr1   O1    S    
C9    C26   S    
C2    C18   S    
Cr3   O4    S    
C33   C34   A    
C41   H23   S    
C25   O26   A    
Cr6   O18   S    
C22   O16   A    
C41   H25   S    
C26   O3    A    
C7    C8    S    
C10   C22   S    
C43   H26   S    
C23   O1    A    
C12   C28   S    
C1    C5    S    
C28   C29   T    
Cr2   O20   S    
Cr6   O17   S    
C31   H8    S    
C47   H30   S    
C24   O13   A    
C16   C25   S    
C11   C42   S    
C30   C38   S    
C9    C13   D    
C9    H2    S    
C1    O12   A    
C7    C39   S    
C38   H14   S    
C16   C17   T    
Cr1   O5    S    
Cr5   O8    S    
C33   H9    S    
C46   H29   S    
C14   C27   S    
C35   H11   S    
Cr6   O11   S    
C27   O4    A    
C42   C47   A    
Cr4   O14   S    
Cr4   O19   S    
Cr3   O5    S    
C21   O15   A    
C26   O2    A    
C17   C24   S    
C34   C35   A    
C23   C30   S    
C36   C37   A    
C40   H20   S    
C21   O14   A    
C12   O22   A    
C31   H6    S    
C18   O7    A    
Cr5   O19   S    
C35   C36   A    
C32   C37   A    
C27   O24   A    
C19   O10   A    
C40   H21   S    
C12   O21   A    
C42   C43   A    
C4    H3    S    
Cr3   O22   S    
Cr5   O9    S    
C45   H28   S    
C8    C40   S    
Cr1   O12   S    
Cr6   O10   S    
Cr2   O26   S    
C23   O23   A    
C38   H15   S    
Cr4   O13   S    
C34   H10   S    
C39   H18   S    
Cr4   O7    S    
C3    C4    S    
C19   C29   S    
Cr3   O23   S    
C44   H27   S    
Cr1   O24   S    
C5    H5    S    
Cr5   O15   S    
Cr3   O3    S    
Cr2   O5    S    
C25   O25   A    
C32   C33   A    
Cr6   O19   S    
C1    O20   A    
C36   H12   S    
C22   O17   A    
C5    C8    D    
C41   H24   S    
C6    C7    D    
C6    C20   S    
Cr5   O16   S    
C2    C3    D    
Cr2   O21   S    
C20   O11   A    
C40   H22   S    
C11   C13   S    
C19   O9    A    
C37   H13   S    
C24   O18   A    
C43   C44   A    
Cr2   O2    S    
C45   C46   A    
C20   O6    A    
C10   C11   D    
C2    H4    S    
C15   C21   S    
C38   H16   S    
C3    H1    S    
C31   H7    S    
C6    C41   S    
C39   H19   S    
C46   C47   A    
C14   C15   T    
Cr4   O6    S    
C4    C30   D    
C18   O8    A    
C13   C31   S    
C10   C32   S    
