data_mof_unit_35735.cif
_audit_creation_date              2012-12-11T15:06:59-0500
_audit_creation_method            fapswitch 2.2
_symmetry_space_group_name_H-M    P1
_symmetry_Int_Tables_number       1
_space_group_crystal_system       triclinic
_cell_length_a                    19.739234
_cell_length_b                    11.46933
_cell_length_c                    18.716579
_cell_angle_alpha                 89.547619
_cell_angle_beta                  89.762706
_cell_angle_gamma                 89.94944
_cell_volume                      4237.18471834

loop_
_atom_site_label
_atom_site_type_symbol
_atom_type_description
_atom_site_fract_x
_atom_site_fract_y
_atom_site_fract_z
_atom_type_partial_charge
C1    C     C_R   0.763683 0.513855 0.636732 0.554372
C2    C     C_3   0.252976 0.047958 0.561791 0.080648
C3    C     C_R   0.740234 0.037528 0.153121 0.520802
C4    C     C_R   0.773377 0.132105 0.858781 0.532783
C5    C     C_R   0.225570 0.134042 0.141117 0.533226
C6    C     C_R   0.273377 0.632105 0.858781 0.532783
C7    C     C_R   0.725570 0.634042 0.141117 0.533226
C8    C     C_R   0.969202 0.353161 0.852843 0.535177
C9    C     C_R   0.047381 0.355889 0.140284 0.549484
C10   C     C_R   0.469202 0.853161 0.852843 0.535177
C11   C     C_R   0.547380 0.855889 0.140284 0.549484
C12   C     C_3   0.690110 0.130660 0.465654 -0.232070
C13   C     C_3   0.246948 0.547601 0.438163 0.081157
C14   C     C_3   0.309467 0.131668 0.533948 -0.235075
C15   C     C_3   0.190110 0.630660 0.465654 -0.232070
C16   C     C_3   0.809467 0.631668 0.533948 -0.235075
C17   C     C_3   0.695039 0.145842 0.546136 -0.239498
C18   C     C_3   0.304749 0.146801 0.453357 -0.240205
C19   C     C_3   0.195039 0.645842 0.546136 -0.239497
C20   C     C_3   0.804749 0.646801 0.453357 -0.240205
C21   C     C_3   0.752605 0.935501 0.486452 -0.253319
C22   C     C_3   0.248191 0.935422 0.515043 -0.249084
C23   C     C_3   0.252605 0.435501 0.486452 -0.253319
C24   C     C_3   0.752977 0.547958 0.561791 0.080648
C25   C     C_3   0.748191 0.435422 0.515043 -0.249084
C26   C     C_3   0.614658 0.809301 0.818120 -0.316904
C27   C     C_3   0.399974 0.803146 0.171403 -0.305281
C28   C     C_3   0.114659 0.309301 0.818121 -0.316906
C29   C     C_3   0.899973 0.303146 0.171403 -0.305281
C30   C     C_3   0.858659 0.189001 0.331329 -0.317436
C31   C     C_3   0.140056 0.184284 0.666088 -0.317089
C32   C     C_3   0.358659 0.689002 0.331329 -0.317438
C33   C     C_3   0.640056 0.684284 0.666088 -0.317089
C34   C     C_3   0.762301 0.093485 0.573596 0.047138
C35   C     C_3   0.238188 0.092372 0.425955 0.046363
C36   C     C_3   0.262301 0.593485 0.573596 0.047138
C37   C     C_3   0.738188 0.592372 0.425955 0.046363
C38   C     C_3   0.753880 0.962937 0.566443 -0.268875
C39   C     C_3   0.247543 0.962079 0.434764 -0.269919
C40   C     C_3   0.253880 0.462937 0.566443 -0.268875
C41   C     C_R   0.236048 0.512599 0.363573 0.550307
C42   C     C_3   0.747543 0.462079 0.434764 -0.269919
C43   C     C_3   0.825066 0.131500 0.526687 -0.186989
C44   C     C_3   0.175023 0.130257 0.471561 -0.186020
C45   C     C_3   0.325066 0.631501 0.526687 -0.186989
C46   C     C_3   0.675023 0.630257 0.471561 -0.186020
C47   C     C_3   0.001754 0.211916 0.459830 -0.242881
C48   C     C_3   0.998132 0.212348 0.541425 -0.241702
C49   C     C_3   0.501754 0.711916 0.459830 -0.242881
C50   C     C_3   0.498132 0.712348 0.541425 -0.241702
C51   C     C_3   0.064447 0.408680 0.472353 -0.203789
C52   C     C_R   0.263683 0.013855 0.636732 0.554372
C53   C     C_3   0.935430 0.409197 0.526910 -0.206321
C54   C     C_3   0.564446 0.908680 0.472353 -0.203789
C55   C     C_3   0.435430 0.909197 0.526910 -0.206321
C56   C     C_3   0.943292 0.400903 0.445624 -0.271687
C57   C     C_3   0.056373 0.402018 0.553675 -0.270319
C58   C     C_3   0.443292 0.900903 0.445624 -0.271687
C59   C     C_3   0.556374 0.902018 0.553675 -0.270319
C60   C     C_3   0.009880 0.337595 0.430742 0.069078
C61   C     C_3   0.990026 0.338387 0.569249 0.069557
C62   C     C_3   0.509880 0.837595 0.430743 0.069078
C63   C     C_R   0.736048 0.012599 0.363573 0.550308
C64   C     C_3   0.490026 0.838387 0.569249 0.069557
C65   C     C_3   0.820740 0.061639 0.052979 -0.246191
C66   C     C_3   0.187960 0.018529 0.956358 -0.238335
C67   C     C_3   0.320740 0.561639 0.052979 -0.246191
C68   C     C_3   0.687960 0.518529 0.956358 -0.238335
C69   C     C_R   0.775872 0.125211 0.648243 0.540729
C70   C     C_R   0.224590 0.123844 0.351220 0.539701
C71   C     C_R   0.275873 0.625211 0.648243 0.540729
C72   C     C_R   0.724590 0.623845 0.351220 0.539701
C73   C     C_3   0.826122 0.101503 0.976493 -0.235652
C74   C     C_3   0.816469 0.105573 0.446233 0.024100
C75   C     C_3   0.183838 0.021028 0.036306 -0.235494
C76   C     C_3   0.326122 0.601504 0.976494 -0.235654
C77   C     C_3   0.683838 0.521027 0.036306 -0.235494
C78   C     C_3   0.707488 0.984031 0.033093 -0.219374
C79   C     C_3   0.312689 0.976858 0.984529 -0.239387
C80   C     C_3   0.207488 0.484031 0.033093 -0.219375
C81   C     C_3   0.812690 0.476859 0.984529 -0.239387
C82   C     C_3   0.716967 0.193956 0.055843 -0.254538
C83   C     C_3   0.280681 0.167302 0.940937 -0.234764
C84   C     C_3   0.216966 0.693955 0.055842 -0.254538
C85   C     C_3   0.182978 0.104066 0.552090 0.022444
C86   C     C_3   0.780681 0.667303 0.940937 -0.234764
C87   C     C_3   0.746762 0.073141 0.076637 0.066424
C88   C     C_3   0.262864 0.038305 0.932071 0.056576
C89   C     C_3   0.246762 0.573141 0.076637 0.066424
C90   C     C_3   0.762864 0.538305 0.932071 0.056576
C91   C     C_3   0.757926 0.106316 0.936866 0.046931
C92   C     C_3   0.243374 0.096408 0.066742 0.053960
C93   C     C_3   0.257926 0.606316 0.936866 0.046931
C94   C     C_3   0.743374 0.596408 0.066742 0.053960
C95   C     C_3   0.722819 0.991729 0.951400 -0.260810
C96   C     C_3   0.316469 0.605573 0.446233 0.024100
C97   C     C_3   0.305688 0.020510 0.063012 -0.225194
C98   C     C_3   0.222820 0.491728 0.951400 -0.260810
C99   C     C_3   0.805688 0.520511 0.063012 -0.225195
C100  C     C_3   0.712025 0.201521 0.972462 -0.238764
C101  C     C_3   0.258599 0.202534 0.016923 -0.250637
C102  C     C_3   0.212025 0.701521 0.972462 -0.238765
C103  C     C_3   0.758598 0.702534 0.016923 -0.250637
C104  C     C_3   0.012334 0.478822 0.035809 -0.234241
C105  C     C_3   0.008176 0.478198 0.955059 -0.230123
C106  C     C_3   0.512333 0.978822 0.035809 -0.234241
C107  C     C_3   0.682978 0.604066 0.552090 0.022444
C108  C     C_3   0.508176 0.978198 0.955059 -0.230122
C109  C     C_3   0.078258 0.288216 0.019319 -0.247325
C110  C     C_3   0.945228 0.285162 0.972947 -0.236965
C111  C     C_3   0.578258 0.788217 0.019319 -0.247325
C112  C     C_3   0.445228 0.785161 0.972947 -0.236964
C113  C     C_3   0.959622 0.281973 0.054532 0.010611
C114  C     C_3   0.061963 0.280890 0.937676 0.002917
C115  C     C_3   0.459622 0.781973 0.054532 0.010611
C116  C     C_3   0.561963 0.780890 0.937676 0.002917
C117  C     C_R   0.969460 0.343271 0.645470 0.520918
C118  C     C_3   0.746948 0.047601 0.438163 0.081157
C119  C     C_R   0.030442 0.342842 0.354476 0.523128
C120  C     C_R   0.469460 0.843271 0.645470 0.520918
C121  C     C_R   0.530442 0.842842 0.354476 0.523129
C122  C     C_3   0.024144 0.352905 0.064842 0.082692
C123  C     C_3   0.997212 0.351042 0.926931 0.090977
C124  C     C_3   0.524144 0.852905 0.064842 0.082692
C125  C     C_3   0.497212 0.851042 0.926931 0.090977
C126  C     C_R   0.770799 0.497729 0.856368 0.541428
C127  C     C_R   0.240234 0.537528 0.153121 0.520802
C128  C     C_R   0.270799 0.997729 0.856368 0.541428
Cr1   Cr    Cr6+3 0.885690 0.492860 0.745310 0.983464
Cr2   Cr    Cr6+3 0.111880 0.178590 0.246990 0.975976
Cr3   Cr    Cr6+3 0.388120 0.678590 0.753010 0.978352
Cr4   Cr    Cr6+3 0.611880 0.678590 0.246990 0.975976
Cr5   Cr    Cr6+3 0.114310 0.492860 0.254690 0.980729
Cr6   Cr    Cr6+3 0.385690 0.992860 0.745310 0.983464
Cr7   Cr    Cr6+3 0.614310 0.992860 0.254690 0.980729
Cr8   Cr    Cr6+3 0.729880 0.332270 0.748190 0.978320
Cr9   Cr    Cr6+3 0.270120 0.332270 0.251810 0.980078
Cr10  Cr    Cr6+3 0.229880 0.832270 0.748190 0.978320
Cr11  Cr    Cr6+3 0.770120 0.832270 0.251810 0.980078
Cr12  Cr    Cr6+3 0.888120 0.178590 0.753010 0.978352
H1    H     H_    0.640401 0.097490 0.452360 0.123364
H2    H     H_    0.198392 0.896365 0.524984 0.104326
H3    H     H_    0.467697 0.040278 0.939576 0.124826
H4    H     H_    0.964350 0.513947 0.058152 0.158973
H5    H     H_    0.055520 0.515087 0.931921 0.149015
H6    H     H_    0.464350 0.013947 0.058152 0.158972
H7    H     H_    0.555520 0.015087 0.931921 0.149015
H8    H     H_    0.624704 0.830681 0.028042 0.105742
H9    H     H_    0.398316 0.826184 0.960134 0.107912
H10   H     H_    0.124704 0.330681 0.028042 0.105741
H11   H     H_    0.898316 0.326184 0.960134 0.107912
H12   H     H_    0.968516 0.189257 0.070466 0.126531
H13   H     H_    0.302507 0.396643 0.476398 0.103948
H14   H     H_    0.053470 0.187638 0.923838 0.120548
H15   H     H_    0.468516 0.689257 0.070466 0.126531
H16   H     H_    0.553471 0.687638 0.923838 0.120548
H17   H     H_    0.943991 0.193548 0.954322 0.097493
H18   H     H_    0.083112 0.199958 0.040699 0.096123
H19   H     H_    0.443991 0.693547 0.954322 0.097493
H20   H     H_    0.583113 0.699958 0.040699 0.096123
H21   H     H_    0.651160 0.102572 0.572419 0.108561
H22   H     H_    0.349266 0.105165 0.427596 0.108942
H23   H     H_    0.151160 0.602572 0.572419 0.108561
H24   H     H_    0.698392 0.396365 0.524984 0.104326
H25   H     H_    0.849266 0.605165 0.427596 0.108942
H26   H     H_    0.715920 0.868780 0.474654 0.113608
H27   H     H_    0.284285 0.868642 0.528745 0.113052
H28   H     H_    0.215920 0.368780 0.474654 0.113608
H29   H     H_    0.784285 0.368642 0.528745 0.113052
H30   H     H_    0.705877 0.937169 0.592824 0.115348
H31   H     H_    0.296037 0.936746 0.409502 0.119371
H32   H     H_    0.205877 0.437169 0.592824 0.115348
H33   H     H_    0.796037 0.436746 0.409502 0.119371
H34   H     H_    0.857383 0.042191 0.432493 0.140474
H35   H     H_    0.795921 0.915073 0.593253 0.123129
H36   H     H_    0.142344 0.039810 0.565636 0.139840
H37   H     H_    0.357383 0.542192 0.432493 0.140474
H38   H     H_    0.642344 0.539810 0.565636 0.139840
H39   H     H_    0.841750 0.220103 0.536532 0.121449
H40   H     H_    0.159076 0.219428 0.460650 0.122632
H41   H     H_    0.341750 0.720104 0.536532 0.121448
H42   H     H_    0.659076 0.719428 0.460650 0.122631
H43   H     H_    0.662426 0.793320 0.912978 0.246220
H44   H     H_    0.666715 0.815232 0.795506 0.127721
H45   H     H_    0.585237 0.881027 0.793205 0.177106
H46   H     H_    0.205971 0.913668 0.408084 0.120117
H47   H     H_    0.592726 0.723000 0.804854 0.151041
H48   H     H_    0.357958 0.799197 0.073225 0.241002
H49   H     H_    0.346628 0.808106 0.190408 0.105780
H50   H     H_    0.428159 0.870813 0.200728 0.197668
H51   H     H_    0.419656 0.714753 0.184403 0.151127
H52   H     H_    0.162426 0.293319 0.912978 0.246220
H53   H     H_    0.166715 0.315232 0.795506 0.127721
H54   H     H_    0.085237 0.381026 0.793205 0.177107
H55   H     H_    0.092726 0.223000 0.804854 0.151042
H56   H     H_    0.857958 0.299197 0.073225 0.241001
H57   H     H_    0.295921 0.415073 0.593253 0.123129
H58   H     H_    0.846628 0.308107 0.190408 0.105780
H59   H     H_    0.928159 0.370812 0.200729 0.197669
H60   H     H_    0.919655 0.214752 0.184403 0.151126
H61   H     H_    0.782783 0.256458 0.392886 0.253021
H62   H     H_    0.880378 0.273228 0.313387 0.123283
H63   H     H_    0.821964 0.159991 0.290396 0.173880
H64   H     H_    0.900750 0.125074 0.335028 0.151829
H65   H     H_    0.214123 0.256353 0.603143 0.252808
H66   H     H_    0.113948 0.265413 0.681704 0.123361
H67   H     H_    0.178122 0.161778 0.707434 0.180223
H68   H     H_    0.705971 0.413668 0.408084 0.120116
H69   H     H_    0.101217 0.114465 0.664145 0.152973
H70   H     H_    0.282782 0.756458 0.392885 0.253021
H71   H     H_    0.380376 0.773230 0.313387 0.123283
H72   H     H_    0.321964 0.659990 0.290396 0.173881
H73   H     H_    0.400751 0.625078 0.335029 0.151829
H74   H     H_    0.714123 0.756353 0.603143 0.252808
H75   H     H_    0.613949 0.765413 0.681704 0.123361
H76   H     H_    0.678122 0.661778 0.707434 0.180223
H77   H     H_    0.601216 0.614466 0.664145 0.152973
H78   H     H_    0.042080 0.154655 0.441220 0.126433
H79   H     H_    0.957806 0.155170 0.560717 0.127268
H80   H     H_    0.542080 0.654655 0.441220 0.126433
H81   H     H_    0.359396 0.099230 0.547873 0.124630
H82   H     H_    0.457806 0.655170 0.560717 0.127268
H83   H     H_    0.954873 0.172647 0.439066 0.137307
H84   H     H_    0.044936 0.173034 0.562562 0.142691
H85   H     H_    0.454873 0.672647 0.439066 0.137306
H86   H     H_    0.544936 0.673034 0.562562 0.142691
H87   H     H_    0.615308 0.887667 0.454324 0.111978
H88   H     H_    0.384778 0.888386 0.545499 0.112031
H89   H     H_    0.115308 0.387667 0.454324 0.111978
H90   H     H_    0.884778 0.388385 0.545498 0.112031
H91   H     H_    0.599755 0.858909 0.577402 0.160260
H92   H     H_    0.140401 0.597490 0.452360 0.123364
H93   H     H_    0.400299 0.855885 0.422888 0.162791
H94   H     H_    0.099755 0.358909 0.577402 0.160260
H95   H     H_    0.900299 0.355885 0.422888 0.162791
H96   H     H_    0.943501 0.489589 0.421183 0.115363
H97   H     H_    0.055443 0.491225 0.576529 0.113909
H98   H     H_    0.443501 0.989590 0.421183 0.115363
H99   H     H_    0.555443 0.991225 0.576529 0.113909
H100  H     H_    0.944289 0.501943 0.539443 0.132326
H101  H     H_    0.055338 0.501199 0.458445 0.134077
H102  H     H_    0.444289 0.001943 0.539443 0.132326
H103  H     H_    0.859396 0.599230 0.547873 0.124631
H104  H     H_    0.555338 0.001200 0.458445 0.134077
H105  H     H_    0.837773 0.968988 0.055654 0.140834
H106  H     H_    0.164544 0.936169 0.938553 0.130196
H107  H     H_    0.337773 0.468988 0.055653 0.140834
H108  H     H_    0.664544 0.436169 0.938554 0.130196
H109  H     H_    0.690445 0.216967 0.439402 0.105085
H110  H     H_    0.308229 0.217855 0.559557 0.104971
H111  H     H_    0.190444 0.716967 0.439402 0.105085
H112  H     H_    0.808229 0.717854 0.559557 0.104971
H113  H     H_    0.855102 0.110233 0.088330 0.120690
H114  H     H_    0.866842 0.074255 0.544828 0.100977
H115  H     H_    0.155689 0.088334 0.933387 0.132796
H116  H     H_    0.355102 0.610233 0.088330 0.120690
H117  H     H_    0.655689 0.588334 0.933387 0.132796
H118  H     H_    0.838437 0.191143 0.978733 0.117517
H119  H     H_    0.132342 0.047080 0.051184 0.131907
H120  H     H_    0.338436 0.691144 0.978733 0.117517
H121  H     H_    0.632342 0.547080 0.051184 0.131907
H122  H     H_    0.865972 0.048234 0.950099 0.142943
H123  H     H_    0.187022 0.930784 0.057742 0.121665
H124  H     H_    0.365973 0.548236 0.950099 0.142943
H125  H     H_    0.133411 0.073251 0.453394 0.103146
H126  H     H_    0.687022 0.430784 0.057742 0.121665
H127  H     H_    0.719907 0.899800 0.056274 0.114207
H128  H     H_    0.303314 0.884050 0.984624 0.088687
H129  H     H_    0.219907 0.399800 0.056274 0.114207
H130  H     H_    0.803314 0.384051 0.984625 0.088687
H131  H     H_    0.755108 0.918159 0.933673 0.122508
H132  H     H_    0.298255 0.948347 0.101699 0.126471
H133  H     H_    0.255109 0.418159 0.933673 0.122508
H134  H     H_    0.798255 0.448348 0.101699 0.126471
H135  H     H_    0.665591 0.205682 0.079342 0.126915
H136  H     H_    0.366842 0.574255 0.544828 0.100977
H137  H     H_    0.336176 0.182262 0.934803 0.128398
H138  H     H_    0.165590 0.705681 0.079342 0.126915
H139  H     H_    0.836176 0.682262 0.934802 0.128398
H140  H     H_    0.749271 0.263731 0.077199 0.095559
H141  H     H_    0.257551 0.220826 0.898279 0.109865
H142  H     H_    0.249271 0.763731 0.077199 0.095559
H143  H     H_    0.757551 0.720826 0.898279 0.109865
H144  H     H_    0.725308 0.286908 0.951871 0.125338
H145  H     H_    0.210761 0.243789 0.009531 0.105918
H146  H     H_    0.225307 0.786908 0.951871 0.125338
H147  H     H_    0.633410 0.573251 0.453394 0.103146
H148  H     H_    0.710761 0.743789 0.009531 0.105918
H149  H     H_    0.658257 0.189375 0.956345 0.114650
H150  H     H_    0.296963 0.261756 0.040388 0.126427
H151  H     H_    0.158257 0.689374 0.956345 0.114650
H152  H     H_    0.796963 0.761756 0.040388 0.126427
H153  H     H_    0.653640 0.002139 0.041882 0.125311
H154  H     H_    0.364538 0.996076 0.966389 0.123776
H155  H     H_    0.153640 0.502138 0.041882 0.125311
H156  H     H_    0.864538 0.496077 0.966389 0.123776
H157  H     H_    0.688550 0.235717 0.561890 0.136995
H158  H     H_    0.802507 0.896643 0.476398 0.103948
H159  H     H_    0.309749 0.237288 0.437194 0.140129
H160  H     H_    0.188550 0.735716 0.561890 0.136995
H161  H     H_    0.809749 0.737288 0.437194 0.140129
H162  H     H_    0.675287 0.994693 0.920883 0.159071
H163  H     H_    0.351370 0.070252 0.079259 0.135706
H164  H     H_    0.175288 0.494692 0.920883 0.159071
H165  H     H_    0.851370 0.570253 0.079259 0.135706
H166  H     H_    0.051225 0.542292 0.052284 0.112437
H167  H     H_    0.967698 0.540278 0.939576 0.124826
H168  H     H_    0.551225 0.042292 0.052284 0.112437
N1    N     N_2   0.617562 0.823945 0.894427 -0.556975
N2    N     N_2   0.402355 0.826020 0.095255 -0.542995
N3    N     N_2   0.117562 0.323944 0.894427 -0.556976
N4    N     N_2   0.902355 0.326020 0.095255 -0.542994
N5    N     N_2   0.824831 0.206202 0.399445 -0.563383
N6    N     N_2   0.172971 0.203997 0.597682 -0.565609
N7    N     N_2   0.324831 0.706203 0.399445 -0.563383
N8    N     N_2   0.672971 0.703997 0.597682 -0.565609
O1    O     O_R   0.957210 0.449410 0.665480 -0.537106
O2    O     O_R   0.167480 0.095300 0.164000 -0.535641
O3    O     O_R   0.332520 0.595300 0.836000 -0.527790
O4    O     O_R   0.667480 0.595300 0.164000 -0.535641
O5    O     O_R   0.946380 0.253940 0.826940 -0.522702
O6    O     O_R   0.053620 0.253940 0.173060 -0.524261
O7    O     O_R   0.446380 0.753940 0.826940 -0.522702
O8    O     O_R   0.553620 0.753940 0.173060 -0.524261
O9    O     O_3   0.834560 0.334570 0.748840 -0.289288
O10   O     O_3   0.165440 0.334570 0.251160 -0.284083
O11   O     O_3   0.334560 0.834570 0.748840 -0.289288
O12   O     O_R   0.042790 0.449410 0.334520 -0.536892
O13   O     O_3   0.665440 0.834570 0.251160 -0.284083
O14   O     O_R   0.820730 0.541240 0.668250 -0.514371
O15   O     O_R   0.179270 0.541240 0.331750 -0.518263
O16   O     O_R   0.320730 0.041240 0.668250 -0.514371
O17   O     O_R   0.679270 0.041240 0.331750 -0.518263
O18   O     O_R   0.714240 0.455060 0.663710 -0.540714
O19   O     O_R   0.285760 0.455060 0.336290 -0.542980
O20   O     O_R   0.214240 0.955060 0.663710 -0.540714
O21   O     O_R   0.785760 0.955060 0.336290 -0.542980
O22   O     O_R   0.736780 0.204870 0.675910 -0.517615
O23   O     O_R   0.457210 0.949410 0.665480 -0.537106
O24   O     O_R   0.263220 0.204870 0.324090 -0.517644
O25   O     O_R   0.236780 0.704870 0.675910 -0.517615
O26   O     O_R   0.763220 0.704870 0.324090 -0.517644
O27   O     O_R   0.833070 0.087590 0.673490 -0.530535
O28   O     O_R   0.166930 0.087590 0.326510 -0.531069
O29   O     O_R   0.333070 0.587590 0.673490 -0.530535
O30   O     O_R   0.666930 0.587590 0.326510 -0.531069
O31   O     O_R   0.946890 0.246800 0.676300 -0.518621
O32   O     O_R   0.053110 0.246800 0.323700 -0.517176
O33   O     O_R   0.446890 0.746800 0.676300 -0.518621
O34   O     O_R   0.542790 0.949410 0.334520 -0.536892
O35   O     O_R   0.553110 0.746800 0.323700 -0.517176
O36   O     O_R   0.956650 0.457120 0.827980 -0.540099
O37   O     O_R   0.043350 0.457120 0.172020 -0.533607
O38   O     O_R   0.456650 0.957120 0.827980 -0.540099
O39   O     O_R   0.543350 0.957120 0.172020 -0.533607
O40   O     O_R   0.820220 0.548390 0.818890 -0.508227
O41   O     O_R   0.179780 0.548390 0.181110 -0.515529
O42   O     O_R   0.320220 0.048390 0.818890 -0.508227
O43   O     O_R   0.679780 0.048390 0.181110 -0.515529
O44   O     O_R   0.713680 0.462770 0.826210 -0.537431
O45   O     O_R   0.736260 0.212010 0.826560 -0.517632
O46   O     O_R   0.286320 0.462770 0.173790 -0.537100
O47   O     O_R   0.213680 0.962770 0.826210 -0.537431
O48   O     O_R   0.786320 0.962770 0.173790 -0.537100
O49   O     O_R   0.263740 0.212010 0.173440 -0.509471
O50   O     O_R   0.236260 0.712010 0.826560 -0.517632
O51   O     O_R   0.763740 0.712010 0.173440 -0.509471
O52   O     O_R   0.832520 0.095300 0.836000 -0.527790

loop_
_geom_bond_atom_site_label_1
_geom_bond_atom_site_label_2
_ccdc_geom_bond_type
C15   H92   S    
C72   O30   A    
C120  O23   A    
C16   H112  S    
C76   H120  S    
C77   H121  S    
Cr1   O36   S    
C33   N8    S    
C89   C127  S    
C26   H45   S    
C40   H57   S    
C109  H18   S    
C25   H24   S    
C82   C87   S    
C28   H55   S    
C105  C123  S    
C10   O38   A    
C37   C42   S    
C39   H31   S    
C113  C122  S    
C29   H59   S    
C65   H113  S    
C2    C22   S    
C68   C90   S    
C56   H95   S    
C51   C57   S    
C91   C100  S    
C10   C125  S    
C98   H164  S    
C36   C71   S    
C83   C88   S    
Cr7   O13   S    
C18   H159  S    
Cr8   O9    S    
Cr7   O39   S    
C53   H100  S    
C104  C105  S    
C65   C87   S    
Cr5   O12   S    
C30   H62   S    
C75   H123  S    
C86   C90   S    
C85   N6    S    
C63   C118  S    
C127  O46   A    
C128  O42   A    
C81   C99   S    
C52   O20   A    
C12   H109  S    
C21   H158  S    
C25   C42   S    
C111  H20   S    
H74   N8    S    
C110  C123  S    
C31   H69   S    
C16   C20   S    
C70   O28   A    
C100  H144  S    
C90   C126  S    
C27   N2    S    
C101  H145  S    
C97   H132  S    
C24   C107  S    
C10   O7    A    
C34   C69   S    
C112  C125  S    
C110  H17   S    
C2    C52   S    
C105  H167  S    
C81   C90   S    
C106  H168  S    
C23   H13   S    
Cr6   O11   S    
C50   H86   S    
C17   C34   S    
C30   N5    S    
Cr9   O10   S    
C66   H106  S    
C68   C77   S    
Cr4   O8    S    
C47   H83   S    
C9    O6    A    
C50   H82   S    
C49   C62   S    
C111  C124  S    
C79   C97   S    
C82   H140  S    
C83   H137  S    
C126  O44   A    
C8    C123  S    
C57   C61   S    
C44   H125  S    
C33   H77   S    
C45   H136  S    
C9    O37   A    
C64   C120  S    
Cr3   O33   S    
C111  H8    S    
Cr8   O44   S    
Cr4   O13   S    
C81   H130  S    
C28   N3    S    
Cr5   O37   S    
C99   H165  S    
C2    C14   S    
C54   H87   S    
C116  H16   S    
Cr12  O52   S    
C106  C124  S    
Cr6   O23   S    
C114  H14   S    
C57   H97   S    
C102  H151  S    
Cr2   O6    S    
C48   H79   S    
C78   C87   S    
C55   H102  S    
C41   O15   A    
C84   C102  S    
C11   C124  S    
C58   H93   S    
C59   H91   S    
C38   H35   S    
C67   H116  S    
C68   H108  S    
C20   H25   S    
C74   H34   S    
Cr6   O42   S    
C66   C88   S    
C104  C122  S    
C119  O12   A    
C26   N1    S    
C77   C94   S    
C77   H126  S    
C13   C23   S    
C60   C119  S    
Cr11  O48   S    
C67   H107  S    
C21   C38   S    
C84   H138  S    
C72   O26   A    
C29   N4    S    
C18   C35   S    
C53   H90   S    
C4    C91   S    
C116  N1    S    
C76   H124  S    
C46   C107  S    
C5    O49   A    
Cr1   O14   S    
C99   H134  S    
C7    O51   A    
C92   C97   S    
C54   C59   S    
C74   C118  S    
C17   H157  S    
C13   C96   S    
C69   O22   A    
Cr9   O19   S    
C32   H71   S    
C78   H153  S    
Cr7   O43   S    
C48   H84   S    
C127  O41   A    
Cr7   O17   S    
C22   H2    S    
C79   H128  S    
C19   H23   S    
C17   H21   S    
C109  C114  S    
C63   O21   A    
C97   H163  S    
C114  C123  S    
C31   N6    S    
C75   H119  S    
Cr4   O30   S    
C116  C125  S    
C55   C58   S    
Cr11  O51   S    
C44   C85   S    
Cr11  O13   S    
C53   C56   S    
H56   N4    S    
C83   C101  S    
C71   O25   A    
C34   C43   S    
Cr5   O15   S    
Cr3   O11   S    
Cr4   O35   S    
C70   O24   A    
C78   H127  S    
C102  H146  S    
C82   H135  S    
C4    O52   A    
C20   C37   S    
C6    O50   A    
C106  C108  S    
C22   C39   S    
H48   N2    S    
C91   C95   S    
C1    C24   S    
C29   H58   S    
C56   H96   S    
C51   C60   S    
C49   H85   S    
C126  O40   A    
C58   C62   S    
Cr6   O16   S    
Cr3   O3    S    
C51   H89   S    
Cr12  O5    S    
Cr4   O4    S    
C14   H81   S    
C71   O29   A    
Cr3   O29   S    
C44   H40   S    
C13   C41   S    
C57   H94   S    
C45   H41   S    
C15   C19   S    
C30   H63   S    
C43   H39   S    
C46   H147  S    
C81   H156  S    
Cr10  O50   S    
C68   H117  S    
C23   C40   S    
C85   H36   S    
C19   H160  S    
C2    C85   S    
C80   H129  S    
C63   O17   A    
C3    O43   A    
C80   C89   S    
C101  H150  S    
Cr2   O10   S    
C39   H46   S    
C12   C17   S    
C41   O19   A    
C42   H68   S    
C111  C116  S    
C27   H50   S    
C96   H37   S    
C4    O45   A    
Cr11  O21   S    
C113  H12   S    
C51   H101  S    
Cr8   O22   S    
Cr6   O38   S    
C79   C88   S    
C5    O2    A    
C38   H30   S    
C33   H75   S    
C119  O32   A    
C47   H78   S    
C7    O4    A    
C61   C117  S    
C110  H11   S    
C73   H118  S    
C54   C62   S    
C84   H142  S    
C104  H166  S    
C56   C60   S    
C35   C39   S    
Cr2   O28   S    
C21   C118  S    
C76   C93   S    
C80   H155  S    
C78   C95   S    
C29   H60   S    
C105  H5    S    
C9    C122  S    
Cr10  O47   S    
C120  O33   A    
C92   C101  S    
C12   C118  S    
C22   H27   S    
C43   H114  S    
C94   C103  S    
Cr9   O49   S    
C40   H32   S    
C11   O39   A    
C7    C94   S    
C65   H105  S    
C115  C124  S    
C80   C98   S    
Cr1   O9    S    
C69   O27   A    
C93   C102  S    
C95   H131  S    
C14   H110  S    
C20   H161  S    
Cr11  O26   S    
C121  O35   A    
C8    O5    A    
Cr2   O32   S    
C18   H22   S    
C46   H42   S    
C103  H152  S    
C66   C75   S    
C109  H10   S    
C103  H148  S    
C21   H26   S    
C23   H28   S    
C37   C72   S    
Cr7   O34   S    
Cr12  O27   S    
C37   C46   S    
C108  H3    S    
Cr3   O7    S    
Cr1   O1    S    
C6    O3    A    
H65   N6    S    
C112  H19   S    
C50   C64   S    
C14   C18   S    
C121  O34   A    
C74   N5    S    
C128  O47   A    
C12   H1    S    
C31   H67   S    
C59   C64   S    
C100  H149  S    
C15   H111  S    
C117  O31   A    
C19   C36   S    
C79   H154  S    
C32   H72   S    
C109  C122  S    
Cr9   O24   S    
C67   C89   S    
C65   C73   S    
C11   O8    A    
C47   C60   S    
C107  N8    S    
C27   H51   S    
Cr2   O2    S    
C35   C70   S    
C52   O16   A    
C8    O36   A    
C86   H143  S    
C104  H4    S    
Cr10  O25   S    
C3    O48   A    
Cr12  O31   S    
H70   N7    S    
C108  H7    S    
C6    C93   S    
C43   C74   S    
C16   C24   S    
C53   C61   S    
C86   C103  S    
C33   H76   S    
C113  N4    S    
C49   H80   S    
C3    C87   S    
C114  N3    S    
C36   C40   S    
C115  N2    S    
C24   C25   S    
C73   C91   S    
C31   H66   S    
C32   N7    S    
C28   H54   S    
C54   H104  S    
C55   H88   S    
C59   H99   S    
C83   H141  S    
C98   H133  S    
C26   H47   S    
H61   N5    S    
C47   C48   S    
C96   N7    S    
Cr12  O9    S    
C55   C64   S    
C28   H53   S    
H43   N1    S    
C36   C45   S    
Cr10  O11   S    
C86   H139  S    
Cr8   O18   S    
C35   C44   S    
C110  C113  S    
C75   C92   S    
C32   H73   S    
C49   C50   S    
C13   C15   S    
C107  H38   S    
C108  C125  S    
Cr5   O41   S    
C84   C89   S    
C1    O14   A    
C73   H122  S    
Cr1   O40   S    
C25   H29   S    
Cr10  O20   S    
C115  H15   S    
Cr9   O46   S    
C34   C38   S    
H52   N3    S    
C82   C100  S    
C42   H33   S    
Cr5   O10   S    
C30   H64   S    
C106  H6    S    
C88   C128  S    
Cr8   O45   S    
C1    O18   A    
C48   C61   S    
C117  O1    A    
C94   C99   S    
C95   H162  S    
C112  C115  S    
C5    C92   S    
C16   H103  S    
C66   H115  S    
C112  H9    S    
C67   C76   S    
C27   H49   S    
C58   H98   S    
C45   C96   S    
C93   C98   S    
C62   C121  S    
C26   H44   S    
