data_mof_unit_65651.cif
_audit_creation_date              2012-12-10T18:24:51-0500
_audit_creation_method            fapswitch 2.2
_symmetry_space_group_name_H-M    P1
_symmetry_Int_Tables_number       1
_space_group_crystal_system       triclinic
_cell_length_a                    16.098968
_cell_length_b                    16.04377
_cell_length_c                    19.486077
_cell_angle_alpha                 95.455535
_cell_angle_beta                  90.572298
_cell_angle_gamma                 84.125611
_cell_volume                      4983.91386902

loop_
_atom_site_label
_atom_site_type_symbol
_atom_type_description
_atom_site_fract_x
_atom_site_fract_y
_atom_site_fract_z
_atom_type_partial_charge
C1    C     C_R   0.275942 0.510976 0.490926 0.519837
C2    C     C_2   0.480563 0.523368 0.983268 -0.030864
C3    C     C_2   0.528446 0.467114 0.016553 -0.001875
C4    C     C_R   0.723919 0.489239 0.508989 0.524535
C5    C     C_R   0.521670 0.477521 0.236102 -0.042702
C6    C     C_1   0.186830 0.515711 0.487144 0.079841
C7    C     C_2   0.021866 0.524041 0.480408 0.023627
C8    C     C_2   0.977931 0.477222 0.519467 0.025131
C9    C     C_1   0.887984 0.481588 0.515641 -0.005034
C10   C     C_1   0.111834 0.519468 0.484122 -0.002920
C11   C     C_1   0.813007 0.485032 0.512626 0.078554
C12   C     C_R   0.480259 0.519302 0.907829 -0.013809
C13   C     C_1   0.516635 0.184961 0.486195 0.049271
C14   C     C_2   0.525117 0.018791 0.475699 0.262313
C15   C     C_2   0.480837 0.980803 0.519474 -0.104131
C16   C     C_R   0.511645 0.274941 0.490803 0.527115
C17   C     C_1   0.482247 0.890548 0.516579 0.059527
C18   C     C_1   0.520558 0.109285 0.481662 0.021522
C19   C     C_1   0.484384 0.815041 0.513512 0.102727
C20   C     C_R   0.488272 0.725127 0.509191 0.527479
C21   C     C_R   0.512014 0.487712 0.311401 0.564670
C22   C     C_R   0.489786 0.510139 0.688491 0.595203
C23   C     C_R   0.480368 0.593561 0.876164 -0.060803
C24   C     C_R   0.483818 0.513491 0.763670 0.028615
C25   C     C_R   0.479200 0.438411 0.796018 -0.027104
C26   C     C_R   0.479726 0.442248 0.867834 -0.131989
C27   C     C_2   0.470713 0.354872 0.757950 0.262862
C28   C     C_2   0.016699 0.418573 0.568511 0.253481
C29   C     C_2   0.983081 0.582753 0.431421 0.258619
C30   C     C_R   0.484329 0.591627 0.804462 0.173752
C31   C     C_R   0.551647 0.541803 0.132669 0.196539
C32   C     C_R   0.543553 0.546215 0.203832 -0.145785
C33   C     C_R   0.510643 0.400733 0.196433 0.224444
C34   C     C_R   0.503722 0.400573 0.123890 0.215760
C35   C     C_R   0.527361 0.470488 0.092107 -0.032398
H1    H     H_    0.442334 0.018300 0.558876 0.113393
H2    H     H_    0.023091 0.617182 0.402386 0.125921
H3    H     H_    0.667519 0.992843 0.329011 0.391651
H4    H     H_    0.578629 0.259088 0.327836 0.373873
H5    H     H_    0.617566 0.719582 0.181504 0.368580
H6    H     H_    0.617601 0.649983 0.727727 0.338384
H7    H     H_    0.555941 0.603425 0.234656 0.178360
H8    H     H_    0.565604 0.414937 0.988186 0.166223
H9    H     H_    0.480405 0.652819 0.907861 0.198559
H10   H     H_    0.443442 0.575178 0.012067 0.177922
H11   H     H_    0.476835 0.385053 0.892749 0.149616
H12   H     H_    0.487732 0.298032 0.783144 0.125527
H13   H     H_    0.386104 0.306586 0.979595 0.376211
H14   H     H_    0.976718 0.383745 0.597219 0.126016
O1    O     O_3   0.500000 0.500000 0.500000 -0.484037
O2    O     O_R   0.462330 0.445560 0.340470 -0.479447
O3    O     O_R   0.440930 0.559110 0.655640 -0.466557
O4    O     O_R   0.554010 0.538050 0.348260 -0.535748
O5    O     O_R   0.542730 0.457290 0.655630 -0.515839
O6    O     O_2   0.441114 0.348170 0.700006 -0.475983
O7    O     O_2   0.529868 0.257347 0.040595 -0.233246
O8    O     O_2   0.406326 0.270622 0.115128 -0.155949
O9    O     O_3   0.399964 0.356464 0.009810 -0.544436
O10   O     O_2   0.091954 0.407967 0.577905 -0.467287
O11   O     O_2   0.907769 0.593921 0.422499 -0.449990
O12   O     O_R   0.555880 0.314540 0.535300 -0.515855
O13   O     O_2   0.655221 0.905305 0.442397 -0.239100
O14   O     O_2   0.536116 0.909372 0.362997 -0.247566
O15   O     O_3   0.633916 0.029127 0.364699 -0.483762
O16   O     O_2   0.433908 0.288242 0.260042 -0.206653
O17   O     O_2   0.554402 0.232086 0.187600 -0.164638
O18   O     O_3   0.582889 0.311393 0.305438 -0.526734
O19   O     O_2   0.645219 0.595279 0.034510 -0.209695
O20   O     O_2   0.523770 0.689204 0.077597 -0.276524
O21   O     O_3   0.654980 0.674569 0.155920 -0.446047
O22   O     O_2   0.410911 0.717642 0.737942 -0.194932
O23   O     O_R   0.439840 0.689760 0.546310 -0.509945
O24   O     O_2   0.517705 0.754024 0.822422 -0.226008
O25   O     O_3   0.566037 0.673634 0.705451 -0.505899
O26   O     O_R   0.320170 0.458170 0.449830 -0.527095
O27   O     O_R   0.684110 0.537530 0.468570 -0.496909
O28   O     O_R   0.310830 0.559620 0.535340 -0.530215
O29   O     O_R   0.684890 0.444680 0.546270 -0.547114
O30   O     O_R   0.463420 0.314900 0.449800 -0.507724
O31   O     O_R   0.540870 0.680800 0.468590 -0.515898
S1    S     S_3+6 0.460027 0.317318 0.072688 0.077505
S2    S     S_3+6 0.588809 0.961943 0.410173 0.065979
S3    S     S_3+6 0.518961 0.304636 0.236695 0.119028
S4    S     S_3+6 0.593695 0.626539 0.097386 0.054271
S5    S     S_3+6 0.493589 0.687720 0.768221 0.063301
Zn1   Zn    Zn3+2 0.569660 0.430340 0.558290 1.013223
Zn2   Zn    Zn3+2 0.437560 0.430860 0.436130 1.034653
Zn3   Zn    Zn3+2 0.568560 0.563000 0.447270 1.024647
Zn4   Zn    Zn3+2 0.424220 0.575810 0.558310 1.047977

loop_
_geom_bond_atom_site_label_1
_geom_bond_atom_site_label_2
_ccdc_geom_bond_type
C7    C10   S    
O18   S3    S    
C7    C29   S    
C1    O28   A    
C14   C18   S    
C19   C20   S    
C2    C12   S    
O30   Zn2   S    
C7    C8    D    
C22   O5    A    
C12   C23   A    
O28   Zn4   S    
H5    O21   S    
C13   C18   T    
C27   O6    D    
O16   S3    D    
C34   C35   A    
O17   S3    D    
O22   S5    D    
C8    C9    S    
C5    C33   A    
C34   S1    S    
O21   S4    S    
O27   Zn3   S    
O1    Zn3   S    
C5    C32   A    
O29   Zn1   S    
O13   S2    D    
H6    O25   S    
O3    Zn4   S    
H3    O15   S    
C2    H10   S    
C20   O31   A    
O14   S2    D    
C1    C6    S    
O19   S4    D    
C23   C30   A    
O7    S1    D    
C24   C25   A    
O9    S1    S    
O2    Zn2   S    
O5    Zn1   S    
O1    Zn1   S    
C25   C26   A    
C31   S4    S    
C12   C26   A    
C30   S5    S    
C1    O26   A    
C4    O29   A    
C33   S3    S    
C28   H14   S    
O1    Zn4   S    
C31   C32   A    
C29   O11   D    
C3    C35   S    
C3    H8    S    
C33   C34   A    
C4    C11   S    
C9    C11   T    
O15   S2    S    
O1    Zn2   S    
O26   Zn2   S    
C8    C28   S    
C22   C24   S    
C16   O12   A    
C14   S2    S    
C15   H1    S    
C21   O2    A    
C22   O3    A    
O24   S5    D    
C28   O10   D    
C27   H12   S    
C15   C17   S    
H4    O18   S    
C6    C10   T    
H13   O9    S    
C25   C27   S    
C16   O30   A    
C2    C3    D    
O31   Zn3   S    
O20   S4    D    
C21   O4    A    
O23   Zn4   S    
C17   C19   T    
O4    Zn3   S    
C31   C35   A    
O25   S5    S    
O8    S1    D    
C24   C30   A    
C4    O27   A    
O12   Zn1   S    
C26   H11   S    
C5    C21   S    
C13   C16   S    
C29   H2    S    
C32   H7    S    
C14   C15   D    
C20   O23   A    
C23   H9    S    
