data_mof_unit_49615.cif
_audit_creation_date              2012-12-10T18:12:36-0500
_audit_creation_method            fapswitch 2.2
_symmetry_space_group_name_H-M    P1
_symmetry_Int_Tables_number       1
_space_group_crystal_system       triclinic
_cell_length_a                    9.429665
_cell_length_b                    10.751366
_cell_length_c                    17.327027
_cell_angle_alpha                 89.94003
_cell_angle_beta                  85.847069
_cell_angle_gamma                 90.025563
_cell_volume                      1752.0312232

loop_
_atom_site_label
_atom_site_type_symbol
_atom_type_description
_atom_site_fract_x
_atom_site_fract_y
_atom_site_fract_z
_atom_type_partial_charge
C1    C     C_R   0.499975 0.740027 0.501296 0.813970
C2    C     C_R   0.338347 0.497546 0.776469 -0.138408
C3    C     C_R   0.415524 0.460322 0.146866 -0.187576
C4    C     C_R   0.406850 0.468229 0.226765 -0.130487
C5    C     C_R   0.661364 0.502441 0.223596 -0.198496
C6    C     C_R   0.671684 0.496438 0.142953 0.441530
C7    C     C_R   0.546452 0.475846 0.104074 0.067194
C8    C     C_2   0.450795 0.526608 0.980780 -0.238766
C9    C     C_2   0.549457 0.468638 0.019516 -0.220826
C10   C     C_R   0.529305 0.490251 0.265679 -0.126139
C11   C     C_3   0.449624 0.925424 0.423125 -0.443900
C12   C     C_R   0.481231 0.501556 0.649940 0.811369
C13   C     C_3   0.451155 0.069516 0.420818 -0.133076
C14   C     C_3   0.401986 0.929668 0.570543 0.276083
C15   C     C_3   0.652497 0.928711 0.509220 -0.456673
C16   C     C_3   0.499818 0.877832 0.501160 0.055869
C17   C     C_3   0.499465 0.121746 0.499157 0.035638
C18   C     C_3   0.400402 0.073574 0.568269 -0.444509
C19   C     C_3   0.651806 0.071357 0.509509 -0.407857
C20   C     C_3   0.921409 0.388282 0.458320 -0.236333
C21   C     C_3   0.087895 0.382798 0.462846 -0.298088
C22   C     C_3   0.921500 0.610719 0.458823 -0.282362
C23   C     C_R   0.500085 0.259866 0.499265 0.789667
C24   C     C_3   0.904463 0.498747 0.578186 -0.262549
C25   C     C_3   0.089616 0.606115 0.455291 0.380782
C26   C     C_3   0.072171 0.501994 0.578929 0.310221
C27   C     C_R   0.518769 0.497876 0.350097 0.841320
C28   C     C_R   0.470752 0.507742 0.734458 -0.092375
C29   C     C_R   0.593751 0.526195 0.773487 -0.199928
C30   C     C_R   0.585227 0.533338 0.853371 -0.122963
C31   C     C_R   0.453854 0.520537 0.896113 0.082747
C32   C     C_R   0.328031 0.503617 0.857548 0.014065
Cu1   Cu    Cu3+1 0.357600 0.500140 0.499960 1.000484
Cu2   Cu    Cu3+1 0.642400 0.499860 0.500040 0.900664
H1    H     H_    0.696953 0.536196 0.742370 0.163457
H2    H     H_    0.342695 0.887193 0.413360 0.177305
H3    H     H_    0.522150 0.889355 0.374678 0.166655
H4    H     H_    0.531730 0.098965 0.374061 0.162661
H5    H     H_    0.290367 0.109026 0.564493 0.169311
H6    H     H_    0.694422 0.894215 0.563752 0.168810
H7    H     H_    0.725939 0.895507 0.460327 0.191199
H8    H     H_    0.727533 0.105460 0.461852 0.175567
H9    H     H_    0.304137 0.455783 0.257999 0.186478
H10   H     H_    0.690365 0.105408 0.564956 0.178869
H11   H     H_    0.448091 0.900467 0.625089 0.131297
H12   H     H_    0.437223 0.110354 0.623459 0.144330
H13   H     H_    0.895307 0.387434 0.396733 0.160461
H14   H     H_    0.875659 0.301963 0.484981 0.161641
H15   H     H_    0.114190 0.299401 0.497041 0.135282
H16   H     H_    0.141160 0.368277 0.404335 0.211343
H17   H     H_    0.882606 0.619418 0.400000 0.171437
H18   H     H_    0.856103 0.578510 0.611295 0.164373
H19   H     H_    0.756996 0.518930 0.253190 0.167056
H20   H     H_    0.863689 0.413587 0.608953 0.143590
H21   H     H_    0.104469 0.418606 0.611518 0.126510
H22   H     H_    0.885194 0.696404 0.490251 0.124238
H23   H     H_    0.125079 0.693463 0.481770 0.147905
H24   H     H_    0.633937 0.415946 0.988679 0.166757
H25   H     H_    0.319357 0.441066 0.118358 0.159260
H26   H     H_    0.243316 0.483114 0.746050 0.209080
H27   H     H_    0.366518 0.579224 0.011809 0.156938
H28   H     H_    0.681984 0.549962 0.881889 0.160047
N1    N     N_3   0.856560 0.499750 0.498270 -0.141458
N2    N     N_3   0.143860 0.496700 0.498910 -0.159075
O1    O     O_R   0.379740 0.682430 0.499960 -0.522853
O2    O     O_R   0.620260 0.682190 0.500020 -0.610263
O3    O     O_R   0.365800 0.500150 0.613560 -0.539573
O4    O     O_R   0.606310 0.499910 0.613620 -0.605125
O5    O     O_R   0.379740 0.317810 0.499980 -0.599862
O6    O     O_R   0.620260 0.317570 0.500040 -0.599619
O7    O     O_R   0.393690 0.500090 0.386380 -0.526991
O8    O     O_R   0.634200 0.499850 0.386440 -0.606236
O9    O     O_3   0.804631 0.514107 0.105507 -0.737459
H29   H     H_    0.796219 0.525751 0.049454 0.328652
C33   C     C_2   0.308532 0.117931 0.399806 0.364372
H30   H     H_    0.213017 0.097730 0.436342 0.049491
O10   O     O_2   0.299322 0.179000 0.340938 -0.564724
O11   O     O_3   0.262893 0.881153 0.573329 -0.719996
H31   H     H_    0.215160 0.914201 0.528503 0.310233
O12   O     O_3   0.148751 0.609680 0.378348 -0.722128
H32   H     H_    0.095448 0.551450 0.346834 0.309101
O13   O     O_3   0.118080 0.606073 0.619991 -0.686216
H33   H     H_    0.061842 0.680001 0.606861 0.317925
C34   C     C_2   0.186874 0.487724 0.900631 0.349604
H34   H     H_    0.177599 0.480322 0.963168 0.080457
O14   O     O_2   0.078155 0.481877 0.866518 -0.550403

loop_
_geom_bond_atom_site_label_1
_geom_bond_atom_site_label_2
_ccdc_geom_bond_type
C10   C27   S    
C24   H18   S    
C25   O12   S    
O9    H29   S    
C14   C18   S    
C18   H5    S    
C26   H21   S    
Cu2   O2    S    
C21   H15   S    
Cu1   O1    S    
C15   C19   S    
C12   O4    A    
C17   C23   S    
C12   C28   S    
C5    H19   S    
C28   C29   A    
C24   C26   S    
C3    C7    A    
C5    C6    A    
C2    H26   S    
C24   H20   S    
C15   C16   S    
C2    C32   A    
C9    H24   S    
C11   H3    S    
C26   N2    S    
C21   N2    S    
C22   N1    S    
C13   C33   S    
C8    C9    D    
C22   C25   S    
C1    O1    A    
Cu2   O6    S    
C19   H8    S    
Cu1   O5    S    
C8    H27   S    
C26   O13   S    
C23   O6    A    
C25   H23   S    
C18   H12   S    
C21   H16   S    
C17   C18   S    
C14   H11   S    
C32   C34   S    
C12   O3    A    
C34   H34   S    
C15   H7    S    
Cu2   O4    S    
O11   H31   S    
C22   H22   S    
C23   O5    A    
C25   N2    S    
C33   H30   S    
C29   C30   A    
C11   C16   S    
C31   C32   A    
C1    O2    A    
C1    C16   S    
C33   O10   D    
C13   H4    S    
C20   H14   S    
C24   N1    S    
C30   H28   S    
C14   C16   S    
C4    C10   A    
C3    C4    A    
Cu2   O8    S    
C27   O7    A    
C19   H10   S    
Cu1   O3    S    
C6    O9    S    
C7    C9    S    
C11   H2    S    
C8    C31   S    
C34   O14   D    
O12   H32   S    
C6    C7    A    
C4    H9    S    
C29   H1    S    
C13   C17   S    
C20   N1    S    
C5    C10   A    
C11   C13   S    
C30   C31   A    
Cu1   N2    S    
Cu2   N1    S    
C17   C19   S    
Cu1   Cu2   S    
C14   O11   S    
C15   H6    S    
C20   H13   S    
Cu1   O7    S    
C20   C21   S    
O13   H33   S    
C2    C28   A    
C27   O8    A    
C22   H17   S    
C3    H25   S    
