data_mof_unit_44470.cif
_audit_creation_date              2012-12-10T19:45:47-0500
_audit_creation_method            fapswitch 2.2
_symmetry_space_group_name_H-M    P1
_symmetry_Int_Tables_number       1
_space_group_crystal_system       triclinic
_cell_length_a                    10.791566
_cell_length_b                    14.671939
_cell_length_c                    14.805745
_cell_angle_alpha                 64.529021
_cell_angle_beta                  103.787498
_cell_angle_gamma                 102.291528
_cell_volume                      2039.05026741

loop_
_atom_site_label
_atom_site_type_symbol
_atom_type_description
_atom_site_fract_x
_atom_site_fract_y
_atom_site_fract_z
_atom_type_partial_charge
C1    C     C_R   0.475805 0.120128 0.312441 0.792411
C2    C     C_R   0.628046 0.781889 0.970588 -0.219623
C3    C     C_R   0.366069 0.155788 0.133860 -0.214231
C4    C     C_R   0.614266 0.847227 0.868410 -0.202808
C5    C     C_R   0.485494 0.293506 0.179558 -0.229836
C6    C     C_R   0.464248 0.717583 0.826704 -0.275299
C7    C     C_R   0.438656 0.366345 0.084768 0.086196
C8    C     C_R   0.484742 0.647034 0.928065 0.088877
C9    C     C_R   0.357488 0.331002 0.012743 0.171354
C10   C     C_R   0.567095 0.681392 0.000535 0.164331
C11   C     C_R   0.472454 0.472821 0.059078 0.065716
C12   C     C_R   0.521634 0.880376 0.687640 0.793748
C13   C     C_R   0.433107 0.542353 0.958136 0.069790
C14   C     C_R   0.347731 0.504088 0.890005 -0.240100
C15   C     C_R   0.544621 0.512121 0.130756 -0.228322
C16   C     C_R   0.263227 0.998121 0.503909 0.786688
C17   C     C_R   0.736754 0.000561 0.497831 0.789357
C18   C     C_R   0.310900 0.400436 0.917086 -0.234442
C19   C     C_R   0.590465 0.614622 0.101748 -0.230155
C20   C     C_R   0.739248 0.293858 0.648279 -0.324301
C21   C     C_R   0.315923 0.735701 0.308861 -0.328598
C22   C     C_R   0.691083 0.206074 0.630762 -0.018730
C23   C     C_R   0.870090 0.999682 0.497191 -0.070351
C24   C     C_R   0.333503 0.807123 0.350858 -0.015443
C25   C     C_R   0.521139 0.288818 0.505246 0.614416
C26   C     C_R   0.482464 0.712699 0.489696 0.637928
C27   C     C_R   0.571588 0.383445 0.514808 -0.124325
C28   C     C_R   0.477141 0.642092 0.445213 -0.119438
C29   C     C_R   0.679922 0.382390 0.591155 0.114691
C30   C     C_R   0.387196 0.653071 0.355594 0.107101
C31   C     C_R   0.516662 0.477242 0.455556 0.069902
C32   C     C_R   0.552935 0.559010 0.488290 0.066462
C33   C     C_R   0.666481 0.556550 0.559633 -0.198725
C34   C     C_R   0.129293 0.996235 0.506598 -0.081453
C35   C     C_R   0.431715 0.494661 0.362740 -0.210065
C36   C     C_R   0.729083 0.470042 0.609511 -0.201235
C37   C     C_R   0.369642 0.581673 0.313138 -0.199616
C38   C     C_R   0.321125 0.938354 0.830877 -0.129291
C39   C     C_R   0.643517 0.989664 0.201830 -0.116853
C40   C     C_R   0.251153 0.940247 0.737567 -0.107915
C41   C     C_R   0.736264 0.017728 0.272351 -0.116825
C42   C     C_R   0.177989 0.020089 0.673662 0.118697
C43   C     C_R   0.813140 0.946264 0.349059 0.118792
C44   C     C_R   0.174849 0.096804 0.706004 -0.198516
C45   C     C_R   0.907283 0.973658 0.427217 -0.004043
C46   C     C_R   0.796773 0.846869 0.353552 -0.135488
C47   C     C_R   0.247871 0.096053 0.797935 -0.137511
C48   C     C_R   0.703651 0.819071 0.283079 -0.145158
C49   C     C_R   0.320870 0.016742 0.860450 -0.112979
C50   C     C_R   0.626958 0.890358 0.207374 -0.117326
C51   C     C_R   0.961152 0.020447 0.572612 -0.226693
C52   C     C_R   0.037340 0.973568 0.432006 -0.229760
C53   C     C_3   0.478517 0.618969 0.656762 -0.337972
C54   C     C_3   0.304737 0.268475 0.494335 -0.312177
C55   C     C_R   0.090856 0.015819 0.580780 -0.007799
C56   C     C_R   0.445699 0.189573 0.205863 -0.054803
C57   C     C_R   0.533963 0.814313 0.795906 -0.042294
C58   C     C_R   0.323144 0.226216 0.037384 -0.202561
Cu1   Cu    Cu3+1 0.466270 0.918260 0.475690 0.977448
Cu2   Cu    Cu3+1 0.533730 0.081740 0.524310 0.973360
H1    H     H_    0.375609 0.015163 0.932517 0.117496
H2    H     H_    0.739927 0.138995 0.672307 0.141954
H3    H     H_    0.823641 0.292903 0.705490 0.146866
H4    H     H_    0.248797 0.746246 0.238879 0.149504
H5    H     H_    0.711123 0.622256 0.575747 0.197636
H6    H     H_    0.414714 0.443396 0.325163 0.199772
H7    H     H_    0.373575 0.875083 0.881403 0.146584
H8    H     H_    0.584016 0.044765 0.143195 0.125886
H9    H     H_    0.250213 0.877608 0.717004 0.096012
H10   H     H_    0.747312 0.094594 0.267928 0.099418
H11   H     H_    0.116662 0.157834 0.659425 0.120072
H12   H     H_    0.554630 0.868597 0.153120 0.123407
H13   H     H_    0.854431 0.790560 0.412691 0.125535
H14   H     H_    0.246304 0.156196 0.821356 0.119126
H15   H     H_    0.690340 0.742076 0.287575 0.132354
H16   H     H_    0.929485 0.034213 0.629429 0.145900
H17   H     H_    0.067111 0.956866 0.376287 0.148770
H18   H     H_    0.246687 0.374402 0.862056 0.134670
H19   H     H_    0.648832 0.641024 0.158481 0.141628
H20   H     H_    0.396666 0.699272 0.769134 0.136655
H21   H     H_    0.553171 0.315379 0.235238 0.150058
H22   H     H_    0.666744 0.923091 0.846058 0.151919
H23   H     H_    0.260814 0.198878 0.982664 0.124803
H24   H     H_    0.334047 0.075519 0.152956 0.145423
H25   H     H_    0.468841 0.544548 0.651328 0.157577
H26   H     H_    0.380875 0.638496 0.647664 0.150232
H27   H     H_    0.530552 0.608602 0.734021 0.206900
H28   H     H_    0.321747 0.214796 0.575105 0.176913
H29   H     H_    0.290922 0.343073 0.490111 0.152774
H30   H     H_    0.213972 0.238440 0.456752 0.195949
H31   H     H_    0.690559 0.808586 0.025736 0.137545
H32   H     H_    0.306505 0.552142 0.814843 0.133956
H33   H     H_    0.567960 0.465752 0.210407 0.144818
H34   H     H_    0.815079 0.470982 0.664885 0.141335
H35   H     H_    0.304470 0.591628 0.242354 0.149386
H36   H     H_    0.283480 0.873678 0.311377 0.143076
N1    N     N_R   0.584450 0.204570 0.560790 -0.207770
N2    N     N_R   0.415550 0.795430 0.439210 -0.209082
O1    O     O_R   0.455540 0.022090 0.338120 -0.595379
O2    O     O_3   0.405607 0.277981 0.443933 -0.577565
O3    O     O_R   0.544460 0.977910 0.661880 -0.594857
O4    O     O_R   0.512510 0.160150 0.379180 -0.546679
O5    O     O_R   0.487490 0.839850 0.620820 -0.531745
O6    O     O_R   0.291160 0.930970 0.479480 -0.599585
O7    O     O_R   0.708840 0.069030 0.520520 -0.600532
O8    O     O_R   0.348130 0.069020 0.520540 -0.536046
O9    O     O_R   0.651870 0.930980 0.479460 -0.542379
O10   O     O_3   0.550119 0.697224 0.585547 -0.574499

loop_
_geom_bond_atom_site_label_1
_geom_bond_atom_site_label_2
_ccdc_geom_bond_type
C38   C40   A    
C8    C13   A    
C23   C45   A    
C27   C29   A    
Cu1   O1    S    
C39   H8    S    
C14   C18   A    
C5    C56   A    
C48   H15   S    
C1    O1    A    
C33   H5    S    
C39   C41   A    
C38   C49   A    
C7    C11   A    
C29   C36   A    
C17   C23   S    
C24   N2    A    
Cu1   O6    S    
C35   C37   A    
C1    C56   S    
C54   H30   S    
C17   O9    A    
C33   C36   A    
C37   H35   S    
C44   H11   S    
C9    C58   A    
C50   H12   S    
C21   H4    S    
C16   C34   S    
C15   C19   A    
C6    H20   S    
C16   O6    A    
C4    C57   A    
C53   H26   S    
C44   C47   A    
C16   O8    A    
C40   C42   A    
Cu1   Cu2   S    
C22   N1    A    
C13   C14   A    
C41   C43   A    
C6    C57   A    
C54   O2    S    
C42   C44   A    
Cu2   O4    S    
C20   C29   A    
C46   C48   A    
C49   H1    S    
C40   H9    S    
C27   C31   A    
C28   C32   A    
C51   H16   S    
C12   O5    A    
C47   C49   A    
Cu2   N1    S    
C26   O10   S    
C5    C7    A    
C6    C8    A    
C35   H6    S    
Cu1   O9    S    
C30   C37   A    
C2    C4    A    
C17   O7    A    
C42   C55   S    
C22   H2    S    
C5    H21   S    
C3    C56   A    
C25   O2    S    
C23   C51   A    
C31   C32   A    
C10   C19   A    
C18   H18   S    
C24   H36   S    
C53   H27   S    
C19   H19   S    
C43   C45   S    
C14   H32   S    
C26   N2    A    
C12   C57   S    
C25   N1    A    
C20   C22   A    
C11   C15   A    
C31   C35   A    
Cu2   O3    S    
C2    C10   A    
Cu2   O8    S    
C7    C9    A    
C26   C28   A    
C47   H14   S    
C15   H33   S    
C25   C27   A    
C21   C30   A    
C34   C52   A    
C45   C52   A    
Cu1   O5    S    
C32   C33   A    
C20   H3    S    
C28   C30   A    
C12   O3    A    
C58   H23   S    
C54   H28   S    
C11   C13   A    
C53   O10   S    
C48   C50   A    
C54   H29   S    
C51   C55   A    
C2    H31   S    
C43   C46   A    
C3    C58   A    
C36   H34   S    
C9    C18   A    
C34   C55   A    
C39   C50   A    
C4    H22   S    
C38   H7    S    
C8    C10   A    
C21   C24   A    
C3    H24   S    
Cu1   N2    S    
C53   H25   S    
C1    O4    A    
C46   H13   S    
Cu2   O7    S    
C52   H17   S    
C41   H10   S    
