data_mof_unit_44316.cif
_audit_creation_date              2012-12-11T16:28:09-0500
_audit_creation_method            fapswitch 2.2
_symmetry_space_group_name_H-M    P1
_symmetry_Int_Tables_number       1
_space_group_crystal_system       triclinic
_cell_length_a                    30.478873
_cell_length_b                    22.585726
_cell_length_c                    18.063572
_cell_angle_alpha                 89.997452
_cell_angle_beta                  123.384882
_cell_angle_gamma                 89.994224
_cell_volume                      10382.9190176

loop_
_atom_site_label
_atom_site_type_symbol
_atom_type_description
_atom_site_fract_x
_atom_site_fract_y
_atom_site_fract_z
_atom_type_partial_charge
C1    C     C_R   0.533481 0.609667 0.705556 0.600934
C2    C     C_R   0.662507 0.305333 0.446580 -0.341431
C3    C     C_R   0.740555 0.778481 0.824666 0.439226
C4    C     C_R   0.300550 0.884188 0.067587 0.466143
C5    C     C_R   0.759471 0.278566 0.175460 0.439260
C6    C     C_R   0.699469 0.884035 0.932670 0.465193
C7    C     C_R   0.240105 0.278751 0.825076 0.444520
C8    C     C_R   0.854402 0.370868 0.113509 0.602390
C9    C     C_R   0.206047 0.793498 0.133097 0.540172
C10   C     C_R   0.144431 0.371733 0.883440 0.566510
C11   C     C_R   0.793919 0.793291 0.867050 0.540633
C12   C     C_R   0.354426 0.870952 0.113769 0.603394
C13   C     C_R   0.680273 0.635264 0.416253 -0.346864
C14   C     C_R   0.706098 0.293361 0.133051 0.540927
C15   C     C_R   0.645596 0.870814 0.886553 0.603113
C16   C     C_R   0.293221 0.294255 0.866488 0.543489
C17   C     C_R   0.596874 0.572837 0.425261 0.615271
C18   C     C_R   0.422439 0.390618 0.572324 0.478232
C19   C     C_R   0.403118 0.572816 0.574733 0.614397
C20   C     C_R   0.577504 0.390610 0.427623 0.478023
C21   C     C_R   0.096875 0.072837 0.425264 0.615468
C22   C     C_R   0.922504 0.890604 0.572375 0.477743
C23   C     C_R   0.903132 0.072863 0.574746 0.614096
C24   C     C_R   0.337623 0.305241 0.553691 -0.342731
C25   C     C_R   0.077523 0.890591 0.427679 0.478225
C26   C     C_R   0.394622 0.609809 0.298486 -0.201536
C27   C     C_R   0.617972 0.418266 0.743669 -0.126677
C28   C     C_R   0.605374 0.609796 0.701549 -0.200380
C29   C     C_R   0.382034 0.418284 0.256361 -0.133949
C30   C     C_R   0.894626 0.109808 0.298464 -0.200320
C31   C     C_R   0.117977 0.918347 0.743739 -0.125520
C32   C     C_R   0.105420 0.109750 0.701749 -0.199263
C33   C     C_R   0.882030 0.918269 0.256341 -0.126709
C34   C     C_R   0.577531 0.643871 0.726097 -0.163090
C35   C     C_R   0.819700 0.135212 0.583768 -0.347099
C36   C     C_R   0.401614 0.404680 0.204852 -0.226942
C37   C     C_R   0.422464 0.643911 0.273979 -0.159044
C38   C     C_R   0.598387 0.404685 0.795155 -0.231674
C39   C     C_R   0.077565 0.143734 0.726344 -0.163970
C40   C     C_R   0.901614 0.904692 0.204852 -0.231709
C41   C     C_R   0.922469 0.143889 0.273927 -0.163137
C42   C     C_R   0.098389 0.904853 0.795256 -0.231663
C43   C     C_R   0.646816 0.585999 0.496964 -0.326252
C44   C     C_R   0.382353 0.361382 0.498265 -0.326853
C45   C     C_R   0.353168 0.585964 0.503024 -0.324155
C46   C     C_R   0.162411 0.805268 0.446449 -0.340402
C47   C     C_R   0.617510 0.361283 0.501669 -0.331268
C48   C     C_R   0.146813 0.086014 0.496965 -0.325897
C49   C     C_R   0.882474 0.861306 0.498334 -0.330944
C50   C     C_R   0.853187 0.086034 0.503036 -0.326261
C51   C     C_R   0.117570 0.861311 0.501742 -0.330902
C52   C     C_R   0.216267 0.622729 0.438739 -0.202016
C53   C     C_R   0.672700 0.208521 0.551790 -0.190937
C54   C     C_R   0.783704 0.622781 0.561249 -0.202367
C55   C     C_R   0.327038 0.208687 0.447813 -0.191937
C56   C     C_R   0.716279 0.122756 0.438746 -0.203267
C57   C     C_R   0.180271 0.135219 0.416212 -0.346620
C58   C     C_R   0.172824 0.708572 0.551994 -0.186227
C59   C     C_R   0.283703 0.122740 0.561201 -0.202585
C60   C     C_R   0.827179 0.708605 0.448065 -0.189485
C61   C     C_R   0.256694 0.595406 0.437521 -0.132960
C62   C     C_R   0.649272 0.260231 0.554986 -0.129068
C63   C     C_R   0.743284 0.595448 0.562457 -0.129123
C64   C     C_R   0.350406 0.260437 0.444600 -0.133040
C65   C     C_R   0.756712 0.095453 0.437532 -0.128630
C66   C     C_R   0.149438 0.760306 0.555234 -0.127635
C67   C     C_R   0.243282 0.095434 0.562437 -0.128078
C68   C     C_R   0.837606 0.805300 0.553607 -0.341236
C69   C     C_R   0.850606 0.760311 0.444870 -0.128339
C70   C     C_R   0.308876 0.604095 0.508230 0.137650
C71   C     C_R   0.644395 0.308424 0.502511 0.177254
C72   C     C_R   0.691099 0.604158 0.491760 0.135748
C73   C     C_R   0.355476 0.308507 0.497399 0.176345
C74   C     C_R   0.808893 0.104158 0.508240 0.135820
C75   C     C_R   0.144456 0.808444 0.502599 0.175148
C76   C     C_R   0.191097 0.104148 0.491746 0.135328
C77   C     C_R   0.855594 0.808449 0.497503 0.176457
C78   C     C_3   0.514375 0.633945 0.808693 -0.207085
C79   C     C_R   0.279485 0.662633 0.585506 0.602275
C80   C     C_3   0.457266 0.484657 0.154986 -0.191189
C81   C     C_3   0.485551 0.634146 0.191307 -0.207261
C82   C     C_3   0.542794 0.484308 0.845403 -0.199586
C83   C     C_3   0.015023 0.134489 0.809465 -0.211439
C84   C     C_3   0.957171 0.984329 0.154570 -0.200924
C85   C     C_3   0.985606 0.133954 0.191296 -0.210187
C86   C     C_3   0.042844 0.984755 0.845173 -0.199675
C87   C     C_3   0.780702 0.480502 0.070105 -0.141855
C88   C     C_3   0.262983 0.697496 0.257264 -0.107168
C89   C     C_3   0.205484 0.441908 0.045205 -0.095812
C90   C     C_R   0.687931 0.254290 0.445036 0.595418
C91   C     C_3   0.736834 0.697574 0.742435 -0.099185
C92   C     C_3   0.280809 0.980612 0.070401 -0.145487
C93   C     C_3   0.763221 0.197681 0.257767 -0.098463
C94   C     C_3   0.719258 0.980441 0.929904 -0.141926
C95   C     C_3   0.236597 0.197585 0.743512 -0.102242
C96   C     C_3   0.616444 0.507457 0.348465 -0.153279
C97   C     C_3   0.469636 0.317355 0.672593 -0.158928
C98   C     C_3   0.383578 0.507396 0.651532 -0.149859
C99   C     C_3   0.530560 0.317548 0.326735 -0.158894
C100  C     C_3   0.116445 0.007406 0.348523 -0.154518
C101  C     C_R   0.720477 0.662747 0.414510 0.599663
C102  C     C_3   0.969614 0.817427 0.672914 -0.157789
C103  C     C_3   0.883569 0.007424 0.651492 -0.152270
C104  C     C_3   0.030394 0.817345 0.327344 -0.159261
C105  C     C_3   0.819040 0.246455 0.666751 -0.182357
C106  C     C_3   0.233997 0.801923 0.393766 -0.151849
C107  C     C_3   0.181071 0.246590 0.333429 -0.196583
C108  C     C_3   0.766002 0.802050 0.606247 -0.151875
C109  C     C_3   0.318976 0.746496 0.666576 -0.177552
C110  C     C_3   0.734204 0.302097 0.394143 -0.151711
C111  C     C_3   0.680967 0.746634 0.333480 -0.180602
C112  C     C_R   0.453564 0.424019 0.253617 0.677128
C113  C     C_R   0.312251 0.254164 0.555255 0.593753
C114  C     C_3   0.266092 0.301706 0.606537 -0.141729
C115  C     C_R   0.779481 0.162656 0.585524 0.600178
C116  C     C_R   0.187810 0.754212 0.444879 0.594993
C117  C     C_R   0.220475 0.162675 0.414442 0.601542
C118  C     C_R   0.812168 0.754272 0.555134 0.595341
C119  C     C_R   0.227958 0.658429 0.510720 0.003604
C120  C     C_R   0.691982 0.205558 0.497274 -0.017868
C121  C     C_R   0.772006 0.658511 0.489285 0.000282
C122  C     C_R   0.307989 0.205561 0.502660 -0.015576
C123  C     C_R   0.727959 0.158444 0.510730 0.000053
C124  C     C_R   0.466521 0.609705 0.294499 0.600207
C125  C     C_R   0.191975 0.705535 0.497289 -0.022673
C126  C     C_R   0.272006 0.158460 0.489225 -0.001754
C127  C     C_R   0.807999 0.705596 0.502727 -0.018326
C128  C     C_R   0.407995 0.705782 0.240632 0.134626
C129  C     C_R   0.627497 0.379566 0.886065 0.124118
C130  C     C_R   0.591995 0.705716 0.759533 0.135575
C131  C     C_R   0.372377 0.379870 0.113737 0.125100
C132  C     C_R   0.908011 0.205748 0.240522 0.135772
C133  C     C_R   0.127503 0.879905 0.886274 0.124722
C134  C     C_R   0.091892 0.205573 0.759520 0.138102
C135  C     C_R   0.546438 0.424032 0.746388 0.678661
C136  C     C_R   0.872504 0.879563 0.113954 0.124295
C137  C     C_R   0.426933 0.802136 0.204391 -0.092497
C138  C     C_R   0.625844 0.328016 0.002266 -0.097999
C139  C     C_R   0.573089 0.802006 0.796021 -0.093616
C140  C     C_R   0.373562 0.329281 0.996514 -0.092111
C141  C     C_R   0.926914 0.302034 0.204026 -0.094607
C142  C     C_R   0.125833 0.828446 0.002522 -0.098695
C143  C     C_R   0.072170 0.302641 0.792392 -0.097271
C144  C     C_R   0.874161 0.828002 0.997770 -0.098591
C145  C     C_R   0.444150 0.746745 0.245469 -0.207218
C146  C     C_R   0.033501 0.109571 0.705718 0.601936
C147  C     C_R   0.599653 0.354040 0.919146 -0.221702
C148  C     C_R   0.555864 0.746634 0.754905 -0.206243
C149  C     C_R   0.400003 0.354942 0.079880 -0.229508
C150  C     C_R   0.944140 0.246652 0.245132 -0.205375
C151  C     C_R   0.099652 0.854516 0.919433 -0.220864
C152  C     C_R   0.055319 0.246895 0.752398 -0.211403
C153  C     C_R   0.900350 0.854054 0.080862 -0.221929
C154  C     C_R   0.356328 0.724746 0.205425 -0.091067
C155  C     C_R   0.682686 0.378041 0.938338 -0.122201
C156  C     C_R   0.643641 0.724694 0.794653 -0.096539
C157  C     C_R   0.953559 0.924040 0.253608 0.679064
C158  C     C_R   0.317210 0.377967 0.062067 -0.097638
C159  C     C_R   0.856372 0.224750 0.205442 -0.096810
C160  C     C_R   0.182695 0.878279 0.938505 -0.120182
C161  C     C_R   0.143757 0.224262 0.796220 -0.103396
C162  C     C_R   0.817315 0.878005 0.061709 -0.122090
C163  C     C_R   0.339990 0.782427 0.173410 0.099861
C164  C     C_R   0.710206 0.351514 0.023139 0.074394
C165  C     C_R   0.659982 0.782350 0.826736 0.100611
C166  C     C_R   0.289351 0.351957 0.976973 0.092084
C167  C     C_R   0.840032 0.282413 0.173364 0.100787
C168  C     C_R   0.966516 0.109675 0.294452 0.601536
C169  C     C_R   0.210202 0.851709 0.023283 0.074888
C170  C     C_R   0.159823 0.282094 0.827534 0.095783
C171  C     C_R   0.789798 0.851459 0.976929 0.074397
C172  C     C_R   0.374091 0.819020 0.164122 -0.140055
C173  C     C_R   0.680704 0.324611 0.053247 -0.090270
C174  C     C_R   0.625912 0.818906 0.836168 -0.140235
C175  C     C_R   0.318701 0.325588 0.946140 -0.099347
C176  C     C_R   0.874094 0.318956 0.163905 -0.139143
C177  C     C_R   0.180684 0.824871 0.053401 -0.089563
C178  C     C_R   0.125219 0.319254 0.834406 -0.106486
C179  C     C_R   0.046416 0.924115 0.746392 0.678962
C180  C     C_R   0.819305 0.824563 0.946823 -0.089996
C181  C     C_R   0.288373 0.801689 0.141665 -0.210603
C182  C     C_R   0.765943 0.346434 0.075875 -0.268665
C183  C     C_R   0.711591 0.801597 0.858449 -0.211046
C184  C     C_R   0.233560 0.346442 0.924993 -0.224474
C185  C     C_R   0.788426 0.301673 0.141662 -0.210924
C186  C     C_R   0.265933 0.846523 0.075977 -0.267771
C187  C     C_R   0.211292 0.301531 0.859345 -0.222614
C188  C     C_R   0.734062 0.846365 0.924210 -0.268668
C189  C     C_R   0.645694 0.575542 0.571302 0.605362
C190  C     C_R   0.319692 0.635162 0.583754 -0.347253
C191  C     C_R   0.370622 0.394357 0.425845 0.686767
C192  C     C_R   0.354296 0.575518 0.428690 0.603652
C193  C     C_R   0.629282 0.394255 0.574117 0.692190
C194  C     C_R   0.145690 0.075561 0.571307 0.606117
C195  C     C_R   0.870699 0.894285 0.425886 0.692296
C196  C     C_R   0.854308 0.075563 0.428698 0.605571
C197  C     C_R   0.129323 0.894296 0.574158 0.692679
C198  C     C_R   0.800527 0.384098 0.067394 0.465324
C199  C     C_R   0.259383 0.778557 0.175386 0.441565
C200  C     C_R   0.199092 0.383630 0.934609 0.450121
F1    F     F_    0.688247 0.564718 0.653794 -0.723685
F2    F     F_    0.178435 0.776749 0.168321 -0.709951
F3    F     F_    0.110277 0.410474 0.883225 -0.699429
F4    F     F_    0.821533 0.776527 0.831834 -0.709140
F5    F     F_    0.386828 0.907624 0.105495 -0.666192
F6    F     F_    0.678484 0.276599 0.168267 -0.708886
F7    F     F_    0.613219 0.907470 0.894928 -0.666088
F8    F     F_    0.320551 0.277947 0.830560 -0.708700
F9    F     F_    0.329499 0.385169 0.341676 -0.711793
F10   F     F_    0.311749 0.564644 0.346216 -0.734544
F11   F     F_    0.670386 0.384976 0.658272 -0.696299
F12   F     F_    0.188243 0.064726 0.653793 -0.723669
F13   F     F_    0.829585 0.885037 0.341735 -0.696156
F14   F     F_    0.811754 0.064755 0.346206 -0.723535
F15   F     F_    0.170411 0.885043 0.658336 -0.695479
F16   F     F_    0.886771 0.407514 0.105109 -0.667618
H1    H     H_    0.703586 0.394215 0.910108 0.180551
H2    H     H_    0.485371 0.735988 0.279261 0.164099
H3    H     H_    0.748452 0.969521 0.913218 0.109699
H4    H     H_    0.732260 0.022092 0.968863 0.165344
H5    H     H_    0.252631 0.172401 0.806417 0.118387
H6    H     H_    0.267211 0.204403 0.729181 0.235122
H7    H     H_    0.206014 0.170097 0.688770 0.178771
H8    H     H_    0.634122 0.481241 0.410786 0.102127
H9    H     H_    0.648210 0.524435 0.341702 0.134057
H10   H     H_    0.592258 0.476692 0.292422 0.206100
H11   H     H_    0.492786 0.314582 0.641791 0.087448
H12   H     H_    0.440876 0.280681 0.648875 0.143627
H13   H     H_    0.442393 0.354133 0.118163 0.173911
H14   H     H_    0.497363 0.310183 0.744641 0.157054
H15   H     H_    0.365835 0.481248 0.589147 0.100232
H16   H     H_    0.351860 0.524345 0.658447 0.136214
H17   H     H_    0.407801 0.476574 0.707490 0.206425
H18   H     H_    0.507476 0.314355 0.357619 0.086913
H19   H     H_    0.559343 0.280916 0.349959 0.143587
H20   H     H_    0.502762 0.310748 0.254602 0.157135
H21   H     H_    0.134156 0.981242 0.410896 0.102055
H22   H     H_    0.148189 0.024348 0.341675 0.133810
H23   H     H_    0.092241 0.976601 0.292546 0.206115
H24   H     H_    0.514656 0.735869 0.721232 0.164239
H25   H     H_    0.992729 0.814470 0.642066 0.088374
H26   H     H_    0.940840 0.780778 0.649413 0.143792
H27   H     H_    0.997374 0.810400 0.744992 0.157139
H28   H     H_    0.865863 0.981269 0.589119 0.101656
H29   H     H_    0.851822 0.024360 0.658342 0.133631
H30   H     H_    0.907779 0.976611 0.707470 0.206010
H31   H     H_    0.007281 0.814479 0.358205 0.087990
H32   H     H_    0.059173 0.780688 0.350946 0.143506
H33   H     H_    0.002638 0.810233 0.255294 0.156817
H34   H     H_    0.801360 0.270705 0.602826 0.119766
H35   H     H_    0.057262 0.853686 0.880796 0.172641
H36   H     H_    0.860685 0.235207 0.693512 0.131331
H37   H     H_    0.818788 0.276946 0.714649 0.189792
H38   H     H_    0.256033 0.823740 0.459985 0.086833
H39   H     H_    0.205286 0.833057 0.342031 0.172399
H40   H     H_    0.263163 0.790546 0.377599 0.204255
H41   H     H_    0.199065 0.270918 0.397336 0.122593
H42   H     H_    0.139470 0.235501 0.307215 0.133484
H43   H     H_    0.181122 0.276942 0.285202 0.183529
H44   H     H_    0.744003 0.823916 0.540055 0.086884
H45   H     H_    0.794742 0.833125 0.658033 0.172403
H46   H     H_    0.985345 0.235867 0.278777 0.164175
H47   H     H_    0.736810 0.790719 0.622372 0.203941
H48   H     H_    0.301144 0.770767 0.602641 0.117806
H49   H     H_    0.360599 0.735312 0.693077 0.130892
H50   H     H_    0.318822 0.776940 0.714612 0.190554
H51   H     H_    0.756154 0.323939 0.460346 0.087102
H52   H     H_    0.705484 0.333187 0.342334 0.172442
H53   H     H_    0.763439 0.290774 0.378109 0.203915
H54   H     H_    0.698784 0.770873 0.397429 0.119236
H55   H     H_    0.639344 0.735443 0.306952 0.131436
H56   H     H_    0.681123 0.777108 0.285473 0.190155
H57   H     H_    0.942739 0.853196 0.119504 0.172868
H58   H     H_    0.243890 0.323426 0.540243 0.084039
H59   H     H_    0.294760 0.332956 0.658079 0.173939
H60   H     H_    0.237061 0.290243 0.622977 0.204155
H61   H     H_    0.014038 0.236125 0.717602 0.164621
H62   H     H_    0.454801 0.831259 0.203292 0.179444
H63   H     H_    0.602764 0.308103 0.024669 0.189072
H64   H     H_    0.545244 0.831096 0.797256 0.179593
H65   H     H_    0.327404 0.693240 0.197023 0.125564
H66   H     H_    0.396475 0.309734 0.973523 0.189001
H67   H     H_    0.954754 0.331113 0.202771 0.178505
H68   H     H_    0.102742 0.808598 0.024949 0.188542
H69   H     H_    0.043882 0.332141 0.791552 0.181420
H70   H     H_    0.897245 0.808099 0.975363 0.188836
H71   H     H_    0.359750 0.622306 0.295870 0.181296
H72   H     H_    0.659003 0.420677 0.767433 0.220707
H73   H     H_    0.640245 0.622297 0.704174 0.181964
H74   H     H_    0.341013 0.420833 0.232633 0.205380
H75   H     H_    0.859755 0.122313 0.295845 0.182009
H76   H     H_    0.296696 0.393023 0.091328 0.145254
H77   H     H_    0.159011 0.920784 0.767520 0.220637
H78   H     H_    0.140317 0.122341 0.704504 0.182386
H79   H     H_    0.841000 0.920680 0.232584 0.220806
H80   H     H_    0.176538 0.620448 0.380483 0.161248
H81   H     H_    0.677934 0.171746 0.594452 0.157469
H82   H     H_    0.823436 0.620476 0.619495 0.163504
H83   H     H_    0.321656 0.172016 0.404905 0.156871
H84   H     H_    0.676552 0.120474 0.380484 0.163469
H85   H     H_    0.178138 0.671841 0.594775 0.162716
H86   H     H_    0.323437 0.120437 0.619445 0.163640
H87   H     H_    0.672557 0.693209 0.802949 0.124687
H88   H     H_    0.821861 0.671875 0.405287 0.157844
H89   H     H_    0.246998 0.570077 0.379708 0.201744
H90   H     H_    0.634669 0.262634 0.597689 0.145078
H91   H     H_    0.752985 0.570086 0.620252 0.206251
H92   H     H_    0.364824 0.262958 0.401638 0.144857
H93   H     H_    0.747022 0.070127 0.379721 0.206424
H94   H     H_    0.134940 0.762763 0.598085 0.147367
H95   H     H_    0.252983 0.070092 0.620248 0.206336
H96   H     H_    0.865121 0.762750 0.402043 0.145461
H97   H     H_    0.359672 0.641316 0.639615 0.192201
H98   H     H_    0.203603 0.894367 0.910240 0.180494
H99   H     H_    0.657047 0.342911 0.405097 0.165095
H100  H     H_    0.640290 0.641430 0.360400 0.192145
H101  H     H_    0.343233 0.342707 0.595438 0.165428
H102  H     H_    0.859679 0.141368 0.639631 0.192057
H103  H     H_    0.156863 0.842794 0.404828 0.165026
H104  H     H_    0.140289 0.141382 0.360353 0.192117
H105  H     H_    0.843154 0.842829 0.595216 0.165104
H106  H     H_    0.556776 0.622703 0.855174 0.093579
H107  H     H_    0.491223 0.605820 0.825400 0.178339
H108  H     H_    0.508178 0.680189 0.821460 0.149790
H109  H     H_    0.827457 0.193279 0.197161 0.124613
H110  H     H_    0.438008 0.518062 0.173184 0.110696
H111  H     H_    0.427864 0.465992 0.089031 0.142651
H112  H     H_    0.487032 0.507417 0.148194 0.169678
H113  H     H_    0.443263 0.622436 0.144832 0.097762
H114  H     H_    0.508964 0.606479 0.174625 0.177724
H115  H     H_    0.491333 0.680539 0.178492 0.149792
H116  H     H_    0.561819 0.518009 0.827180 0.109688
H117  H     H_    0.572393 0.465403 0.911073 0.138160
H118  H     H_    0.513146 0.506768 0.852823 0.171152
H119  H     H_    0.056946 0.121270 0.855739 0.092250
H120  H     H_    0.796414 0.894167 0.089947 0.180622
H121  H     H_    0.990991 0.108350 0.826497 0.177671
H122  H     H_    0.010608 0.181390 0.822194 0.147923
H123  H     H_    0.938159 0.018037 0.172815 0.110150
H124  H     H_    0.927557 0.965430 0.088915 0.138166
H125  H     H_    0.986804 0.006779 0.147106 0.170634
H126  H     H_    0.943202 0.122734 0.144826 0.094107
H127  H     H_    0.008749 0.105817 0.174580 0.177725
H128  H     H_    0.991805 0.180195 0.178523 0.148806
H129  H     H_    0.063104 0.017542 0.828067 0.108468
H130  H     H_    0.071417 0.965732 0.911335 0.138013
H131  H     H_    0.172887 0.192593 0.805753 0.124265
H132  H     H_    0.012983 0.008404 0.850776 0.172857
H133  H     H_    0.819952 0.488868 0.131688 0.145141
H134  H     H_    0.751501 0.469584 0.086771 0.109997
H135  H     H_    0.767695 0.522153 0.031129 0.165191
H136  H     H_    0.247049 0.672250 0.194442 0.117751
H137  H     H_    0.232336 0.704192 0.271550 0.236285
H138  H     H_    0.293671 0.670126 0.312086 0.179126
H139  H     H_    0.205197 0.398539 0.074498 0.101895
H140  H     H_    0.167510 0.465214 0.017651 0.210733
H141  H     H_    0.236144 0.469593 0.100294 0.153101
H142  H     H_    0.557264 0.353152 0.880474 0.173050
H143  H     H_    0.752753 0.672207 0.805160 0.120518
H144  H     H_    0.767474 0.704291 0.728141 0.235971
H145  H     H_    0.706099 0.670316 0.687511 0.177467
H146  H     H_    0.320080 0.988953 0.131952 0.145066
H147  H     H_    0.251632 0.969710 0.087129 0.109672
H148  H     H_    0.267805 0.022271 0.031447 0.164852
H149  H     H_    0.747294 0.172303 0.195056 0.120597
H150  H     H_    0.732590 0.204412 0.272080 0.236027
H151  H     H_    0.793969 0.170427 0.312700 0.177243
H152  H     H_    0.680000 0.988807 0.868330 0.144815
N1    N     N_R   0.532910 0.558440 0.665240 -0.103360
N2    N     N_R   0.402970 0.441090 0.454460 -0.143493
N3    N     N_R   0.402970 0.558910 0.454460 -0.135008
N4    N     N_R   0.597030 0.441090 0.545540 -0.144654
N5    N     N_R   0.097030 0.058910 0.545540 -0.135952
N6    N     N_R   0.902970 0.941090 0.454460 -0.144699
N7    N     N_R   0.902970 0.058910 0.454460 -0.135898
N8    N     N_R   0.097030 0.941090 0.545540 -0.144933
N9    N     N_R   0.566200 0.559270 0.454460 -0.137123
N10   N     N_R   0.433800 0.440730 0.545540 -0.141973
N11   N     N_R   0.433800 0.559270 0.545540 -0.136586
N12   N     N_R   0.467090 0.441560 0.334760 -0.111910
N13   N     N_R   0.566200 0.440730 0.454460 -0.142401
N14   N     N_R   0.066200 0.059270 0.454460 -0.137219
N15   N     N_R   0.933800 0.940730 0.545540 -0.142398
N16   N     N_R   0.933800 0.059270 0.545540 -0.137439
N17   N     N_R   0.066200 0.940730 0.454460 -0.142563
N18   N     N_R   0.421050 0.559750 0.334770 -0.067395
N19   N     N_R   0.578950 0.440250 0.665230 -0.088399
N20   N     N_R   0.578950 0.559750 0.665230 -0.067238
N21   N     N_R   0.421050 0.440250 0.334770 -0.085924
N22   N     N_R   0.921050 0.059750 0.334770 -0.067337
N23   N     N_R   0.467090 0.558440 0.334760 -0.103019
N24   N     N_R   0.078950 0.940250 0.665230 -0.088600
N25   N     N_R   0.078950 0.059750 0.665230 -0.067682
N26   N     N_R   0.921050 0.940250 0.334770 -0.088476
N27   N     N_R   0.532910 0.441560 0.665240 -0.112620
N28   N     N_R   0.032910 0.058440 0.665240 -0.103372
N29   N     N_R   0.967090 0.941560 0.334760 -0.112723
N30   N     N_R   0.967090 0.058440 0.334760 -0.103534
N31   N     N_R   0.032910 0.941560 0.665240 -0.112677
N32   N     N_R   0.597030 0.558910 0.545540 -0.135857
Ni1   Ni    Ni4+2 0.483090 0.500000 0.604440 0.256346
Ni2   Ni    Ni4+2 0.516910 0.500000 0.395560 0.256405
Ni3   Ni    Ni4+2 0.983090 1.000000 0.604440 0.256386
Ni4   Ni    Ni4+2 0.016910 0.000000 0.395560 0.256047
Ni5   Ni    Ni4+2 0.586780 0.500000 0.604440 0.249439
Ni6   Ni    Ni4+2 0.413220 0.500000 0.395560 0.240848
Ni7   Ni    Ni4+2 0.086780 1.000000 0.604440 0.249083
Ni8   Ni    Ni4+2 0.913220 0.000000 0.395560 0.249271
O1    O     O_3   0.494311 0.626751 0.717483 -0.614478
O2    O     O_3   0.286372 0.751755 0.258378 -0.638266
O3    O     O_3   0.217592 0.436807 0.980255 -0.609352
O4    O     O_3   0.713523 0.751840 0.741566 -0.639125
O5    O     O_3   0.283350 0.935832 0.018471 -0.583412
O6    O     O_3   0.786514 0.251941 0.258583 -0.638933
O7    O     O_3   0.716683 0.935662 0.981804 -0.583834
O8    O     O_3   0.213009 0.251730 0.742254 -0.634161
O9    O     O_3   0.584143 0.554802 0.342162 -0.588929
O10   O     O_3   0.445304 0.373246 0.659328 -0.578117
O11   O     O_3   0.415856 0.554759 0.657830 -0.589284
O12   O     O_3   0.482863 0.439635 0.219172 -0.591108
O13   O     O_3   0.554867 0.373505 0.340566 -0.577944
O14   O     O_3   0.084156 0.054778 0.342182 -0.588704
O15   O     O_3   0.945301 0.873353 0.659419 -0.578758
O16   O     O_3   0.915847 0.054798 0.657829 -0.587843
O17   O     O_3   0.054691 0.873259 0.340669 -0.578109
O18   O     O_3   0.789988 0.195386 0.658546 -0.621178
O19   O     O_3   0.208415 0.749440 0.392736 -0.618863
O20   O     O_3   0.209928 0.195389 0.341381 -0.621519
O21   O     O_3   0.791527 0.749525 0.607226 -0.618633
O22   O     O_3   0.290018 0.695376 0.658532 -0.618553
O23   O     O_3   0.505671 0.626780 0.282514 -0.615028
O24   O     O_3   0.708661 0.249569 0.393074 -0.618736
O25   O     O_3   0.709939 0.695524 0.341504 -0.621233
O26   O     O_3   0.291782 0.249306 0.607591 -0.619573
O27   O     O_3   0.517091 0.439570 0.780783 -0.588771
O28   O     O_3   0.994496 0.126368 0.718240 -0.612558
O29   O     O_3   0.982894 0.939587 0.219198 -0.588728
O30   O     O_3   0.005679 0.126755 0.282510 -0.613975
O31   O     O_3   0.017103 0.939898 0.780749 -0.589092
O32   O     O_3   0.783301 0.435722 0.018236 -0.584221

loop_
_geom_bond_atom_site_label_1
_geom_bond_atom_site_label_2
_ccdc_geom_bond_type
C81   H114  S    
C31   C42   A    
C132  C150  A    
C4    O5    S    
C133  C151  A    
C105  H37   S    
C33   N26   A    
C12   C172  A    
C200  O3    S    
C136  C162  A    
C56   H84   S    
C59   C126  A    
N31   Ni3   S    
C114  H58   S    
C93   H151  S    
C107  H42   S    
C57   C76   A    
C17   N9    A    
C52   C61   A    
C128  C145  A    
C193  F11   S    
C142  C177  A    
C54   C63   A    
C167  C185  A    
C6    C188  A    
C100  H23   S    
C143  C178  A    
C4    C186  A    
C2    C90   A    
N17   Ni4   S    
C51   C197  A    
C142  H68   S    
C27   H72   S    
C113  C122  A    
N18   N23   A    
C86   H129  S    
C170  C187  A    
C141  C150  A    
C35   C115  A    
C111  H55   S    
C4    C12   A    
C85   O30   S    
C117  C126  A    
C128  C154  A    
C46   H103  S    
C59   H86   S    
C91   O4    S    
N20   Ni5   S    
C18   O10   S    
C111  H56   S    
C87   H133  S    
C110  H51   S    
N25   N28   A    
C114  H59   S    
C196  N7    A    
C95   H6    S    
C115  C123  A    
C165  C183  A    
C38   C129  S    
N30   Ni4   S    
C40   C157  A    
C166  C184  A    
N14   Ni4   S    
C49   C195  A    
N26   Ni8   S    
C88   H138  S    
C182  C185  A    
C96   H10   S    
C142  C151  A    
C131  C158  A    
C1    O1    S    
C88   H136  S    
C102  O15   S    
C18   C44   A    
C27   N19   A    
C104  H31   S    
C25   N17   A    
C98   O11   S    
C164  C173  A    
C26   C37   A    
C192  N3    A    
C52   H80   S    
C163  C172  A    
C192  F10   S    
C33   H79   S    
C22   C49   A    
C98   H16   S    
C81   O23   S    
C16   C175  A    
C84   O29   S    
C170  C178  A    
C78   H107  S    
C14   F6    S    
C131  C149  A    
C83   H122  S    
C69   H96   S    
C2    C71   A    
C9    C177  A    
C70   C190  A    
C100  O14   S    
C92   H146  S    
C68   C77   A    
C80   O12   S    
C148  H24   S    
C80   H111  S    
C47   C193  A    
C140  H66   S    
C8    F16   S    
C82   O27   S    
C28   H73   S    
C61   H89   S    
C13   C72   A    
C133  C160  A    
C189  F1    S    
C12   F5    S    
C113  O26   S    
C26   H71   S    
C65   H93   S    
C183  C188  A    
C136  C153  A    
C79   O22   S    
N3    Ni6   S    
C94   H3    S    
C159  C167  A    
C107  O20   S    
C85   H127  S    
C64   H92   S    
C129  C147  A    
C58   H85   S    
C3    C11   A    
C152  H61   S    
C89   H140  S    
C194  F12   S    
C95   O8    S    
N2    N10   A    
C103  O16   S    
C97   H12   S    
N25   Ni7   S    
C130  C156  A    
C7    O8    S    
C111  H54   S    
C29   H74   S    
C39   C134  S    
C84   H124  S    
C163  C181  A    
C69   C77   A    
C48   C76   S    
C92   H147  S    
C8    C198  A    
C24   H101  S    
N12   N21   A    
C22   O15   S    
C7    C187  A    
C105  H34   S    
C14   C173  A    
C168  O30   S    
C50   C74   S    
C195  N6    A    
N10   Ni1   S    
C107  H43   S    
C25   O17   S    
N29   Ni4   S    
C59   C67   A    
C145  H2    S    
C144  C180  A    
C184  C200  A    
C64   C73   A    
C30   C41   A    
C100  H22   S    
C102  H26   S    
C54   H82   S    
C11   F4    S    
N22   Ni8   S    
C86   H132  S    
C169  C177  A    
C46   C75   A    
C1    C34   A    
C6    O7    S    
C35   H102  S    
C60   H88   S    
C147  H142  S    
C139  C148  A    
C132  C159  A    
N3    N11   A    
C162  C171  A    
C144  H70   S    
C23   O16   S    
C20   C47   A    
C106  H40   S    
C109  H49   S    
C9    F2    S    
C157  O29   S    
C165  C174  A    
C95   H7    S    
C65   C74   A    
C90   C120  A    
C94   O7    S    
C196  F14   S    
C106  O19   S    
C97   H14   S    
C91   H144  S    
N23   Ni2   S    
C103  H28   S    
C109  H48   S    
C82   H116  S    
C30   H75   S    
C191  F9    S    
C55   H83   S    
C54   C121  A    
C116  C125  A    
C118  C127  A    
N2    Ni6   S    
C181  C199  A    
C96   O9    S    
N5    N14   A    
N27   Ni1   S    
C81   H113  S    
C82   H117  S    
C105  H36   S    
C153  H57   S    
C181  C186  A    
C8    C176  A    
C11   C180  A    
C168  N30   A    
C26   N18   A    
C184  C187  A    
C93   H150  S    
C107  H41   S    
C149  H13   S    
C21   C48   A    
C94   H152  S    
C99   H20   S    
C1    N1    A    
C60   C69   A    
C49   C77   S    
C62   C71   A    
C179  O31   S    
C28   C34   A    
C52   C119  A    
C86   H130  S    
C87   O32   S    
C2    H99   S    
C139  C174  A    
C3    C183  A    
C140  C149  A    
C15   F7    S    
C9    C199  A    
N15   Ni3   S    
C61   C70   A    
C35   C74   A    
C106  H38   S    
C197  N8    A    
N9    N32   A    
C5    C185  A    
C110  H52   S    
C66   H94   S    
C53   C120  A    
C114  H60   S    
C40   C136  S    
C166  C175  A    
C95   H5    S    
C171  C188  A    
C18   N10   A    
C137  C145  A    
C169  C186  A    
C121  C127  S    
N24   N31   A    
N13   Ni2   S    
C86   O31   S    
C24   C73   A    
C27   C38   A    
C41   C168  A    
C159  H109  S    
C57   H104  S    
C32   C39   A    
C3    O4    S    
C137  C172  A    
C199  O2    S    
C50   C196  A    
C104  H32   S    
C79   C119  A    
C36   C112  A    
C141  C176  A    
C111  O25   S    
C160  C169  A    
C78   O1    S    
C110  O24   S    
C10   F3    S    
C189  N32   A    
C120  C123  S    
C160  H98   S    
C37   C128  S    
C157  N29   A    
N7    N16   A    
C135  O27   S    
C32   N25   A    
C81   H115  S    
C78   H108  S    
C117  O20   S    
C83   H121  S    
N4    Ni5   S    
C161  H131  S    
N21   Ni6   S    
C80   H112  S    
C139  H64   S    
C101  O25   S    
C118  O21   S    
C97   O10   S    
C129  C155  A    
C99   H18   S    
C23   C50   A    
C151  H35   S    
C16   F8    S    
C191  N2    A    
N12   Ni2   S    
C101  C121  A    
C104  O17   S    
C194  N5    A    
C29   N21   A    
C56   C123  A    
C68   H105  S    
C179  N31   A    
C45   C192  A    
C42   C179  A    
C134  C152  A    
C138  C173  A    
C19   C45   A    
C63   H91   S    
C108  H45   S    
C13   H100  S    
C103  H29   S    
C38   C135  A    
C135  N27   A    
C19   N11   A    
C5    C14   A    
C83   O28   S    
C89   H139  S    
C119  C125  S    
C7    C16   A    
C97   H11   S    
C143  H69   S    
C32   H78   S    
N4    N13   A    
C30   N22   A    
C89   O3    S    
C94   H4    S    
C87   H134  S    
C90   O24   S    
C158  C166  A    
C57   C117  A    
C104  H33   S    
C15   C174  A    
C48   C194  A    
C45   C70   S    
C92   H148  S    
C60   C127  A    
N26   N29   A    
C10   C200  A    
C41   C132  S    
C134  C161  A    
N16   Ni3   S    
C88   H137  S    
C46   C116  A    
C96   H9    S    
C80   H110  S    
C156  C165  A    
C140  C175  A    
C66   C75   A    
C39   C146  A    
C155  H1    S    
C44   C73   S    
C112  O12   S    
C195  F13   S    
C164  C182  A    
C98   H15   S    
C63   C72   A    
C78   H106  S    
C33   C40   A    
N9    Ni2   S    
C154  H65   S    
C83   H119  S    
C102  H27   S    
C21   O14   S    
C31   H77   S    
C116  O19   S    
C28   N20   A    
C62   H90   S    
C43   C72   S    
N1    N20   A    
C138  H63   S    
C182  C198  A    
C53   H81   S    
C108  O21   S    
C17   C43   A    
C146  O28   S    
C19   O11   S    
C29   C36   A    
N32   Ni5   S    
C17   O9    S    
C42   C133  S    
C51   C75   S    
C44   C191  A    
C56   C65   A    
C108  H47   S    
C85   H128  S    
N1    Ni1   S    
C144  C153  A    
C141  H67   S    
C124  N23   A    
C89   H141  S    
C6    C15   A    
C58   C66   A    
C91   H143  S    
C31   N24   A    
C96   H8    S    
C79   C190  A    
N18   Ni6   S    
C156  H87   S    
C197  F15   S    
C68   C118  A    
C55   C122  A    
C24   C113  A    
C146  N28   A    
C22   N15   A    
N28   Ni3   S    
C198  O32   S    
C93   O6    S    
C137  H62   S    
C103  H30   S    
C130  C148  A    
N8    N17   A    
C10   C178  A    
N11   Ni1   S    
C154  C163  A    
C82   H118  S    
N19   N27   A    
C5    O6    S    
C36   C131  S    
C124  O23   S    
C162  H120  S    
C21   N14   A    
C85   H126  S    
C93   H149  S    
C23   N16   A    
C99   O13   S    
C122  C126  S    
C25   C51   A    
N22   N30   A    
C37   C124  A    
C99   H19   S    
C53   C62   A    
C91   H145  S    
C138  C147  A    
C47   C71   S    
C55   C64   A    
C100  H21   S    
N5    Ni7   S    
C102  H25   S    
N6    Ni8   S    
C20   O13   S    
C34   C130  S    
C190  H97   S    
C161  C170  A    
C150  H46   S    
C171  C180  A    
C108  H44   S    
N6    N15   A    
C13   C101  A    
N24   Ni7   S    
N7    Ni8   S    
C143  C152  A    
N8    Ni7   S    
C106  H39   S    
C158  H76   S    
C109  H50   S    
C114  O26   S    
C87   H135  S    
C110  H53   S    
C112  N12   A    
C155  C164  A    
C98   H17   S    
C67   H95   S    
C105  O18   S    
C115  O18   S    
C193  N4    A    
C84   H123  S    
N19   Ni5   S    
C20   N13   A    
C84   H125  S    
C43   C189  A    
C58   C125  A    
C109  O22   S    
C167  C176  A    
C67   C76   A    
C92   O5    S    
C88   O2    S    
