data_mof_unit_37992.cif
_audit_creation_date              2012-12-10T18:12:17-0500
_audit_creation_method            fapswitch 2.2
_symmetry_space_group_name_H-M    P1
_symmetry_Int_Tables_number       1
_space_group_crystal_system       triclinic
_cell_length_a                    18.347957
_cell_length_b                    18.353021
_cell_length_c                    43.300982
_cell_angle_alpha                 89.825412
_cell_angle_beta                  89.795951
_cell_angle_gamma                 90.110064
_cell_volume                      14581.0043682

loop_
_atom_site_label
_atom_site_type_symbol
_atom_type_description
_atom_site_fract_x
_atom_site_fract_y
_atom_site_fract_z
_atom_type_partial_charge
C1    C     C_R   0.020390 0.441242 0.886227 0.292292
C2    C     C_R   0.038219 0.551617 0.114749 0.277840
C3    C     C_R   0.548080 0.037582 0.885785 0.273283
C4    C     C_R   0.441582 0.010858 0.113021 0.294347
C5    C     C_R   0.969474 0.563324 0.884104 0.289783
C6    C     C_R   0.949780 0.452657 0.116273 0.272276
C7    C     C_R   0.453817 0.944717 0.883301 0.265612
C8    C     C_R   0.567773 0.971432 0.116413 0.281378
C9    C     C_R   0.526567 0.933353 0.383880 0.284704
C10   C     C_R   0.549627 0.046573 0.615745 0.285405
C11   C     C_R   0.043738 0.536225 0.386582 0.284986
C12   C     C_R   0.937288 0.515386 0.614197 0.278649
C13   C     C_R   0.484444 0.058785 0.386434 0.282616
C14   C     C_R   0.458068 0.950569 0.615255 0.271390
C15   C     C_R   0.948890 0.444133 0.382543 0.269736
C16   C     C_R   0.060500 0.466277 0.615355 0.282450
C17   C     C_R   0.987784 0.504340 0.933597 -0.184820
C18   C     C_R   0.986809 0.504920 0.067071 -0.175898
C19   C     C_R   0.504746 0.979144 0.932904 -0.172791
C20   C     C_R   0.509274 0.978456 0.066415 -0.174860
C21   C     C_R   0.512781 0.992091 0.433587 -0.165888
C22   C     C_R   0.509695 0.994752 0.567024 -0.181881
C23   C     C_R   0.994771 0.478255 0.432972 -0.190599
C24   C     C_R   0.996865 0.478161 0.566476 -0.163510
C25   C     C_R   0.025338 0.447686 0.918398 0.424656
C26   C     C_R   0.040570 0.546084 0.082512 0.434813
C27   C     C_R   0.541961 0.037013 0.918055 0.435538
C28   C     C_R   0.449019 0.012598 0.080706 0.423685
C29   C     C_R   0.955498 0.559840 0.915827 0.440350
C30   C     C_R   0.937655 0.462399 0.084666 0.440821
C31   C     C_R   0.464654 0.929567 0.914752 0.435714
C32   C     C_R   0.567070 0.953997 0.084966 0.439082
C33   C     C_R   0.540700 0.934825 0.415594 0.431930
C34   C     C_R   0.560480 0.036412 0.584022 0.435942
C35   C     C_R   0.034208 0.535713 0.418731 0.440110
C36   C     C_R   0.940136 0.515233 0.581741 0.418603
C37   C     C_R   0.479008 0.051605 0.418695 0.426189
C38   C     C_R   0.454782 0.956134 0.583071 0.444234
C39   C     C_R   0.955379 0.429649 0.414169 0.435834
C40   C     C_R   0.054797 0.449465 0.583868 0.420833
C41   C     C_R   0.996673 0.501343 0.868505 -0.405939
C42   C     C_R   0.996638 0.500923 0.131923 -0.389147
C43   C     C_R   0.499972 0.994869 0.868131 -0.379220
C44   C     C_R   0.502845 0.994138 0.131393 -0.403483
C45   C     C_R   0.503784 0.997581 0.368497 -0.396579
C46   C     C_R   0.502019 0.999623 0.631921 -0.388332
C47   C     C_R   0.997760 0.493247 0.368125 -0.388651
C48   C     C_R   0.999555 0.494645 0.631384 -0.391982
C49   C     C_R   0.997953 0.570127 0.984315 0.356389
C50   C     C_R   0.975188 0.439546 0.016331 0.389332
C51   C     C_R   0.444240 0.956838 0.984483 0.388361
C52   C     C_R   0.574017 0.990068 0.014937 0.353088
C53   C     C_R   0.965529 0.441540 0.984398 0.363636
C54   C     C_R   0.988272 0.571361 0.016297 0.381075
C55   C     C_R   0.574711 0.980271 0.982921 0.382594
C56   C     C_R   0.449077 0.946391 0.016363 0.372474
C57   C     C_R   0.538406 0.052286 0.484094 0.379628
C58   C     C_R   0.506015 0.925098 0.516755 0.367196
C59   C     C_R   0.930940 0.456854 0.484227 0.363729
C60   C     C_R   0.059704 0.490601 0.515160 0.408919
C61   C     C_R   0.497141 0.926521 0.484669 0.368488
C62   C     C_R   0.525378 0.056274 0.515741 0.383410
C63   C     C_R   0.061751 0.478431 0.483413 0.364436
C64   C     C_R   0.934212 0.448471 0.516333 0.371252
C65   C     C_R   0.513976 0.991777 0.532836 -0.198147
C66   C     C_R   0.517079 0.989653 0.467798 -0.184860
C67   C     C_R   0.997034 0.471582 0.532309 -0.193069
C68   C     C_R   0.995711 0.469571 0.467144 -0.201280
C69   C     C_R   0.982967 0.505302 0.032859 -0.202071
C70   C     C_R   0.983074 0.505606 0.967775 -0.188973
C71   C     C_R   0.511625 0.970308 0.032262 -0.188762
C72   C     C_R   0.508001 0.970992 0.967085 -0.196842
C73   C     C_R   0.499923 0.999864 0.834171 0.941213
C74   C     C_R   0.500424 0.999654 0.165647 0.915571
C75   C     C_R   0.999777 0.500117 0.834290 0.923091
C76   C     C_R   0.999868 0.500171 0.165859 0.936163
C77   C     C_R   0.999622 0.499423 0.334179 0.939684
C78   C     C_R   0.000005 0.499687 0.665655 0.918501
C79   C     C_R   0.500257 0.999626 0.334296 0.918129
C80   C     C_R   0.500075 0.000018 0.665867 0.942174
C81   C     C_R   0.639914 0.139845 0.749949 0.883777
C82   C     C_R   0.360111 0.859688 0.249976 0.906209
C83   C     C_R   0.859545 0.639761 0.750206 0.885865
C84   C     C_R   0.139808 0.360152 0.250019 0.865031
C85   C     C_R   0.360310 0.859895 0.750155 0.890053
C86   C     C_R   0.640301 0.139956 0.249988 0.906346
C87   C     C_R   0.140316 0.359748 0.750002 0.906164
C88   C     C_R   0.860011 0.639888 0.249960 0.861705
C89   C     C_R   0.640207 0.859839 0.249997 0.891272
C90   C     C_R   0.360195 0.139834 0.750007 0.866026
C91   C     C_R   0.860128 0.360084 0.250045 0.884340
C92   C     C_R   0.139811 0.640443 0.749794 0.903750
C93   C     C_R   0.359839 0.140179 0.249997 0.898532
C94   C     C_R   0.639807 0.860021 0.750051 0.865566
C95   C     C_R   0.139911 0.639906 0.249959 0.877838
C96   C     C_R   0.859651 0.360087 0.750153 0.900626
C97   C     C_R   0.322361 0.267327 0.741130 0.339660
C98   C     C_R   0.685415 0.737342 0.266262 0.354713
C99   C     C_R   0.754838 0.297543 0.725039 0.339257
C100  C     C_R   0.237854 0.707658 0.276519 0.342228
C101  C     C_R   0.682816 0.736931 0.735034 0.341451
C102  C     C_R   0.316387 0.264596 0.264422 0.342262
C103  C     C_R   0.242808 0.705663 0.723965 0.327220
C104  C     C_R   0.766099 0.287518 0.277304 0.348751
C105  C     C_R   0.297723 0.754173 0.275116 0.334627
C106  C     C_R   0.709643 0.236791 0.723328 0.331726
C107  C     C_R   0.734641 0.680695 0.262434 0.335819
C108  C     C_R   0.266636 0.317807 0.737199 0.338961
C109  C     C_R   0.705961 0.241444 0.275964 0.324363
C110  C     C_R   0.289483 0.765436 0.722800 0.341517
C111  C     C_R   0.265785 0.320338 0.261287 0.339694
C112  C     C_R   0.739578 0.687221 0.732208 0.331216
C113  C     C_R   0.818951 0.764948 0.237126 0.334478
C114  C     C_R   0.182328 0.233607 0.762763 0.334368
C115  C     C_R   0.256815 0.796087 0.224447 0.330222
C116  C     C_R   0.735298 0.209839 0.777121 0.340851
C117  C     C_R   0.179477 0.234066 0.238929 0.340060
C118  C     C_R   0.809490 0.757427 0.769757 0.339175
C119  C     C_R   0.744120 0.204344 0.224303 0.333861
C120  C     C_R   0.264438 0.788746 0.776966 0.339351
C121  C     C_R   0.795209 0.256334 0.775792 0.329376
C122  C     C_R   0.209107 0.737205 0.223162 0.340970
C123  C     C_R   0.232830 0.177908 0.758847 0.341319
C124  C     C_R   0.762524 0.814512 0.233477 0.351709
C125  C     C_R   0.202784 0.744705 0.775033 0.332415
C126  C     C_R   0.789328 0.265238 0.222908 0.345589
C127  C     C_R   0.761255 0.814940 0.766246 0.340255
C128  C     C_R   0.235331 0.183616 0.235660 0.342544
C129  C     C_R   0.196943 0.303249 0.749999 -0.397344
C130  C     C_R   0.803928 0.695701 0.249803 -0.399687
C131  C     C_R   0.695691 0.196006 0.750096 -0.388786
C132  C     C_R   0.304438 0.802661 0.249840 -0.386568
C133  C     C_R   0.802185 0.695137 0.750815 -0.392465
C134  C     C_R   0.195661 0.304189 0.250092 -0.393819
C135  C     C_R   0.304292 0.803937 0.750041 -0.389577
C136  C     C_R   0.697321 0.195704 0.250064 -0.389577
C137  C     C_R   0.196151 0.695716 0.249877 -0.389626
C138  C     C_R   0.802794 0.304141 0.750343 -0.392158
C139  C     C_R   0.696522 0.803396 0.249895 -0.413579
C140  C     C_R   0.304492 0.195717 0.750035 -0.390172
C141  C     C_R   0.804337 0.303889 0.250074 -0.395936
C142  C     C_R   0.195591 0.697429 0.749558 -0.389989
C143  C     C_R   0.303322 0.196659 0.250025 -0.398236
C144  C     C_R   0.695267 0.803420 0.750399 -0.399062
O1    O     O_3   0.500000 0.000000 0.750000 -0.510064
O2    O     O_3   0.500000 0.000000 0.250000 -0.508467
O3    O     O_3   0.000000 0.500000 0.750000 -0.510278
O4    O     O_3   0.000000 0.500000 0.250000 -0.509798
O5    O     O_R   0.439140 0.000000 0.819450 -0.641509
O6    O     O_R   0.560860 0.000000 0.180550 -0.630862
O7    O     O_R   1.000000 0.439140 0.819450 -0.633447
O8    O     O_R   0.000000 0.560860 0.180550 -0.646397
O9    O     O_R   0.560860 0.000000 0.819450 -0.648022
O10   O     O_R   0.439140 0.000000 0.180550 -0.629125
O11   O     O_R   1.000000 0.560860 0.819450 -0.632646
O12   O     O_R   0.000000 0.439140 0.180550 -0.644900
O13   O     O_R   0.939140 0.500000 0.319450 -0.647231
O14   O     O_R   0.060860 0.500000 0.680550 -0.627832
O15   O     O_R   0.500000 0.939140 0.319450 -0.629028
O16   O     O_R   0.500000 0.060860 0.680550 -0.641384
O17   O     O_R   0.060860 0.500000 0.319450 -0.645605
O18   O     O_R   0.939140 0.500000 0.680550 -0.635776
O19   O     O_R   0.500000 0.060860 0.319450 -0.629637
O20   O     O_R   0.500000 0.939140 0.680550 -0.647926
O21   O     O_R   0.646030 0.085480 0.768310 -0.630472
O22   O     O_R   0.353970 0.914520 0.231690 -0.630250
O23   O     O_R   0.914520 0.646030 0.768310 -0.627099
O24   O     O_R   0.085480 0.353970 0.231690 -0.623728
O25   O     O_R   0.353970 0.914520 0.768310 -0.618650
O26   O     O_R   0.646030 0.085480 0.231690 -0.633795
O27   O     O_R   0.085480 0.353970 0.768310 -0.628574
O28   O     O_R   0.914520 0.646030 0.231690 -0.623642
O29   O     O_R   0.646030 0.914520 0.231690 -0.627791
O30   O     O_R   0.353970 0.085480 0.768310 -0.622668
O31   O     O_R   0.914520 0.353970 0.231690 -0.626107
O32   O     O_R   0.085480 0.646030 0.768310 -0.625522
O33   O     O_R   0.353970 0.085480 0.231690 -0.631159
O34   O     O_R   0.646030 0.914520 0.768310 -0.622882
O35   O     O_R   0.085480 0.646030 0.231690 -0.620702
O36   O     O_R   0.914520 0.353970 0.768310 -0.630382
O37   O     O_R   0.146030 0.585480 0.268310 -0.623226
O38   O     O_R   0.853970 0.414520 0.731690 -0.627231
O39   O     O_R   0.414520 0.146030 0.268310 -0.630447
O40   O     O_R   0.585480 0.853970 0.731690 -0.624420
O41   O     O_R   0.853970 0.414520 0.268310 -0.627480
O42   O     O_R   0.146030 0.585480 0.731690 -0.631602
O43   O     O_R   0.585480 0.853970 0.268310 -0.627876
O44   O     O_R   0.414520 0.146030 0.731690 -0.623296
O45   O     O_R   0.146030 0.414520 0.731690 -0.629828
O46   O     O_R   0.853970 0.585480 0.268310 -0.626960
O47   O     O_R   0.414520 0.853970 0.731690 -0.634881
O48   O     O_R   0.585480 0.146030 0.268310 -0.630521
O49   O     O_R   0.853970 0.585480 0.731690 -0.614144
O50   O     O_R   0.146030 0.414520 0.268310 -0.621233
O51   O     O_R   0.585480 0.146030 0.731690 -0.619235
O52   O     O_R   0.414520 0.853970 0.268310 -0.633150
Zn1   Zn    Zn3+2 0.500000 0.086800 0.724180 0.954596
Zn2   Zn    Zn3+2 0.500000 0.913200 0.275820 0.954274
Zn3   Zn    Zn3+2 0.913200 0.500000 0.724180 0.957475
Zn4   Zn    Zn3+2 0.086800 0.500000 0.275820 0.949425
Zn5   Zn    Zn3+2 0.500000 0.913200 0.724180 0.944637
Zn6   Zn    Zn3+2 0.500000 0.086800 0.275820 0.953754
Zn7   Zn    Zn3+2 0.086800 0.500000 0.724180 0.958255
Zn8   Zn    Zn3+2 0.913200 0.500000 0.275820 0.946181
Zn9   Zn    Zn3+2 0.000000 0.586800 0.224180 0.948020
Zn10  Zn    Zn3+2 0.000000 0.413200 0.775820 0.955695
Zn11  Zn    Zn3+2 0.413200 0.000000 0.224180 0.953074
Zn12  Zn    Zn3+2 0.586800 0.000000 0.775820 0.946046
Zn13  Zn    Zn3+2 0.000000 0.413200 0.224180 0.947059
Zn14  Zn    Zn3+2 1.000000 0.586800 0.775820 0.954486
Zn15  Zn    Zn3+2 0.586800 0.000000 0.224180 0.953716
Zn16  Zn    Zn3+2 0.413200 0.000000 0.775820 0.955514
O53   O     O_3   0.042693 0.377295 0.872367 -0.604460
C145  C     C_3   0.982061 0.329459 0.870184 0.169872
H1    H     H_    0.988690 0.297847 0.848735 0.155851
H2    H     H_    0.928538 0.357985 0.867902 0.112409
C146  C     C_3   0.979590 0.276407 0.897546 -0.347900
H3    H     H_    0.034422 0.252659 0.901394 0.251294
H4    H     H_    0.963497 0.306154 0.918633 0.272781
C147  C     C_3   0.924601 0.215288 0.892274 -1.017112
H5    H     H_    0.869374 0.238071 0.888232 0.275617
H6    H     H_    0.922504 0.179277 0.912907 0.272467
H7    H     H_    0.941213 0.182137 0.872119 0.275405
O54   O     O_3   0.081865 0.602533 0.129245 -0.634955
C148  C     C_3   0.042314 0.668290 0.133228 0.160156
H8    H     H_    0.061581 0.693676 0.154970 0.207643
H9    H     H_    0.982354 0.659889 0.136212 0.121051
C149  C     C_3   0.056402 0.721503 0.106492 -0.343584
H10   H     H_    0.115743 0.725075 0.101608 0.251431
H11   H     H_    0.028660 0.701654 0.085428 0.273349
C150  C     C_3   0.027279 0.797323 0.113875 -1.016713
H12   H     H_    0.967223 0.795394 0.117057 0.268800
H13   H     H_    0.040382 0.835150 0.094573 0.279255
H14   H     H_    0.052600 0.818586 0.135234 0.280249
O55   O     O_3   0.598727 0.082890 0.871803 -0.638757
C151  C     C_3   0.665592 0.044842 0.868171 0.164360
H15   H     H_    0.686487 0.056336 0.844540 0.202997
H16   H     H_    0.660455 0.984195 0.869902 0.111401
C152  C     C_3   0.722157 0.071879 0.891421 -0.339061
H17   H     H_    0.730704 0.131349 0.888317 0.231640
H18   H     H_    0.702506 0.062065 0.915304 0.283081
C153  C     C_3   0.794723 0.032453 0.887338 -0.995833
H19   H     H_    0.788095 0.973446 0.892440 0.261251
H20   H     H_    0.835548 0.055496 0.903482 0.276437
H21   H     H_    0.815239 0.038972 0.863357 0.277707
O56   O     O_3   0.376623 0.033007 0.126286 -0.607417
C154  C     C_3   0.328381 0.972625 0.128413 0.161763
H22   H     H_    0.292597 0.981974 0.148589 0.158310
H23   H     H_    0.356705 0.919896 0.133055 0.111361
C155  C     C_3   0.280553 0.966230 0.099516 -0.338471
H24   H     H_    0.263325 0.021222 0.091653 0.260974
H25   H     H_    0.312396 0.940275 0.080812 0.272596
C156  C     C_3   0.212887 0.919863 0.105420 -1.028043
H26   H     H_    0.228518 0.865419 0.114420 0.270433
H27   H     H_    0.182365 0.912635 0.083551 0.278876
H28   H     H_    0.176549 0.947413 0.122184 0.278330
O57   O     O_3   0.954862 0.627574 0.868639 -0.624484
C157  C     C_3   0.018621 0.671748 0.868297 0.155696
H29   H     H_    0.028044 0.690206 0.844190 0.179890
H30   H     H_    0.069598 0.642927 0.875445 0.109467
C158  C     C_3   0.007670 0.738967 0.888578 -0.365466
H31   H     H_    0.960008 0.770428 0.880224 0.223994
H32   H     H_    0.997158 0.721816 0.912771 0.278953
C159  C     C_3   0.074562 0.788399 0.887845 -0.996237
H33   H     H_    0.123719 0.758345 0.895601 0.273442
H34   H     H_    0.065626 0.835474 0.903429 0.270302
H35   H     H_    0.083816 0.809198 0.864121 0.280779
O58   O     O_3   0.910658 0.399797 0.132010 -0.631728
C160  C     C_3   0.952122 0.334640 0.133474 0.172114
H36   H     H_    0.944970 0.311142 0.156973 0.205976
H37   H     H_    0.012092 0.343086 0.130311 0.108083
C161  C     C_3   0.924318 0.278946 0.110021 -0.338436
H38   H     H_    0.866301 0.266001 0.114928 0.236122
H39   H     H_    0.928224 0.301747 0.086343 0.281723
C162  C     C_3   0.969002 0.208987 0.111253 -1.014979
H40   H     H_    0.026664 0.220706 0.105155 0.259675
H41   H     H_    0.947184 0.169290 0.094355 0.271331
H42   H     H_    0.966527 0.184362 0.134686 0.281692
O59   O     O_3   0.402034 0.905808 0.867129 -0.641097
C163  C     C_3   0.335165 0.944564 0.867331 0.166667
H43   H     H_    0.310355 0.938738 0.844098 0.208271
H44   H     H_    0.341345 0.004464 0.871271 0.108656
C164  C     C_3   0.282525 0.912063 0.891216 -0.343210
H45   H     H_    0.274116 0.853340 0.886384 0.239980
H46   H     H_    0.305713 0.917278 0.914703 0.279575
C165  C     C_3   0.209172 0.950986 0.890671 -1.011774
H47   H     H_    0.216067 0.008573 0.897897 0.259247
H48   H     H_    0.171029 0.923702 0.906960 0.276721
H49   H     H_    0.185225 0.949590 0.867194 0.279512
O60   O     O_3   0.633772 0.969259 0.131698 -0.612806
C166  C     C_3   0.666808 0.039330 0.129904 0.152855
H50   H     H_    0.669991 0.062216 0.153555 0.185276
H51   H     H_    0.636349 0.080029 0.115596 0.102503
C167  C     C_3   0.743987 0.032822 0.116896 -0.352373
H52   H     H_    0.777842 0.999889 0.132892 0.207930
H53   H     H_    0.742299 0.005165 0.094114 0.268894
C168  C     C_3   0.779037 0.107700 0.112900 -0.991613
H54   H     H_    0.748387 0.140681 0.095857 0.270920
H55   H     H_    0.835961 0.101264 0.104682 0.276080
H56   H     H_    0.779137 0.137313 0.135131 0.287050
O61   O     O_3   0.533469 0.867730 0.368527 -0.612994
C169  C     C_3   0.466486 0.828893 0.370898 0.150405
H57   H     H_    0.442390 0.824673 0.347493 0.178668
H58   H     H_    0.424332 0.855478 0.385814 0.098388
C170  C     C_3   0.480278 0.752005 0.383246 -0.344559
H59   H     H_    0.512185 0.720730 0.365985 0.203526
H60   H     H_    0.512037 0.754940 0.405003 0.275306
C171  C     C_3   0.408982 0.711705 0.389656 -0.973044
H61   H     H_    0.379483 0.737154 0.409262 0.265483
H62   H     H_    0.420778 0.654091 0.395656 0.275717
H63   H     H_    0.373579 0.713103 0.368989 0.272647
O62   O     O_3   0.591947 0.096923 0.631217 -0.631537
C172  C     C_3   0.555777 0.165201 0.631570 0.152255
H64   H     H_    0.573465 0.194279 0.652698 0.210531
H65   H     H_    0.495223 0.160247 0.633412 0.116744
C173  C     C_3   0.576297 0.211364 0.603210 -0.346713
H66   H     H_    0.635738 0.207540 0.598619 0.263083
H67   H     H_    0.546971 0.190536 0.582741 0.268899
C174  C     C_3   0.555741 0.291104 0.607539 -1.019952
H68   H     H_    0.496104 0.296316 0.611196 0.270060
H69   H     H_    0.571434 0.322643 0.586631 0.277309
H70   H     H_    0.584842 0.314300 0.627614 0.278522
O63   O     O_3   0.093409 0.583776 0.373330 -0.635923
C175  C     C_3   0.162047 0.548744 0.370652 0.152380
H71   H     H_    0.187831 0.567738 0.348839 0.202555
H72   H     H_    0.158318 0.488102 0.368748 0.117937
C176  C     C_3   0.211807 0.569314 0.397604 -0.341903
H73   H     H_    0.212503 0.629357 0.400624 0.245649
H74   H     H_    0.190803 0.544407 0.419176 0.275116
C177  C     C_3   0.289389 0.542248 0.392381 -1.015203
H75   H     H_    0.289659 0.482152 0.389588 0.270610
H76   H     H_    0.323596 0.556616 0.412574 0.274552
H77   H     H_    0.313226 0.567893 0.371451 0.277635
O64   O     O_3   0.875452 0.541912 0.628653 -0.626806
C178  C     C_3   0.826475 0.483663 0.634745 0.170946
H78   H     H_    0.795670 0.498150 0.655894 0.172801
H79   H     H_    0.854308 0.430971 0.639970 0.124176
C179  C     C_3   0.772609 0.473181 0.608146 -0.342631
H80   H     H_    0.751448 0.526686 0.600325 0.261734
H81   H     H_    0.801046 0.447040 0.588470 0.265390
C180  C     C_3   0.708651 0.424889 0.617729 -1.017122
H82   H     H_    0.728652 0.371519 0.626243 0.274705
H83   H     H_    0.672660 0.415734 0.597567 0.281167
H84   H     H_    0.676135 0.451345 0.636150 0.271657
O65   O     O_3   0.464841 0.123989 0.372725 -0.618231
C181  C     C_3   0.526774 0.170215 0.370909 0.161490
H85   H     H_    0.518359 0.207076 0.351074 0.157313
H86   H     H_    0.578453 0.140301 0.365942 0.118950
C182  C     C_3   0.535032 0.216672 0.400104 -0.341874
H87   H     H_    0.480754 0.235819 0.408087 0.261238
H88   H     H_    0.559662 0.183134 0.418581 0.270370
C183  C     C_3   0.584074 0.282600 0.394519 -1.027087
H89   H     H_    0.638465 0.265094 0.386012 0.272614
H90   H     H_    0.591097 0.313188 0.416370 0.276572
H91   H     H_    0.558650 0.319690 0.377472 0.278178
O66   O     O_3   0.415152 0.899391 0.630196 -0.636298
C184  C     C_3   0.454821 0.833406 0.633495 0.177242
H92   H     H_    0.447871 0.814248 0.657696 0.204899
H93   H     H_    0.514921 0.839072 0.629637 0.106443
C185  C     C_3   0.424393 0.774702 0.612054 -0.343522
H94   H     H_    0.366071 0.765019 0.617591 0.230380
H95   H     H_    0.428507 0.792969 0.587677 0.276638
C186  C     C_3   0.466300 0.703377 0.615521 -0.999082
H96   H     H_    0.523593 0.710711 0.607744 0.264639
H97   H     H_    0.440393 0.660554 0.601179 0.280260
H98   H     H_    0.466195 0.685132 0.639976 0.278383
O67   O     O_3   0.897578 0.406257 0.365660 -0.631994
C187  C     C_3   0.832587 0.447931 0.363681 0.189995
H99   H     H_    0.812258 0.444005 0.339600 0.208874
H100  H     H_    0.840309 0.507372 0.368361 0.107742
C188  C     C_3   0.773908 0.417023 0.385232 -0.350447
H101  H     H_    0.761280 0.360080 0.378542 0.233606
H102  H     H_    0.793994 0.416846 0.409338 0.272211
C189  C     C_3   0.704372 0.462420 0.383721 -1.008483
H103  H     H_    0.714959 0.518454 0.392247 0.270734
H104  H     H_    0.661568 0.436990 0.398409 0.279749
H105  H     H_    0.684221 0.465696 0.359626 0.279826
O68   O     O_3   0.125065 0.451143 0.630417 -0.614120
C190  C     C_3   0.170312 0.513920 0.629501 0.158832
H106  H     H_    0.204132 0.513043 0.650520 0.158562
H107  H     H_    0.139420 0.566295 0.630416 0.113358
C191  C     C_3   0.220719 0.513157 0.601190 -0.334494
H108  H     H_    0.243383 0.457727 0.597783 0.259650
H109  H     H_    0.189081 0.527782 0.580407 0.270840
C192  C     C_3   0.283165 0.567550 0.604450 -1.025101
H110  H     H_    0.261661 0.623444 0.608061 0.270316
H111  H     H_    0.317115 0.567155 0.583184 0.278564
H112  H     H_    0.318207 0.552134 0.624185 0.275745
O69   O     O_3   0.019270 0.633691 0.969625 -0.580862
C193  C     C_3   0.095874 0.634052 0.965852 0.120551
H113  H     H_    0.109212 0.612567 0.942519 0.124102
H114  H     H_    0.125249 0.600583 0.983477 0.115298
C194  C     C_3   0.123410 0.712457 0.968500 -0.307672
H115  H     H_    0.092088 0.748254 0.952705 0.234363
H116  H     H_    0.114472 0.731996 0.992487 0.232391
C195  C     C_3   0.204341 0.718284 0.960560 -1.002272
H117  H     H_    0.237010 0.684564 0.976725 0.264371
H118  H     H_    0.222239 0.775900 0.962551 0.277833
H119  H     H_    0.214397 0.699843 0.936509 0.266280
O70   O     O_3   0.972567 0.372898 0.031302 -0.552486
C196  C     C_3   0.044018 0.345080 0.035029 0.130043
H120  H     H_    0.049555 0.325232 0.059167 0.132679
H121  H     H_    0.088184 0.386233 0.031624 0.042548
C197  C     C_3   0.057475 0.281420 0.012953 -0.337576
H122  H     H_    0.054359 0.300829 0.988689 0.269642
H123  H     H_    0.113399 0.260135 0.016778 0.151289
C198  C     C_3   0.002903 0.219522 0.017914 -0.775759
H124  H     H_    0.006633 0.198414 0.041905 0.241340
H125  H     H_    0.015284 0.174416 0.001705 0.225425
H126  H     H_    0.946493 0.238577 0.013506 0.286851
O71   O     O_3   0.376654 0.952306 0.970592 -0.557313
C199  C     C_3   0.343254 0.021937 0.970177 0.139714
H127  H     H_    0.326175 0.034081 0.946116 0.127664
H128  H     H_    0.379792 0.067773 0.977185 0.048367
C200  C     C_3   0.275925 0.022443 0.991194 -0.321591
H129  H     H_    0.292098 0.010082 0.015315 0.273840
H130  H     H_    0.251636 0.077870 0.990943 0.154618
C201  C     C_3   0.218361 0.967673 0.980789 -0.821489
H131  H     H_    0.197795 0.982724 0.957581 0.247728
H132  H     H_    0.171913 0.968027 0.997293 0.230117
H133  H     H_    0.241294 0.911773 0.980013 0.293390
O72   O     O_3   0.635805 0.017654 0.028836 -0.563633
C202  C     C_3   0.630312 0.094358 0.030796 0.133662
H134  H     H_    0.607824 0.108670 0.053875 0.119124
H135  H     H_    0.594695 0.119093 0.012669 0.119504
C203  C     C_3   0.706376 0.127395 0.027176 -0.319535
H136  H     H_    0.744330 0.100788 0.043620 0.231061
H137  H     H_    0.726690 0.117110 0.003370 0.235826
C204  C     C_3   0.705784 0.209377 0.032973 -0.990418
H138  H     H_    0.671435 0.237318 0.015512 0.268509
H139  H     H_    0.762191 0.231006 0.031273 0.276682
H140  H     H_    0.684323 0.221304 0.056434 0.260441
O73   O     O_3   0.942901 0.378598 0.969798 -0.590354
C205  C     C_3   0.868450 0.384665 0.961793 0.097783
H141  H     H_    0.864642 0.403422 0.937408 0.126533
H142  H     H_    0.837368 0.423448 0.976719 0.112988
C206  C     C_3   0.832550 0.309729 0.964949 -0.308937
H143  H     H_    0.864753 0.268508 0.952136 0.232713
H144  H     H_    0.831657 0.293696 0.989700 0.229306
C207  C     C_3   0.754778 0.309922 0.952597 -0.989544
H145  H     H_    0.720989 0.349919 0.965430 0.260650
H146  H     H_    0.730337 0.254912 0.955549 0.280917
H147  H     H_    0.754746 0.323982 0.927627 0.264235
O74   O     O_3   0.987579 0.637767 0.031280 -0.559388
C208  C     C_3   0.915042 0.663918 0.033357 0.133934
H148  H     H_    0.900939 0.670854 0.058156 0.122916
H149  H     H_    0.872899 0.626612 0.023495 0.049364
C209  C     C_3   0.908612 0.737455 0.016804 -0.325334
H150  H     H_    0.925153 0.731426 0.992243 0.262620
H151  H     H_    0.850736 0.755244 0.017300 0.157505
C210  C     C_3   0.955344 0.796097 0.031971 -0.832400
H152  H     H_    0.936895 0.805119 0.056102 0.248877
H153  H     H_    0.949823 0.848024 0.018978 0.231740
H154  H     H_    0.013672 0.780027 0.031911 0.287550
O75   O     O_3   0.640260 0.988124 0.967283 -0.554009
C211  C     C_3   0.665942 0.918973 0.957786 0.107472
H155  H     H_    0.698781 0.926569 0.936418 0.146169
H156  H     H_    0.621424 0.880500 0.951511 0.062836
C212  C     C_3   0.714104 0.883988 0.982612 -0.373752
H157  H     H_    0.682416 0.876661 0.004315 0.238682
H158  H     H_    0.731314 0.829162 0.974589 0.156596
C213  C     C_3   0.782098 0.929439 0.989099 -0.741611
H159  H     H_    0.815095 0.936043 0.967710 0.230024
H160  H     H_    0.815786 0.901557 0.006786 0.227409
H161  H     H_    0.766828 0.983972 0.997988 0.294024
O76   O     O_3   0.389989 0.917135 0.031947 -0.578662
C214  C     C_3   0.402965 0.842562 0.038532 0.124102
H162  H     H_    0.403093 0.834906 0.064005 0.124302
H163  H     H_    0.456422 0.821490 0.029887 0.055426
C215  C     C_3   0.342771 0.795686 0.024307 -0.337007
H164  H     H_    0.339515 0.807029 0.999116 0.251018
H165  H     H_    0.356736 0.737222 0.027404 0.158606
C216  C     C_3   0.268655 0.809713 0.039249 -0.836161
H166  H     H_    0.270625 0.796807 0.064306 0.249782
H167  H     H_    0.226859 0.774430 0.028365 0.247319
H168  H     H_    0.252430 0.867453 0.036035 0.290077
O77   O     O_3   0.568241 0.111705 0.468994 -0.580888
C217  C     C_3   0.645358 0.106439 0.469212 0.121826
H169  H     H_    0.665182 0.107957 0.444938 0.127163
H170  H     H_    0.667037 0.054820 0.479445 0.051388
C218  C     C_3   0.678239 0.170580 0.486940 -0.325394
H171  H     H_    0.656035 0.171355 0.510833 0.262951
H172  H     H_    0.738237 0.163244 0.488473 0.157579
C219  C     C_3   0.662679 0.243334 0.471128 -0.837261
H173  H     H_    0.687392 0.244270 0.447680 0.254330
H174  H     H_    0.686573 0.288450 0.484775 0.244041
H175  H     H_    0.603073 0.252477 0.469337 0.290625
O78   O     O_3   0.498233 0.858916 0.531935 -0.581014
C220  C     C_3   0.566482 0.834652 0.543018 0.080600
H176  H     H_    0.555608 0.791788 0.560596 0.165180
H177  H     H_    0.597340 0.878156 0.555102 0.105019
C221  C     C_3   0.612626 0.801282 0.517051 -0.311598
H178  H     H_    0.580606 0.758326 0.505141 0.255984
H179  H     H_    0.627343 0.844043 0.499899 0.218965
C222  C     C_3   0.682611 0.767999 0.529716 -1.015063
H180  H     H_    0.715368 0.810143 0.541757 0.258733
H181  H     H_    0.715554 0.745733 0.510392 0.265651
H182  H     H_    0.669697 0.723053 0.546103 0.276133
O79   O     O_3   0.863816 0.450909 0.470083 -0.565481
C223  C     C_3   0.833153 0.521125 0.466699 0.117514
H183  H     H_    0.848509 0.543206 0.443619 0.121006
H184  H     H_    0.851399 0.560539 0.484771 0.122120
C224  C     C_3   0.750232 0.514904 0.468917 -0.303238
H185  H     H_    0.730146 0.474615 0.451866 0.229394
H186  H     H_    0.734929 0.495262 0.492380 0.240065
C225  C     C_3   0.713581 0.588138 0.462919 -0.982718
H187  H     H_    0.731544 0.628778 0.480258 0.265933
H188  H     H_    0.653518 0.581762 0.464672 0.274948
H189  H     H_    0.727382 0.608344 0.439404 0.258131
O80   O     O_3   0.119419 0.522224 0.529165 -0.564089
C226  C     C_3   0.111336 0.599167 0.528972 0.118484
H190  H     H_    0.117266 0.619352 0.552996 0.122387
H191  H     H_    0.056940 0.618810 0.520923 0.055540
C227  C     C_3   0.169738 0.634641 0.508516 -0.313276
H192  H     H_    0.166034 0.613002 0.484671 0.280133
H193  H     H_    0.159381 0.694189 0.507401 0.152562
C228  C     C_3   0.246436 0.622059 0.520919 -0.816219
H194  H     H_    0.251952 0.646870 0.544148 0.246744
H195  H     H_    0.286818 0.648004 0.505183 0.238945
H196  H     H_    0.258420 0.562845 0.522349 0.291648
O81   O     O_3   0.472502 0.864295 0.470047 -0.563405
C229  C     C_3   0.396985 0.870457 0.464014 0.105542
H197  H     H_    0.386846 0.847058 0.440835 0.149185
H198  H     H_    0.376693 0.927733 0.463168 0.093693
C230  C     C_3   0.353395 0.826848 0.487947 -0.296723
H199  H     H_    0.373749 0.769861 0.488727 0.235715
H200  H     H_    0.360729 0.851508 0.511104 0.269571
C231  C     C_3   0.272347 0.826177 0.480257 -1.032895
H201  H     H_    0.251041 0.882717 0.478974 0.262406
H202  H     H_    0.242151 0.796468 0.498633 0.274900
H203  H     H_    0.262986 0.798372 0.457857 0.271393
O82   O     O_3   0.523399 0.123880 0.529685 -0.572541
C232  C     C_3   0.451798 0.152683 0.527918 0.131908
H204  H     H_    0.432463 0.164443 0.551731 0.120768
H205  H     H_    0.410566 0.114982 0.517637 0.060492
C233  C     C_3   0.451831 0.223276 0.508988 -0.313322
H206  H     H_    0.473470 0.212536 0.485467 0.270722
H207  H     H_    0.394820 0.242780 0.506524 0.161779
C234  C     C_3   0.496979 0.283026 0.524241 -0.843038
H208  H     H_    0.473036 0.297246 0.547016 0.251280
H209  H     H_    0.496942 0.332453 0.509395 0.236867
H210  H     H_    0.554225 0.265060 0.527430 0.291311
O83   O     O_3   0.128649 0.481382 0.468604 -0.591077
C235  C     C_3   0.148688 0.410699 0.458794 0.094262
H211  H     H_    0.129799 0.402595 0.434671 0.127879
H212  H     H_    0.125440 0.366413 0.473670 0.113181
C236  C     C_3   0.231690 0.403999 0.459742 -0.303270
H213  H     H_    0.256916 0.448570 0.446011 0.231302
H214  H     H_    0.250442 0.409333 0.484018 0.234731
C237  C     C_3   0.257157 0.330949 0.446891 -1.014269
H215  H     H_    0.234213 0.285374 0.460812 0.260408
H216  H     H_    0.317566 0.328017 0.447791 0.274999
H217  H     H_    0.239728 0.324966 0.422485 0.267100
O84   O     O_3   0.873592 0.421630 0.531749 -0.554389
C238  C     C_3   0.886782 0.348888 0.541384 0.140275
H218  H     H_    0.893626 0.347834 0.566882 0.119386
H219  H     H_    0.936875 0.324022 0.531095 0.055191
C239  C     C_3   0.822569 0.300151 0.532297 -0.345993
H220  H     H_    0.812605 0.305595 0.507093 0.245063
H221  H     H_    0.836758 0.242398 0.537168 0.158897
C240  C     C_3   0.753144 0.318904 0.550053 -0.840027
H222  H     H_    0.762104 0.311969 0.575226 0.253137
H223  H     H_    0.708468 0.281671 0.543038 0.241461
H224  H     H_    0.736289 0.375804 0.545063 0.288548
O85   O     O_3   0.392841 0.286865 0.732855 -0.610324
C241  C     C_3   0.436331 0.296169 0.759510 0.151247
H225  H     H_    0.492907 0.280146 0.753316 0.164255
H226  H     H_    0.419773 0.260827 0.779365 0.084242
C242  C     C_3   0.436620 0.376057 0.769411 -0.341033
H227  H     H_    0.451009 0.410887 0.749269 0.237587
H228  H     H_    0.381333 0.391580 0.777589 0.227801
C243  C     C_3   0.491414 0.388946 0.795296 -1.023898
H229  H     H_    0.478880 0.353154 0.815365 0.264932
H230  H     H_    0.488566 0.446482 0.803001 0.276226
H231  H     H_    0.547650 0.377611 0.787020 0.264402
O86   O     O_3   0.624838 0.725546 0.284828 -0.607947
C244  C     C_3   0.638881 0.752917 0.314885 0.166087
H232  H     H_    0.586517 0.773282 0.324360 0.189288
H233  H     H_    0.676978 0.800521 0.315020 0.115007
C245  C     C_3   0.667220 0.692740 0.336360 -0.370446
H234  H     H_    0.625458 0.649065 0.338548 0.227045
H235  H     H_    0.717683 0.668635 0.326667 0.259363
C246  C     C_3   0.685331 0.722524 0.368325 -0.983493
H236  H     H_    0.730533 0.762712 0.366667 0.259811
H237  H     H_    0.702667 0.677137 0.383627 0.262652
H238  H     H_    0.637260 0.749414 0.378816 0.299709
O87   O     O_3   0.753928 0.347693 0.701107 -0.622628
C247  C     C_3   0.702246 0.402838 0.708040 0.156685
H239  H     H_    0.718002 0.452237 0.694785 0.168819
H240  H     H_    0.702783 0.419129 0.732870 0.119783
C248  C     C_3   0.624978 0.380230 0.698446 -0.346835
H241  H     H_    0.626194 0.359160 0.674494 0.246651
H242  H     H_    0.604392 0.336559 0.713992 0.238522
C249  C     C_3   0.571992 0.443839 0.700280 -1.010205
H243  H     H_    0.569150 0.464359 0.724329 0.275924
H244  H     H_    0.516865 0.425227 0.693308 0.284458
H245  H     H_    0.589369 0.488539 0.684570 0.264334
O88   O     O_3   0.221200 0.672993 0.304035 -0.621294
C250  C     C_3   0.168397 0.714220 0.320330 0.117213
H246  H     H_    0.126050 0.675859 0.328840 0.195016
H247  H     H_    0.138831 0.755413 0.306007 0.085712
C251  C     C_3   0.204197 0.752146 0.347818 -0.314666
H248  H     H_    0.239192 0.712787 0.360362 0.230755
H249  H     H_    0.239262 0.797417 0.339330 0.235843
C252  C     C_3   0.147444 0.782768 0.370076 -0.986334
H250  H     H_    0.112062 0.822719 0.358008 0.260341
H251  H     H_    0.175345 0.810686 0.389451 0.260965
H252  H     H_    0.113209 0.738139 0.379727 0.299465
O89   O     O_3   0.617949 0.722285 0.719960 -0.608898
C253  C     C_3   0.563652 0.701126 0.741591 0.154994
H253  H     H_    0.511468 0.726323 0.734216 0.181176
H254  H     H_    0.573890 0.720244 0.765674 0.089983
C254  C     C_3   0.554171 0.618556 0.741433 -0.364774
H255  H     H_    0.543252 0.600333 0.717474 0.240382
H256  H     H_    0.605086 0.592142 0.749569 0.237502
C255  C     C_3   0.490953 0.595436 0.762279 -1.016421
H257  H     H_    0.502245 0.610552 0.786618 0.265198
H258  H     H_    0.483806 0.535628 0.760962 0.277450
H259  H     H_    0.439499 0.621790 0.754751 0.264435
O90   O     O_3   0.381037 0.279618 0.279496 -0.617478
C256  C     C_3   0.373851 0.261060 0.311188 0.176607
H260  H     H_    0.428606 0.245301 0.319338 0.163623
H261  H     H_    0.338095 0.212671 0.315399 0.113919
C257  C     C_3   0.347220 0.325961 0.330386 -0.356062
H262  H     H_    0.376395 0.376319 0.323101 0.253006
H263  H     H_    0.287913 0.333855 0.326641 0.239650
C258  C     C_3   0.359884 0.313369 0.364792 -0.991934
H264  H     H_    0.333279 0.261979 0.372500 0.276984
H265  H     H_    0.336628 0.359306 0.378160 0.270073
H266  H     H_    0.419145 0.310499 0.369560 0.273159
O91   O     O_3   0.239691 0.659449 0.698876 -0.622176
C259  C     C_3   0.290783 0.602430 0.703064 0.179909
H267  H     H_    0.266702 0.552875 0.692881 0.161661
H268  H     H_    0.301509 0.588614 0.727802 0.113881
C260  C     C_3   0.362588 0.619458 0.686396 -0.365196
H269  H     H_    0.350917 0.641097 0.662957 0.252786
H270  H     H_    0.393225 0.661526 0.699411 0.241422
C261  C     C_3   0.410035 0.551554 0.683650 -1.005964
H271  H     H_    0.421473 0.528564 0.706866 0.287831
H272  H     H_    0.462438 0.565827 0.672237 0.273182
H273  H     H_    0.382265 0.509479 0.669604 0.269195
O92   O     O_3   0.787638 0.315555 0.305419 -0.618332
C262  C     C_3   0.841873 0.269425 0.318107 0.113590
H274  H     H_    0.880591 0.304000 0.330964 0.214179
H275  H     H_    0.875726 0.240703 0.300426 0.079063
C263  C     C_3   0.807668 0.213826 0.340349 -0.302385
H276  H     H_    0.769384 0.241728 0.356299 0.231407
H277  H     H_    0.776544 0.172677 0.327013 0.226875
C264  C     C_3   0.865716 0.174661 0.359252 -1.004119
H278  H     H_    0.904232 0.145651 0.343753 0.264953
H279  H     H_    0.839273 0.134224 0.374804 0.262269
H280  H     H_    0.896350 0.214290 0.373573 0.279234
O93   O     O_3   0.344608 0.756860 0.300070 -0.632733
C265  C     C_3   0.403399 0.708034 0.295175 0.162097
H281  H     H_    0.450292 0.728667 0.308747 0.174704
H282  H     H_    0.422255 0.706514 0.270636 0.123656
C266  C     C_3   0.384411 0.630817 0.306307 -0.347263
H283  H     H_    0.353505 0.633736 0.328276 0.249839
H284  H     H_    0.349511 0.603436 0.288917 0.230667
C267  C     C_3   0.452656 0.585040 0.311392 -0.982553
H285  H     H_    0.483599 0.579664 0.289459 0.275720
H286  H     H_    0.436711 0.529897 0.319617 0.272496
H287  H     H_    0.488068 0.610428 0.329121 0.270533
O94   O     O_3   0.677061 0.219262 0.695621 -0.622744
C268  C     C_3   0.723723 0.172538 0.678658 0.123564
H288  H     H_    0.690464 0.125993 0.670502 0.200536
H289  H     H_    0.769155 0.147954 0.692334 0.082092
C269  C     C_3   0.755381 0.213578 0.650850 -0.312301
H290  H     H_    0.711507 0.244843 0.639330 0.232834
H291  H     H_    0.797430 0.252778 0.658826 0.234680
C270  C     C_3   0.789828 0.161707 0.627548 -1.001472
H292  H     H_    0.834514 0.130309 0.638539 0.260826
H293  H     H_    0.812662 0.193463 0.607889 0.260947
H294  H     H_    0.748258 0.123317 0.618489 0.301216
O95   O     O_3   0.715631 0.612215 0.273337 -0.604045
C271  C     C_3   0.698491 0.565427 0.248369 0.148084
H295  H     H_    0.740995 0.522499 0.247053 0.168974
H296  H     H_    0.696283 0.592871 0.225291 0.078947
C272  C     C_3   0.624819 0.529306 0.254570 -0.327228
H297  H     H_    0.622071 0.511615 0.279062 0.249625
H298  H     H_    0.580800 0.569663 0.250535 0.218758
C273  C     C_3   0.613011 0.463243 0.233803 -1.025271
H299  H     H_    0.615892 0.479576 0.209109 0.265767
H300  H     H_    0.558577 0.439117 0.238493 0.275487
H301  H     H_    0.654921 0.421079 0.238521 0.259641
O96   O     O_3   0.282860 0.383183 0.722734 -0.615086
C274  C     C_3   0.269089 0.376531 0.690638 0.168917
H302  H     H_    0.259556 0.432006 0.681678 0.155324
H303  H     H_    0.218530 0.344869 0.685540 0.126195
C275  C     C_3   0.334294 0.344002 0.673181 -0.349022
H304  H     H_    0.385660 0.369902 0.681165 0.259019
H305  H     H_    0.337122 0.284495 0.677715 0.235837
C276  C     C_3   0.327342 0.355416 0.638429 -0.998413
H306  H     H_    0.273894 0.334945 0.630106 0.278506
H307  H     H_    0.371332 0.325399 0.626321 0.265591
H308  H     H_    0.332835 0.414151 0.632800 0.271702
O97   O     O_3   0.659384 0.237732 0.301071 -0.625448
C277  C     C_3   0.602512 0.289081 0.296992 0.180097
H309  H     H_    0.552485 0.264999 0.307053 0.163645
H310  H     H_    0.589151 0.300595 0.272278 0.117190
C278  C     C_3   0.619766 0.360334 0.313737 -0.358074
H311  H     H_    0.642941 0.348083 0.336803 0.255139
H312  H     H_    0.661086 0.391570 0.300350 0.241838
C279  C     C_3   0.551487 0.406939 0.317599 -1.017942
H313  H     H_    0.526675 0.418802 0.294788 0.280803
H314  H     H_    0.565913 0.459191 0.328901 0.276553
H315  H     H_    0.510752 0.378264 0.332224 0.270737
O98   O     O_3   0.321312 0.784993 0.694999 -0.621231
C280  C     C_3   0.279330 0.840888 0.681128 0.115317
H316  H     H_    0.317317 0.877132 0.668454 0.211405
H317  H     H_    0.250567 0.876796 0.698032 0.077585
C281  C     C_3   0.224408 0.808446 0.658378 -0.307820
H318  H     H_    0.251597 0.766893 0.643760 0.234976
H319  H     H_    0.179664 0.781324 0.671418 0.224341
C282  C     C_3   0.191825 0.867144 0.637608 -1.000056
H320  H     H_    0.163716 0.909001 0.651743 0.268032
H321  H     H_    0.151588 0.842051 0.621751 0.263535
H322  H     H_    0.235263 0.893589 0.623553 0.283587
O99   O     O_3   0.284102 0.389298 0.271676 -0.608345
C283  C     C_3   0.300953 0.435793 0.246450 0.152819
H323  H     H_    0.269770 0.487091 0.249675 0.171037
H324  H     H_    0.285377 0.413817 0.223336 0.079447
C284  C     C_3   0.382352 0.453761 0.246549 -0.338265
H325  H     H_    0.398923 0.470576 0.270104 0.241106
H326  H     H_    0.413920 0.404388 0.240185 0.232924
C285  C     C_3   0.400117 0.515215 0.223877 -1.020257
H327  H     H_    0.385172 0.499072 0.200019 0.266485
H328  H     H_    0.459341 0.527333 0.224498 0.279657
H329  H     H_    0.369999 0.565493 0.230231 0.257722
O100  O     O_3   0.731812 0.629580 0.711899 -0.611787
C286  C     C_3   0.742507 0.654785 0.681166 0.162126
H330  H     H_    0.795142 0.632840 0.672534 0.169642
H331  H     H_    0.745506 0.715440 0.678704 0.113938
C287  C     C_3   0.680891 0.626729 0.660666 -0.316851
H332  H     H_    0.683585 0.566529 0.659536 0.197851
H333  H     H_    0.627266 0.641758 0.670727 0.255733
C288  C     C_3   0.686147 0.658387 0.628085 -0.988051
H334  H     H_    0.675296 0.717905 0.628544 0.263292
H335  H     H_    0.645038 0.631913 0.613048 0.268504
H336  H     H_    0.741232 0.649042 0.618173 0.278437
O101  O     O_3   0.887660 0.784166 0.226554 -0.603089
C289  C     C_3   0.933102 0.802837 0.251759 0.152980
H337  H     H_    0.974965 0.759609 0.254379 0.166297
H338  H     H_    0.904089 0.808036 0.274410 0.080066
C290  C     C_3   0.971141 0.875143 0.244743 -0.320279
H339  H     H_    0.990323 0.875305 0.220430 0.248108
H340  H     H_    0.931536 0.920382 0.247560 0.220144
C291  C     C_3   0.036115 0.887499 0.266068 -1.027205
H341  H     H_    0.018031 0.887714 0.290574 0.266710
H342  H     H_    0.061971 0.940756 0.260676 0.274514
H343  H     H_    0.077459 0.844033 0.262712 0.260650
O102  O     O_3   0.116626 0.217352 0.776956 -0.616438
C292  C     C_3   0.123162 0.229161 0.809192 0.169507
H344  H     H_    0.068002 0.240927 0.817989 0.153336
H345  H     H_    0.157052 0.277840 0.814967 0.121740
C293  C     C_3   0.151981 0.161447 0.826055 -0.344530
H346  H     H_    0.124761 0.111880 0.816964 0.256932
H347  H     H_    0.211634 0.156659 0.822183 0.238294
C294  C     C_3   0.138364 0.165848 0.860748 -1.005433
H348  H     H_    0.161809 0.216885 0.870263 0.278663
H349  H     H_    0.164303 0.118668 0.872386 0.271580
H350  H     H_    0.079005 0.164003 0.865580 0.270793
O103  O     O_3   0.260118 0.843720 0.199683 -0.630206
C295  C     C_3   0.209664 0.901123 0.204351 0.185764
H351  H     H_    0.235082 0.951464 0.195151 0.168410
H352  H     H_    0.197291 0.912506 0.229173 0.114369
C296  C     C_3   0.139008 0.886425 0.186798 -0.360837
H353  H     H_    0.152255 0.864510 0.163634 0.243377
H354  H     H_    0.106376 0.844921 0.199403 0.250140
C297  C     C_3   0.093694 0.955551 0.183182 -1.017058
H355  H     H_    0.080918 0.979290 0.206107 0.280963
H356  H     H_    0.041875 0.942424 0.171240 0.278100
H357  H     H_    0.123821 0.996455 0.169194 0.271600
O104  O     O_3   0.717197 0.176537 0.804791 -0.622415
C298  C     C_3   0.662140 0.217658 0.819702 0.115338
H358  H     H_    0.625622 0.178770 0.831768 0.207001
H359  H     H_    0.626314 0.248829 0.803558 0.080250
C299  C     C_3   0.695936 0.269423 0.843393 -0.310084
H360  H     H_    0.737194 0.239887 0.857324 0.234318
H361  H     H_    0.723716 0.314979 0.831143 0.226598
C300  C     C_3   0.638141 0.300805 0.864966 -0.997781
H362  H     H_    0.596194 0.330564 0.851496 0.266748
H363  H     H_    0.664086 0.339370 0.881308 0.262265
H364  H     H_    0.611607 0.256469 0.878469 0.287512
O105  O     O_3   0.110534 0.215812 0.228473 -0.609409
C301  C     C_3   0.063741 0.199413 0.253663 0.150973
H365  H     H_    0.011803 0.229151 0.249865 0.169120
H366  H     H_    0.084710 0.217055 0.276673 0.080911
C302  C     C_3   0.047631 0.117658 0.254406 -0.339847
H367  H     H_    0.031287 0.099336 0.231028 0.240831
H368  H     H_    0.097684 0.087616 0.261125 0.232447
C303  C     C_3   0.986465 0.099847 0.277221 -1.019661
H369  H     H_    0.002039 0.116894 0.300888 0.264865
H370  H     H_    0.975941 0.040310 0.277334 0.281244
H371  H     H_    0.935445 0.128119 0.270437 0.259212
O106  O     O_3   0.866200 0.765480 0.790471 -0.614686
C304  C     C_3   0.847263 0.730962 0.818736 0.166021
H372  H     H_    0.898700 0.713326 0.829633 0.202777
H373  H     H_    0.813828 0.680586 0.815629 0.111158
C305  C     C_3   0.808830 0.783828 0.840797 -0.361282
H374  H     H_    0.844751 0.831535 0.845132 0.234210
H375  H     H_    0.757341 0.803428 0.830333 0.248049
C306  C     C_3   0.789875 0.746993 0.871465 -0.996860
H376  H     H_    0.751286 0.701220 0.867636 0.260759
H377  H     H_    0.763718 0.787095 0.887116 0.257626
H378  H     H_    0.839549 0.725651 0.882815 0.307284
O107  O     O_3   0.741158 0.158352 0.199073 -0.632960
C307  C     C_3   0.791473 0.100502 0.203261 0.155472
H379  H     H_    0.772790 0.054507 0.188694 0.171334
H380  H     H_    0.792153 0.079245 0.227445 0.129260
C308  C     C_3   0.868966 0.122378 0.193255 -0.351516
H381  H     H_    0.867012 0.155459 0.171807 0.259032
H382  H     H_    0.894542 0.156006 0.211570 0.223956
C309  C     C_3   0.916551 0.055651 0.187510 -0.985926
H383  H     H_    0.920967 0.022479 0.208902 0.275772
H384  H     H_    0.971945 0.073478 0.180324 0.271272
H385  H     H_    0.893196 0.021680 0.168794 0.270674
O108  O     O_3   0.283612 0.819129 0.804961 -0.619436
C310  C     C_3   0.327994 0.769184 0.821361 0.104439
H386  H     H_    0.367055 0.801387 0.835121 0.215170
H387  H     H_    0.362333 0.734033 0.806117 0.083985
C311  C     C_3   0.281838 0.721683 0.843199 -0.309287
H388  H     H_    0.238216 0.755010 0.853997 0.246941
H389  H     H_    0.255649 0.677283 0.829832 0.230228
C312  C     C_3   0.328025 0.687464 0.868599 -1.023837
H390  H     H_    0.372720 0.654585 0.858365 0.266533
H391  H     H_    0.293366 0.651369 0.883150 0.264598
H392  H     H_    0.351574 0.730521 0.883518 0.284495
O109  O     O_3   0.842096 0.258796 0.800675 -0.621923
C313  C     C_3   0.898884 0.207638 0.796050 0.177387
H393  H     H_    0.947537 0.229321 0.807832 0.159314
H394  H     H_    0.914907 0.200991 0.771293 0.117072
C314  C     C_3   0.879630 0.133477 0.810274 -0.365496
H395  H     H_    0.854909 0.141721 0.833433 0.254725
H396  H     H_    0.839413 0.105055 0.795447 0.236176
C315  C     C_3   0.946889 0.085263 0.813362 -1.001947
H397  H     H_    0.972673 0.076551 0.790438 0.285637
H398  H     H_    0.930850 0.031684 0.823240 0.277050
H399  H     H_    0.987260 0.110775 0.828977 0.269289
O110  O     O_3   0.174089 0.721459 0.195779 -0.624101
C316  C     C_3   0.216735 0.671876 0.178397 0.126004
H400  H     H_    0.180105 0.627526 0.170592 0.196412
H401  H     H_    0.261305 0.644582 0.191652 0.081252
C317  C     C_3   0.249245 0.710826 0.150221 -0.306478
H402  H     H_    0.206577 0.744207 0.138923 0.227350
H403  H     H_    0.293703 0.747805 0.157727 0.237005
C318  C     C_3   0.279935 0.656893 0.126841 -0.999485
H404  H     H_    0.323157 0.623127 0.137629 0.259913
H405  H     H_    0.303822 0.687124 0.106975 0.259840
H406  H     H_    0.235950 0.620867 0.118137 0.298466
O111  O     O_3   0.212875 0.107181 0.766501 -0.611452
C319  C     C_3   0.202049 0.065666 0.739385 0.146303
H407  H     H_    0.213141 0.007756 0.745273 0.159254
H408  H     H_    0.240311 0.080288 0.720248 0.088371
C320  C     C_3   0.123151 0.071970 0.728358 -0.335996
H409  H     H_    0.085627 0.057619 0.747645 0.236852
H410  H     H_    0.111955 0.128988 0.721139 0.227541
C321  C     C_3   0.109051 0.021510 0.701058 -1.033338
H411  H     H_    0.147360 0.034078 0.681836 0.266105
H412  H     H_    0.052558 0.029337 0.692604 0.277705
H413  H     H_    0.115904 0.963706 0.708168 0.265589
O112  O     O_3   0.775204 0.876291 0.215746 -0.608578
C322  C     C_3   0.749048 0.864607 0.185320 0.173630
H414  H     H_    0.729690 0.917846 0.176333 0.189019
H415  H     H_    0.701111 0.827016 0.184371 0.113507
C323  C     C_3   0.809893 0.837218 0.163941 -0.372885
H416  H     H_    0.854676 0.878063 0.163076 0.230284
H417  H     H_    0.832102 0.785122 0.172856 0.256944
C324  C     C_3   0.781672 0.823599 0.131325 -0.989684
H418  H     H_    0.739400 0.780194 0.131673 0.258421
H419  H     H_    0.827251 0.805666 0.116245 0.260024
H420  H     H_    0.757850 0.873896 0.121400 0.302605
O113  O     O_3   0.152910 0.745154 0.799084 -0.626124
C325  C     C_3   0.099251 0.798942 0.793101 0.145416
H421  H     H_    0.050068 0.784242 0.806777 0.170771
H422  H     H_    0.081593 0.799794 0.768449 0.121138
C326  C     C_3   0.125147 0.875063 0.802955 -0.352293
H423  H     H_    0.150952 0.871756 0.826031 0.250321
H424  H     H_    0.166168 0.896040 0.786223 0.233723
C327  C     C_3   0.062405 0.929185 0.804128 -0.999735
H425  H     H_    0.039002 0.936028 0.780725 0.273471
H426  H     H_    0.082915 0.982818 0.812104 0.281380
H427  H     H_    0.019408 0.910134 0.820394 0.273668
O114  O     O_3   0.819435 0.285926 0.194912 -0.618857
C328  C     C_3   0.775910 0.341611 0.181741 0.114513
H428  H     H_    0.812768 0.380287 0.169798 0.211014
H429  H     H_    0.745492 0.375058 0.199015 0.082731
C329  C     C_3   0.722680 0.309313 0.158283 -0.304469
H430  H     H_    0.752533 0.273271 0.142070 0.232901
H431  H     H_    0.680883 0.276189 0.170558 0.229472
C330  C     C_3   0.684458 0.368964 0.139890 -0.994558
H432  H     H_    0.653537 0.405335 0.155642 0.260901
H433  H     H_    0.645816 0.343841 0.123345 0.263301
H434  H     H_    0.724971 0.401653 0.126672 0.280330
O115  O     O_3   0.776903 0.880172 0.780871 -0.604336
C331  C     C_3   0.802005 0.932025 0.758957 0.166644
H435  H     H_    0.783440 0.986578 0.766770 0.172464
H436  H     H_    0.779184 0.924183 0.735311 0.088597
C332  C     C_3   0.885160 0.932157 0.757597 -0.350336
H437  H     H_    0.906823 0.941582 0.781148 0.245672
H438  H     H_    0.905003 0.878453 0.749347 0.235530
C333  C     C_3   0.913237 0.991502 0.735865 -1.032091
H439  H     H_    0.893760 0.981636 0.711979 0.267584
H440  H     H_    0.973571 0.990847 0.735779 0.280585
H441  H     H_    0.894466 0.046001 0.743606 0.268844
O116  O     O_3   0.220534 0.119358 0.220256 -0.617519
C334  C     C_3   0.239680 0.127384 0.188657 0.174168
H442  H     H_    0.253971 0.072609 0.180061 0.161734
H443  H     H_    0.289171 0.161865 0.184878 0.116434
C335  C     C_3   0.175910 0.156833 0.169518 -0.356517
H444  H     H_    0.124482 0.129133 0.176486 0.254517
H445  H     H_    0.169912 0.216214 0.173653 0.236726
C336  C     C_3   0.188608 0.144977 0.135070 -0.987559
H446  H     H_    0.241131 0.169865 0.127707 0.278050
H447  H     H_    0.143848 0.170499 0.121743 0.265852
H448  H     H_    0.189327 0.085841 0.129895 0.272450
O117  O     O_3   0.063077 0.395372 0.934860 -0.556736
C337  C     C_3   0.134357 0.421197 0.939970 -0.331119
H449  H     H_    0.134162 0.470873 0.954627 0.130890
H450  H     H_    0.163351 0.432040 0.917785 0.171658
H451  H     H_    0.165234 0.378565 0.952531 0.175461
O118  O     O_3   0.092597 0.585308 0.066285 -0.544666
C338  C     C_3   0.155269 0.541821 0.062986 -0.322097
H452  H     H_    0.144483 0.494953 0.047497 0.132041
H453  H     H_    0.176013 0.522384 0.085698 0.162375
H454  H     H_    0.198831 0.575280 0.052130 0.184983
O119  O     O_3   0.576414 0.090663 0.934971 -0.548920
C339  C     C_3   0.529394 0.150997 0.937169 -0.324420
H455  H     H_    0.477638 0.136161 0.949120 0.127356
H456  H     H_    0.517902 0.174760 0.914014 0.175209
H457  H     H_    0.556575 0.193658 0.951129 0.182410
O120  O     O_3   0.395093 0.044955 0.063189 -0.568333
C340  C     C_3   0.415538 0.117651 0.057171 -0.342216
H458  H     H_    0.466126 0.120410 0.042979 0.132916
H459  H     H_    0.422419 0.148941 0.078963 0.175283
H460  H     H_    0.371490 0.144073 0.043727 0.176415
O121  O     O_3   0.914634 0.614163 0.929508 -0.545715
C341  C     C_3   0.840851 0.592897 0.929046 -0.335523
H461  H     H_    0.831790 0.542754 0.943050 0.132966
H462  H     H_    0.821165 0.584797 0.904999 0.171633
H463  H     H_    0.807779 0.637019 0.939486 0.183377
O122  O     O_3   0.879560 0.427100 0.070988 -0.539849
C342  C     C_3   0.819307 0.474544 0.071136 -0.306330
H464  H     H_    0.830043 0.523667 0.056713 0.128783
H465  H     H_    0.804102 0.490772 0.095062 0.157085
H466  H     H_    0.771958 0.445621 0.061030 0.185655
O123  O     O_3   0.432152 0.868991 0.928062 -0.548143
C343  C     C_3   0.472272 0.806535 0.919843 -0.320323
H467  H     H_    0.529520 0.810263 0.927996 0.129313
H468  H     H_    0.471104 0.796879 0.894505 0.184541
H469  H     H_    0.446992 0.758491 0.931241 0.181218
O124  O     O_3   0.626636 0.919355 0.072089 -0.531976
C344  C     C_3   0.618428 0.843765 0.076659 -0.335370
H470  H     H_    0.568345 0.823023 0.065191 0.128157
H471  H     H_    0.617716 0.829580 0.101672 0.176761
H472  H     H_    0.665792 0.815766 0.066051 0.183643
O125  O     O_3   0.576195 0.876608 0.429105 -0.537608
C345  C     C_3   0.651751 0.889932 0.427638 -0.331519
H473  H     H_    0.666603 0.940295 0.440459 0.131362
H474  H     H_    0.671141 0.893393 0.403282 0.173450
H475  H     H_    0.680415 0.843664 0.438760 0.189205
O126  O     O_3   0.617912 0.072156 0.569709 -0.553444
C346  C     C_3   0.676890 0.023646 0.566742 -0.340457
H476  H     H_    0.666555 0.983753 0.548034 0.146642
H477  H     H_    0.689461 0.995161 0.588856 0.157194
H478  H     H_    0.725973 0.055440 0.560055 0.182631
O127  O     O_3   0.067246 0.589454 0.436095 -0.561996
C347  C     C_3   0.015765 0.644651 0.441850 -0.342148
H479  H     H_    0.969365 0.623896 0.455984 0.134486
H480  H     H_    0.995621 0.669160 0.419932 0.170935
H481  H     H_    0.042669 0.688499 0.455232 0.179122
O128  O     O_3   0.884593 0.547066 0.564927 -0.554913
C348  C     C_3   0.896379 0.622913 0.563801 -0.317376
H482  H     H_    0.950569 0.636331 0.553653 0.124198
H483  H     H_    0.890771 0.647833 0.587066 0.189412
H484  H     H_    0.854309 0.647631 0.548727 0.182331
O129  O     O_3   0.445736 0.105672 0.435923 -0.568881
C349  C     C_3   0.369541 0.098909 0.433092 -0.336482
H485  H     H_    0.350388 0.043735 0.440112 0.131084
H486  H     H_    0.351310 0.111649 0.409225 0.200145
H487  H     H_    0.343431 0.138872 0.448778 0.177354
O130  O     O_3   0.399894 0.920309 0.567446 -0.553511
C350  C     C_3   0.339809 0.967622 0.565037 -0.328709
H488  H     H_    0.354026 0.017356 0.551528 0.134005
H489  H     H_    0.318331 0.982773 0.588220 0.170138
H490  H     H_    0.295567 0.939004 0.552549 0.185499
O131  O     O_3   0.919713 0.369913 0.426568 -0.535504
C351  C     C_3   0.967983 0.310323 0.426296 -0.300272
H491  H     H_    0.014774 0.319812 0.442037 0.129468
H492  H     H_    0.987800 0.298247 0.402517 0.154503
H493  H     H_    0.938365 0.261450 0.434804 0.181836
O132  O     O_3   0.109263 0.409800 0.569554 -0.549894
C352  C     C_3   0.097574 0.335281 0.575774 -0.312819
H494  H     H_    0.043013 0.317149 0.567646 0.121879
H495  H     H_    0.104065 0.322941 0.600783 0.185146
H496  H     H_    0.139109 0.303297 0.563036 0.179964

loop_
_geom_bond_atom_site_label_1
_geom_bond_atom_site_label_2
_ccdc_geom_bond_type
O33   Zn11  S    
C212  H157  S    
C296  H354  S    
C184  H92   S    
O119  C339  S    
C338  H453  S    
C301  C302  S    
C316  H401  S    
C306  H376  S    
C247  C248  S    
C81   O21   A    
C250  H246  S    
C262  C263  S    
C263  C264  S    
C351  H492  S    
C110  C135  A    
C278  H311  S    
O61   C169  S    
O45   Zn7   S    
C216  H168  S    
C282  H321  S    
C239  C240  S    
C324  H418  S    
O115  C331  S    
C317  C318  S    
C295  H352  S    
O120  C340  S    
C319  H408  S    
C245  H235  S    
C64   O84   S    
C259  H267  S    
C213  H160  S    
C260  H270  S    
C21   C33   A    
C155  H25   S    
C22   C38   A    
C288  H336  S    
O114  C328  S    
C243  H230  S    
C94   O34   A    
C198  H126  S    
O107  C307  S    
O87   C247  S    
C147  H5    S    
C3    O55   S    
C311  H388  S    
O3    Zn3   S    
C222  H180  S    
C171  H62   S    
C231  H201  S    
C240  H223  S    
O34   Zn12  S    
C153  H20   S    
C267  H287  S    
C99   C138  A    
C342  H466  S    
C97   C140  A    
C313  C314  S    
C259  C260  S    
O2    Zn11  S    
O1    Zn16  S    
C73   O5    A    
C155  C156  S    
C307  H380  S    
C196  H121  S    
O127  C347  S    
C254  H256  S    
C274  C275  S    
C300  H362  S    
O132  C352  S    
C102  C111  A    
C128  O116  S    
C7    O59   S    
C187  H100  S    
C327  H425  S    
C266  H284  S    
C266  H283  S    
C202  C203  S    
C169  H58   S    
C294  H349  S    
C264  H280  S    
C50   C53   A    
C177  H75   S    
O63   C175  S    
C305  C306  S    
C190  H106  S    
C14   C46   A    
C328  C329  S    
C96   O38   A    
C178  H79   S    
C341  H461  S    
C120  C125  A    
O4    Zn4   S    
C242  C243  S    
C333  H440  S    
C20   C28   A    
C261  H273  S    
C29   O121  S    
C225  H187  S    
C206  H143  S    
C85   O25   A    
C173  H66   S    
C339  H456  S    
C280  C281  S    
C208  H148  S    
C235  C236  S    
C304  H372  S    
C84   O24   A    
C246  H238  S    
O9    Zn12  S    
C280  H316  S    
C251  H249  S    
C270  H292  S    
O89   C253  S    
O91   C259  S    
C258  H266  S    
C87   O27   A    
C183  H89   S    
C162  H42   S    
C270  H294  S    
C181  H85   S    
C2    C26   A    
O13   Zn8   S    
C175  C176  S    
C290  C291  S    
C163  H43   S    
O27   Zn10  S    
C289  H338  S    
C15   C39   A    
C193  H113  S    
O4    Zn9   S    
C16   C40   A    
C1    C41   A    
C6    C30   A    
C107  O95   S    
C324  H420  S    
C349  H486  S    
C160  H37   S    
C6    O58   S    
O69   C193  S    
C337  H450  S    
C350  H490  S    
O22   Zn11  S    
C277  H310  S    
C262  H274  S    
C253  C254  S    
C283  H324  S    
C111  O99   S    
C343  H467  S    
C251  C252  S    
C59   O79   S    
C154  C155  S    
C291  H343  S    
C298  H359  S    
C239  H220  S    
O106  C304  S    
C165  H49   S    
C52   O72   S    
O12   Zn13  S    
O130  C350  S    
O24   Zn13  S    
C103  O91   S    
O38   Zn3   S    
C122  C137  A    
C195  H118  S    
O98   C280  S    
C330  H434  S    
C331  H436  S    
C318  H406  S    
C90   C140  S    
C322  H415  S    
O16   Zn1   S    
C85   O47   A    
C349  H487  S    
C10   O62   S    
C194  H115  S    
C90   O30   A    
C126  C141  A    
C86   O48   A    
C119  C136  A    
C287  C288  S    
C293  C294  S    
C120  C135  A    
C17   C25   A    
O86   C244  S    
C34   O126  S    
C277  C278  S    
O3    Zn7   S    
O92   C262  S    
C94   C144  S    
C330  H433  S    
C54   O74   S    
C256  H260  S    
C209  H150  S    
C165  H48   S    
C93   O39   A    
O46   Zn8   S    
C228  H194  S    
C113  C124  A    
C325  H422  S    
O11   Zn14  S    
C231  H203  S    
C127  O115  S    
C123  C140  A    
C249  H244  S    
C11   C35   A    
O78   C220  S    
C334  C335  S    
C11   O63   S    
C150  H14   S    
C221  C222  S    
O112  C322  S    
C117  C128  A    
C160  C161  S    
C344  H471  S    
C100  C137  A    
C178  H78   S    
C119  C126  A    
C75   O11   A    
C311  C312  S    
O82   C232  S    
C188  H102  S    
C249  H243  S    
C6    C42   A    
C300  H364  S    
C104  C141  A    
O47   Zn5   S    
C178  C179  S    
C310  H387  S    
O68   C190  S    
C326  H423  S    
C187  C188  S    
C279  H314  S    
C299  C300  S    
C192  H111  S    
C273  H301  S    
C43   C73   S    
C13   C45   A    
O35   Zn9   S    
C56   O76   S    
C345  H473  S    
C243  H231  S    
C21   C66   S    
C278  C279  S    
C124  C139  A    
C227  H193  S    
O95   C271  S    
C50   O70   S    
O5    Zn16  S    
C196  H120  S    
C57   C66   A    
C261  H271  S    
O123  C343  S    
C148  C149  S    
O2    Zn15  S    
O97   C277  S    
C272  H298  S    
C62   O82   S    
O85   C241  S    
C293  H346  S    
C101  C112  A    
C97   O85   S    
C212  H158  S    
C61   O81   S    
C24   C36   A    
C273  H300  S    
C103  C110  A    
O41   Zn8   S    
C173  H67   S    
C199  H127  S    
C166  H51   S    
C233  H207  S    
C301  H365  S    
C304  C305  S    
C326  H424  S    
C96   C138  S    
C237  H215  S    
C285  H328  S    
C172  H65   S    
C125  O113  S    
C258  H264  S    
C183  H91   S    
C223  H183  S    
C74   O10   A    
O57   C157  S    
C278  H312  S    
O122  C342  S    
C313  H394  S    
C24   C67   S    
C122  O110  S    
C32   O124  S    
O15   Zn2   S    
O50   Zn4   S    
C342  H464  S    
C60   C67   A    
C84   O50   A    
C211  H155  S    
C314  H396  S    
C179  H80   S    
C206  H144  S    
C200  H130  S    
C7    C43   A    
C221  H179  S    
O3    Zn14  S    
O10   Zn11  S    
C222  H181  S    
C343  H469  S    
C220  H176  S    
C210  H154  S    
C314  C315  S    
C18   C69   S    
O126  C346  S    
C226  C227  S    
C340  H459  S    
C302  H367  S    
C164  C165  S    
O14   Zn7   S    
C168  H55   S    
C335  C336  S    
O125  C345  S    
C38   O130  S    
C5    O57   S    
C185  H94   S    
C259  H268  S    
C148  H8    S    
C201  H132  S    
C115  C132  A    
C180  H83   S    
C22   C34   A    
C194  C195  S    
C309  H384  S    
C95   C137  S    
C106  O94   S    
C113  C130  A    
O43   Zn2   S    
C91   O31   A    
C209  C210  S    
C193  H114  S    
C44   C74   S    
C236  C237  S    
C116  O104  S    
C197  H122  S    
C237  H217  S    
C117  O105  S    
C256  C257  S    
O131  C351  S    
C176  H74   S    
C93   O33   A    
O64   C178  S    
C95   O37   A    
C190  C191  S    
C263  H277  S    
C258  H265  S    
C146  H3    S    
C83   O23   A    
C174  H68   S    
C53   O73   S    
O74   C208  S    
C189  H105  S    
C305  H375  S    
O2    Zn2   S    
C208  C209  S    
C297  H356  S    
C22   C65   S    
O103  C295  S    
C109  O97   S    
C81   O51   A    
C201  H133  S    
C290  H340  S    
C58   C65   A    
C181  H86   S    
O83   C235  S    
C186  H96   S    
O59   C163  S    
C188  C189  S    
C214  C215  S    
C2    O54   S    
C218  H171  S    
C228  H195  S    
C317  H402  S    
C20   C71   S    
O58   C160  S    
C308  H382  S    
O118  C338  S    
C299  H361  S    
C352  H495  S    
C283  C284  S    
C114  C123  A    
C257  C258  S    
C159  H34   S    
C284  H326  S    
C253  H253  S    
C182  C183  S    
C179  H81   S    
C320  H410  S    
O72   C202  S    
C186  H98   S    
C220  C221  S    
C250  C251  S    
C297  H357  S    
C118  C127  A    
C27   O119  S    
C226  H190  S    
C191  H108  S    
O71   C199  S    
C196  C197  S    
C329  H430  S    
O4    Zn8   S    
C181  C182  S    
C98   O86   S    
C26   O118  S    
C20   C32   A    
C348  H484  S    
C86   C136  S    
C268  H288  S    
C99   C106  A    
C16   O68   S    
O56   C154  S    
C261  H272  S    
O40   Zn5   S    
O17   Zn4   S    
C86   O26   A    
C199  C200  S    
O70   C196  S    
C262  H275  S    
C215  C216  S    
C12   O64   S    
C156  H28   S    
C294  H348  S    
C52   C55   A    
C111  C134  A    
C78   O18   A    
C203  C204  S    
C252  H252  S    
C179  C180  S    
C247  H239  S    
C42   C76   S    
C223  C224  S    
C98   C139  A    
C292  C293  S    
C87   C129  S    
C3    C27   A    
C157  H29   S    
C159  H33   S    
O2    Zn6   S    
O4    Zn13  S    
C286  C287  S    
C46   C80   S    
C213  H161  S    
C321  H411  S    
C2    C42   A    
C211  C212  S    
O31   Zn13  S    
C148  H9    S    
C293  H347  S    
O42   Zn7   S    
C222  H182  S    
C318  H405  S    
C327  H427  S    
O109  C313  S    
C238  C239  S    
C276  H308  S    
C238  H219  S    
C229  H197  S    
C346  H476  S    
C157  C158  S    
C15   O67   S    
C161  H39   S    
C323  H416  S    
C4    C28   A    
C230  C231  S    
C234  H208  S    
C214  H162  S    
C245  C246  S    
C335  H444  S    
C255  H259  S    
C99   O87   S    
C160  H36   S    
C325  C326  S    
C147  H7    S    
C31   O123  S    
O51   Zn1   S    
C241  C242  S    
C103  C142  A    
C9    C45   A    
C158  H31   S    
C17   C29   A    
O121  C341  S    
C175  H71   S    
C191  H109  S    
C11   C47   A    
C236  H213  S    
C18   C26   A    
C303  H371  S    
C89   O29   A    
C12   C48   A    
C332  C333  S    
C19   C31   A    
O54   C148  S    
C336  H448  S    
O113  C325  S    
C255  H258  S    
C205  H141  S    
C330  H432  S    
C274  H303  S    
O53   C145  S    
C92   O32   A    
C146  C147  S    
C88   O46   A    
C264  H279  S    
C84   C134  S    
C252  H250  S    
C177  H76   S    
C25   O117  S    
C271  H295  S    
C152  H17   S    
C328  H429  S    
C101  O89   S    
C105  O93   S    
C167  H52   S    
C101  C144  A    
C242  H228  S    
C115  O103  S    
C203  H136  S    
C76   O8    A    
C225  H188  S    
C188  H101  S    
C347  H480  S    
C352  H496  S    
C221  H178  S    
C28   O120  S    
C81   C131  S    
C298  H358  S    
O60   C166  S    
C316  H400  S    
C280  H317  S    
C346  H478  S    
C161  C162  S    
C255  H257  S    
C235  H211  S    
C345  H475  S    
C13   O65   S    
C241  H225  S    
C269  C270  S    
C248  H242  S    
O67   C187  S    
C197  C198  S    
C315  H397  S    
C244  H233  S    
C177  H77   S    
C183  H90   S    
O100  C286  S    
O55   C151  S    
C270  H293  S    
C102  O90   S    
C15   C47   A    
C268  H289  S    
C58   C61   A    
C283  H323  S    
C82   O52   A    
C329  C330  S    
C317  H403  S    
C294  H350  S    
C225  H189  S    
C276  H307  S    
C91   O41   A    
C296  C297  S    
O75   C211  S    
C324  H419  S    
C232  H204  S    
C338  H454  S    
C9    C33   A    
C89   O43   A    
C265  C266  S    
O124  C344  S    
O29   Zn15  S    
C94   O40   A    
C193  C194  S    
C107  C130  A    
C53   C70   A    
C219  H175  S    
C202  H135  S    
C219  H174  S    
C351  H491  S    
C343  H468  S    
C292  H345  S    
C275  H304  S    
C105  C132  A    
C311  H389  S    
C154  H23   S    
C182  H87   S    
C77   O17   A    
C106  C131  A    
C282  H322  S    
C239  H221  S    
C58   O78   S    
C310  H386  S    
C153  H21   S    
C342  H465  S    
C119  O107  S    
C57   C62   A    
C319  H407  S    
C167  C168  S    
O52   Zn2   S    
C204  H138  S    
C116  C121  A    
C92   O42   A    
C286  H330  S    
C246  H237  S    
C213  H159  S    
C149  C150  S    
C344  H472  S    
C4    C44   A    
C191  C192  S    
C155  H24   S    
C348  H482  S    
O25   Zn16  S    
O18   Zn3   S    
C76   O12   A    
C98   C107  A    
O99   C283  S    
C243  H229  S    
C235  H212  S    
O3    Zn10  S    
C238  H218  S    
C279  H315  S    
C118  O106  S    
O77   C217  S    
C158  C159  S    
C274  H302  S    
C309  H385  S    
C224  H185  S    
C56   C71   A    
C37   O129  S    
C153  H19   S    
C59   C64   A    
C150  H13   S    
C57   O77   S    
C282  H320  S    
C195  H117  S    
C80   O16   A    
C4    O56   S    
O104  C298  S    
C301  H366  S    
C40   O132  S    
C39   O131  S    
C307  H379  S    
C254  C255  S    
C23   C35   A    
C49   C70   A    
C173  C174  S    
C300  H363  S    
C1    O53   S    
C114  C129  A    
C216  H167  S    
O84   C238  S    
C82   C132  S    
C332  H437  S    
C302  H368  S    
C272  H297  S    
C266  C267  S    
C165  H47   S    
C204  H140  S    
C33   O125  S    
C192  H110  S    
C82   O22   A    
C224  C225  S    
C285  H329  S    
O28   Zn9   S    
C327  H426  S    
C345  H474  S    
O80   C226  S    
C306  H377  S    
O88   C250  S    
O39   Zn6   S    
O105  C301  S    
C9    O61   S    
C271  C272  S    
C55   O75   S    
O23   Zn14  S    
C247  H240  S    
C260  C261  S    
C228  H196  S    
C275  H305  S    
C334  H442  S    
C151  C152  S    
C175  H72   S    
C113  O101  S    
C333  H439  S    
C244  H232  S    
C249  H245  S    
C36   O128  S    
C187  H99   S    
C30   O122  S    
C207  H147  S    
C63   O83   S    
C147  H6    S    
O6    Zn15  S    
C310  C311  S    
C199  H128  S    
C176  H73   S    
C304  H373  S    
C52   C71   A    
O49   Zn3   S    
O117  C337  S    
C305  H374  S    
C237  H216  S    
C172  H64   S    
C156  H26   S    
C54   C69   A    
O44   Zn1   S    
C315  H399  S    
C271  H296  S    
C203  H137  S    
C223  H184  S    
C227  H192  S    
C145  H2    S    
C127  C144  A    
C145  C146  S    
C289  H337  S    
C128  C143  A    
C189  H104  S    
C275  C276  S    
C312  H391  S    
O116  C334  S    
C295  H351  S    
C318  H404  S    
C233  C234  S    
C21   C37   A    
O128  C348  S    
C171  H63   S    
C211  H156  S    
C314  H395  S    
C325  H421  S    
C232  C233  S    
C338  H452  S    
C337  H449  S    
C277  H309  S    
O93   C265  S    
C351  H493  S    
C49   C54   A    
C209  H151  S    
C83   O49   A    
C346  H477  S    
C298  C299  S    
C167  H53   S    
C320  H409  S    
C226  H191  S    
O19   Zn6   S    
C340  H458  S    
C88   O28   A    
C234  H209  S    
C168  H54   S    
C252  H251  S    
C251  H248  S    
C322  H414  S    
C195  H119  S    
C88   C130  S    
C112  C133  A    
C350  H488  S    
C331  H435  S    
C16   C48   A    
C333  H441  S    
C185  H95   S    
C231  H202  S    
C322  C323  S    
C257  H262  S    
C260  H269  S    
C220  H177  S    
C8    O60   S    
C180  H82   S    
C151  H15   S    
C194  H116  S    
C169  C170  S    
C3    C43   A    
C100  C105  A    
O101  C289  S    
C90   O44   A    
C170  H59   S    
C60   C63   A    
O30   Zn16  S    
C80   O20   A    
C162  H41   S    
C50   C69   A    
C163  H44   S    
C292  H344  S    
C156  H27   S    
C350  H489  S    
C250  H247  S    
C104  C109  A    
C215  H165  S    
C149  H11   S    
C190  H107  S    
C14   C38   A    
C273  H299  S    
O79   C223  S    
C151  H16   S    
C291  H341  S    
C289  C290  S    
C51   C56   A    
C352  H494  S    
C48   C78   S    
C303  H369  S    
C208  H149  S    
C49   O69   S    
O96   C274  S    
O102  C292  S    
C218  H172  S    
C189  H103  S    
C97   C108  A    
C61   C66   A    
C307  C308  S    
O26   Zn15  S    
O111  C319  S    
O32   Zn14  S    
C281  H318  S    
C89   C139  S    
C337  H451  S    
C108  O96   S    
C10   C46   A    
C267  H285  S    
C14   O66   S    
C18   C30   A    
C83   C133  S    
C12   C36   A    
C19   C27   A    
O81   C229  S    
C13   C37   A    
C55   C72   A    
C93   C143  S    
C87   O45   A    
C192  H112  S    
C240  H224  S    
C166  H50   S    
C198  H125  S    
C174  H70   S    
C17   C70   S    
C182  H88   S    
C115  C122  A    
C104  O92   S    
C109  C136  A    
C1    C25   A    
C186  H97   S    
C19   C72   S    
C287  H332  S    
C210  H153  S    
C265  H281  S    
C281  H319  S    
C276  H306  S    
C163  C164  S    
C336  H447  S    
C47   C77   S    
C124  O112  S    
O108  C310  S    
C272  C273  S    
C5    C29   A    
C348  H483  S    
C121  O109  S    
C344  H470  S    
C212  C213  S    
C241  H226  S    
C256  H261  S    
C7    C31   A    
O90   C256  S    
C245  H234  S    
C204  H139  S    
C8    C32   A    
C339  H457  S    
C336  H446  S    
O8    Zn9   S    
C306  H378  S    
C233  H206  S    
C248  C249  S    
C45   C79   S    
O20   Zn5   S    
C326  C327  S    
C75   O7    A    
C202  H134  S    
C158  H32   S    
C145  H1    S    
C347  H479  S    
C312  H392  S    
C168  H56   S    
C285  H327  S    
C217  C218  S    
C170  H60   S    
C216  H166  S    
C309  H383  S    
C218  C219  S    
C96   O36   A    
C210  H152  S    
C117  C134  A    
C268  C269  S    
C152  H18   S    
C23   C68   S    
C184  H93   S    
C121  C138  A    
C157  H30   S    
O1    Zn1   S    
C313  H393  S    
O62   C172  S    
C59   C68   A    
C286  H331  S    
C321  H412  S    
C200  H129  S    
C125  C142  A    
C198  H124  S    
C170  C171  S    
C51   O71   S    
C288  H334  S    
C200  C201  S    
C35   O127  S    
C10   C34   A    
C287  H333  S    
O36   Zn10  S    
C108  C129  A    
C118  C133  A    
C229  H198  S    
C41   C75   S    
C85   C135  S    
C295  C296  S    
O21   Zn12  S    
C95   O35   A    
C162  H40   S    
O129  C349  S    
C240  H222  S    
C340  H460  S    
C323  H417  S    
C230  H200  S    
C308  H381  S    
C110  O98   S    
C166  C167  S    
C236  H214  S    
C316  C317  S    
C335  H445  S    
C302  C303  S    
C227  C228  S    
C102  C143  A    
C161  H38   S    
C312  H390  S    
C296  H353  S    
C331  C332  S    
C291  H342  S    
C164  H45   S    
C92   C142  S    
C171  H61   S    
C329  H431  S    
C321  H413  S    
C114  O102  S    
C201  H131  S    
C290  H339  S    
C180  H84   S    
C284  H325  S    
C5    C41   A    
C169  H57   S    
C112  O100  S    
C62   C65   A    
C214  H163  S    
C63   C68   A    
C78   O14   A    
C64   C67   A    
C8    C44   A    
C79   O19   A    
O110  C316  S    
C332  H438  S    
C229  C230  S    
C176  C177  S    
C205  H142  S    
C154  H22   S    
C263  H276  S    
C288  H335  S    
C319  C320  S    
C184  C185  S    
C323  C324  S    
C264  H278  S    
C253  H254  S    
C217  H169  S    
O76   C214  S    
C254  H255  S    
C257  H263  S    
C244  C245  S    
C279  H313  S    
C197  H123  S    
C232  H205  S    
C297  H355  S    
O65   C181  S    
C224  H186  S    
C219  H173  S    
C246  H236  S    
C269  H291  S    
C328  H428  S    
C172  C173  S    
O1    Zn5   S    
C60   O80   S    
C334  H443  S    
C100  O88   S    
C242  H227  S    
C116  C131  A    
C341  H462  S    
C217  H170  S    
C281  C282  S    
C23   C39   A    
C79   O15   A    
O66   C184  S    
C24   C40   A    
C206  C207  S    
C207  H146  S    
C152  C153  S    
C265  H282  S    
C185  C186  S    
O7    Zn10  S    
C126  O114  S    
C146  H4    S    
C308  C309  S    
C215  H164  S    
C205  C206  S    
C299  H360  S    
C149  H10   S    
C248  H241  S    
C303  H370  S    
C284  C285  S    
O94   C268  S    
C159  H35   S    
C315  H398  S    
O73   C205  S    
C51   C72   A    
C320  C321  S    
C73   O9    A    
C150  H12   S    
O48   Zn6   S    
C120  O108  S    
C74   O6    A    
C174  H69   S    
C91   C141  S    
C207  H145  S    
C230  H199  S    
O37   Zn4   S    
C269  H290  S    
C349  H485  S    
O1    Zn12  S    
C347  H481  S    
C267  H286  S    
C339  H455  S    
C77   O13   A    
C164  H46   S    
C234  H210  S    
C341  H463  S    
C123  O111  S    
