data_mof_unit_25252.cif
_audit_creation_date              2012-12-11T14:17:40-0500
_audit_creation_method            fapswitch 2.2
_symmetry_space_group_name_H-M    P1
_symmetry_Int_Tables_number       1
_space_group_crystal_system       triclinic
_cell_length_a                    6.959391
_cell_length_b                    13.722834
_cell_length_c                    20.461354
_cell_angle_alpha                 102.201364
_cell_angle_beta                  89.446188
_cell_angle_gamma                 91.368598
_cell_volume                      1909.40396096

loop_
_atom_site_label
_atom_site_type_symbol
_atom_type_description
_atom_site_fract_x
_atom_site_fract_y
_atom_site_fract_z
_atom_type_partial_charge
O1    O     O_R   0.506860 0.599390 0.449240 -0.539222
O2    O     O_R   0.180220 0.594600 0.586780 -0.542493
O3    O     O_R   0.004500 0.400610 0.550760 -0.538790
C1    C     C_R   0.348958 0.615255 0.613658 0.740992
O4    O     O_R   0.177490 0.611290 0.451970 -0.544783
O5    O     O_R   0.001750 0.417420 0.414990 -0.554729
C2    C     C_R   0.348929 0.636342 0.434130 0.720335
O6    O     O_R   0.509610 0.582580 0.585010 -0.543071
O7    O     O_3   0.337420 0.436370 0.488020 -0.375455
V1    V     V_3+5 0.064680 0.511800 0.502220 1.400082
O8    O     O_R   0.671710 0.405400 0.413220 -0.541354
C3    C     C_R   0.838285 0.385767 0.385963 0.626146
O9    O     O_R   0.674440 0.388710 0.548030 -0.541108
C4    C     C_R   0.841179 0.362024 0.564096 0.697028
V2    V     V_3+5 0.564010 0.488200 0.497780 1.416813
O10   O     O_3   0.841140 0.563630 0.511980 -0.372185
C5    C     C_R   0.791630 0.111793 0.607015 -0.141391
H1    H     H_    0.776799 0.166112 0.516498 0.121188
H2    H     H_    0.803825 0.983378 0.683424 0.122386
H3    H     H_    0.762132 0.035607 0.581471 0.124616
C6    C     C_R   0.841980 0.283816 0.601940 -0.037861
C7    C     C_R   0.881643 0.306487 0.922554 -0.164968
C8    C     C_R   0.879842 0.381911 0.887283 -0.121406
C9    C     C_R   0.868251 0.359217 0.818099 -0.143751
C10   C     C_R   0.860391 0.259126 0.781652 0.047899
C11   C     C_R   0.860041 0.179928 0.817682 0.042874
C12   C     C_R   0.849414 0.236140 0.710383 0.070212
C13   C     C_R   0.819247 0.135980 0.676432 0.093157
C14   C     C_R   0.820413 0.059755 0.711203 -0.182974
C15   C     C_R   0.849683 0.078888 0.780143 0.106451
C16   C     C_R   0.866762 0.309279 0.671156 -0.201278
C17   C     C_R   0.800612 0.185593 0.570002 -0.169171
C18   C     C_R   0.870355 0.206490 0.889341 -0.067244
H4    H     H_    0.898905 0.386616 0.692428 0.093819
H5    H     H_    0.890270 0.326374 0.976650 0.105111
H6    H     H_    0.861556 0.422412 0.794819 0.106210
H7    H     H_    0.886009 0.459020 0.913899 0.117130
C19   C     C_2   0.993870 0.282272 0.286736 -0.221701
C20   C     C_2   0.833735 0.324034 0.316494 0.295876
H8    H     H_    0.124047 0.292897 0.315283 0.086899
C21   C     C_2   0.006999 0.224253 0.216202 -0.108360
C22   C     C_2   0.858574 0.173283 0.182202 -0.273910
H9    H     H_    0.147320 0.220452 0.192407 0.126769
H10   H     H_    0.719321 0.170236 0.205088 0.168464
C23   C     C_2   0.205234 0.779285 0.786261 -0.142981
C24   C     C_2   0.364955 0.818677 0.819006 -0.299816
H11   H     H_    0.066712 0.794872 0.810552 0.136384
H12   H     H_    0.504937 0.803172 0.796124 0.130346
C25   C     C_2   0.203524 0.714378 0.717630 -0.127801
C26   C     C_2   0.361141 0.681454 0.681059 -0.310291
H13   H     H_    0.062279 0.691908 0.696905 0.132925
H14   H     H_    0.504088 0.700907 0.700688 0.125231
C27   C     C_R   0.548581 0.860741 0.378421 0.399660
H15   H     H_    0.528999 0.812554 0.471381 0.116875
H16   H     H_    0.638602 0.971417 0.289319 0.149595
C28   C     C_R   0.373793 0.712274 0.393882 -0.098841
C29   C     C_R   0.243860 0.696985 0.075777 -0.162749
C30   C     C_R   0.196591 0.626196 0.113115 -0.120081
C31   C     C_R   0.242078 0.643161 0.180783 -0.154442
C32   C     C_R   0.339664 0.731849 0.212900 0.098899
C33   C     C_R   0.395724 0.802111 0.173342 0.073511
C34   C     C_R   0.383239 0.753166 0.282837 0.025805
C35   C     C_R   0.494651 0.840345 0.310354 0.040703
C36   C     C_R   0.551587 0.905997 0.269718 -0.197887
C37   C     C_R   0.499614 0.888761 0.203087 -0.216395
C38   C     C_R   0.321028 0.690831 0.326452 -0.234154
C39   C     C_R   0.487131 0.796669 0.419276 -0.225637
C40   C     C_R   0.343490 0.784907 0.104933 -0.086906
H17   H     H_    0.237109 0.623413 0.309335 0.115276
H18   H     H_    0.200518 0.683669 0.023851 0.108074
H19   H     H_    0.200110 0.584888 0.206283 0.113916
H20   H     H_    0.120822 0.558137 0.089662 0.121649
H21   H     H_    0.545393 0.943609 0.174875 0.129676
O11   O     O_R   0.203230 0.917310 0.915020 -0.542633
O12   O     O_R   0.535500 0.888690 0.048040 -0.543817
O13   O     O_R   0.711080 0.082610 0.085000 -0.544120
C41   C     C_R   0.364397 0.862847 0.065464 0.688551
O14   O     O_R   0.532630 0.905370 0.913230 -0.552952
O15   O     O_R   0.708190 0.099410 0.949230 -0.539808
C42   C     C_R   0.364517 0.884341 0.886553 0.734146
O16   O     O_R   0.206120 0.900510 0.050790 -0.538209
O17   O     O_3   0.375360 0.063570 0.011990 -0.369469
V3    V     V_3+5 0.648170 0.988200 0.997780 1.406933
O18   O     O_R   0.038240 0.111390 0.951940 -0.543854
C43   C     C_R   0.871880 0.133973 0.932374 0.707865
O19   O     O_R   0.041120 0.094710 0.086750 -0.540086
C44   C     C_R   0.872715 0.113933 0.113631 0.723286
V4    V     V_3+5 0.148810 0.011930 0.002180 1.420552
O20   O     O_3   0.871750 0.936430 0.988010 -0.374165
O21   O     O_3   0.668944 0.320123 0.278237 -0.570241
C45   C     C_3   0.505979 0.277662 0.305038 0.070359
H22   H     H_    0.410945 0.248985 0.261900 0.132209
H23   H     H_    0.425889 0.336789 0.338976 0.151519
C46   C     C_3   0.544117 0.189352 0.338961 -0.349378
H24   H     H_    0.638187 0.135667 0.306476 0.180600
H25   H     H_    0.618180 0.215419 0.387504 0.183980
C47   C     C_3   0.356781 0.136557 0.352380 -0.809779
H26   H     H_    0.262060 0.189207 0.385991 0.222668
H27   H     H_    0.388310 0.074428 0.377234 0.261037
H28   H     H_    0.280799 0.105524 0.304761 0.226773
O22   O     O_3   0.643352 0.948788 0.407633 -0.585653
C48   C     C_3   0.844247 0.938975 0.398341 0.057533
H29   H     H_    0.904524 0.015065 0.399416 0.149363
H30   H     H_    0.884705 0.893541 0.348399 0.099346
C49   C     C_3   0.934487 0.895573 0.454069 -0.317887
H31   H     H_    0.834047 0.900637 0.496999 0.198002
H32   H     H_    0.963342 0.815285 0.434640 0.184078
C50   C     C_3   0.121601 0.950220 0.479357 -0.786017
H33   H     H_    0.220642 0.951966 0.436891 0.242392
H34   H     H_    0.191168 0.911678 0.515134 0.225553
H35   H     H_    0.092459 0.028085 0.505251 0.234618
C51   C     C_3   0.874536 0.987973 0.809212 -0.761413
H36   H     H_    0.877169 0.917991 0.770306 0.182388
H37   H     H_    0.013869 0.993567 0.835329 0.219492
H38   H     H_    0.752699 0.979309 0.842313 0.222444

loop_
_geom_bond_atom_site_label_1
_geom_bond_atom_site_label_2
_ccdc_geom_bond_type
C24   C42   S    
O22   C48   S    
C21   C22   D    
C1    O6    A    
C30   H20   S    
C51   H37   S    
C47   H26   S    
O21   C45   S    
C23   C24   D    
C7    H5    S    
C49   H32   S    
C34   C35   A    
C4    C6    S    
C13   C14   A    
O5    C3    A    
C19   C20   D    
O14   C42   A    
C38   H17   S    
V2    O10   S    
C5    H3    S    
C37   H21   S    
C50   H33   S    
C48   C49   S    
C32   C34   A    
C18   C43   S    
O8    V2    S    
O14   V3    S    
C27   O22   S    
C25   H13   S    
C26   H14   S    
C8    C9    A    
O1    V2    S    
C41   O16   A    
C29   H18   S    
O7    V1    S    
C20   O21   S    
O17   V4    S    
C46   H25   S    
C31   C32   A    
O11   C42   A    
O9    C4    A    
C21   H9    S    
C46   H24   S    
C22   H10   S    
C2    C28   S    
O13   V3    S    
C51   H36   S    
C47   H27   S    
C23   H11   S    
V3    O20   S    
C49   C50   S    
C24   H12   S    
C34   C38   A    
C12   C16   A    
C9    C10   A    
C19   C21   S    
C45   H22   S    
O4    C2    A    
O19   C44   A    
H15   C39   S    
C46   C47   S    
C30   C31   A    
C8    H7    S    
O17   V3    S    
C15   C51   S    
C32   C33   A    
O2    C1    A    
C14   C15   A    
C45   H23   S    
C6    C16   A    
C11   C18   A    
C23   C25   S    
H16   C36   S    
C16   H4    S    
C9    H6    S    
O18   C43   A    
C48   H30   S    
O12   C41   A    
O13   C44   A    
O3    C4    A    
C11   C15   A    
O6    V2    S    
O9    V2    S    
H1    C17   S    
C29   C40   A    
O2    V1    S    
O15   C43   A    
C47   H28   S    
C40   C41   S    
C7    C18   A    
O1    C2    A    
C5    C13   A    
O18   V4    S    
O5    V1    S    
O8    C3    A    
C10   C12   A    
C28   C39   A    
C49   H31   S    
C50   H35   S    
C36   C37   A    
C3    C20   S    
C10   C11   A    
O4    V1    S    
O3    V1    S    
V1    O10   S    
C6    C17   A    
C45   C46   S    
C19   H8    S    
C27   C35   A    
C33   C40   A    
O12   V3    S    
C29   C30   A    
C28   C38   A    
C50   H34   S    
O19   V4    S    
O7    V2    S    
C48   H29   S    
C27   C39   A    
O16   V4    S    
C35   C36   A    
O15   V3    S    
C33   C37   A    
V4    O20   S    
C25   C26   D    
C1    C26   S    
C12   C13   A    
C5    C17   A    
C7    C8    A    
C22   C44   S    
O11   V4    S    
C51   H38   S    
C31   H19   S    
H2    C14   S    
