data_mof_unit_9129.cif
_audit_creation_date              2012-12-11T14:24:44-0500
_audit_creation_method            fapswitch 2.2
_symmetry_space_group_name_H-M    P1
_symmetry_Int_Tables_number       1
_space_group_crystal_system       triclinic
_cell_length_a                    19.133572
_cell_length_b                    11.037817
_cell_length_c                    18.784543
_cell_angle_alpha                 89.718478
_cell_angle_beta                  91.476485
_cell_angle_gamma                 89.627618
_cell_volume                      3965.70933161

loop_
_atom_site_label
_atom_site_type_symbol
_atom_type_description
_atom_site_fract_x
_atom_site_fract_y
_atom_site_fract_z
_atom_type_partial_charge
C1    C     C_R   0.728279 0.373147 0.144921 0.543062
C2    C     C_R   0.268961 0.378143 0.852549 0.533942
C3    C     C_R   0.228279 0.873147 0.144921 0.543060
C4    C     C_R   0.768961 0.878143 0.852549 0.533941
C5    C     C_3   0.446495 0.117761 0.033619 0.382618
C6    C     C_3   0.491526 0.051471 0.979991 0.397869
C7    C     C_3   0.946494 0.617761 0.033619 0.382627
C8    C     C_3   0.991525 0.551470 0.979991 0.397885
C9    C     C_R   0.747761 0.921080 0.923218 -0.004136
C10   C     C_R   0.240866 0.900032 0.069644 0.038985
C11   C     C_R   0.247759 0.421079 0.923217 -0.004137
C12   C     C_R   0.740866 0.400033 0.069644 0.038987
C13   C     C_R   0.695110 0.862677 0.961641 -0.040071
C14   C     C_R   0.303907 0.869101 0.037090 0.014682
C15   C     C_R   0.195111 0.362669 0.961642 -0.040072
C16   C     C_R   0.803905 0.369099 0.037089 0.014681
C17   C     C_R   0.700218 0.857486 0.036957 -0.051810
C18   C     C_R   0.305144 0.859978 0.962063 -0.021057
C19   C     C_R   0.200221 0.357482 0.036958 -0.051819
C20   C     C_R   0.805141 0.359976 0.962062 -0.021059
C21   C     C_R   0.796256 0.999181 0.033018 -0.130796
C22   C     C_R   0.185981 0.931143 0.953344 -0.160720
C23   C     C_R   0.296247 0.499197 0.033015 -0.130784
C24   C     C_R   0.685980 0.431150 0.953345 -0.160716
C25   C     C_R   0.795248 0.993481 0.959834 -0.161002
C26   C     C_R   0.181480 0.921404 0.026134 -0.119238
C27   C     C_R   0.295241 0.493492 0.959831 -0.160992
C28   C     C_R   0.681480 0.421412 0.026135 -0.119240
C29   C     C_R   0.639818 0.803695 0.926425 -0.108983
C30   C     C_R   0.363304 0.834449 0.077751 -0.073765
C31   C     C_R   0.139821 0.303680 0.926428 -0.108984
C32   C     C_R   0.863303 0.334447 0.077750 -0.073770
C33   C     C_R   0.103212 0.211574 0.960632 0.383308
C34   C     C_R   0.912397 0.254753 0.049506 0.343225
C35   C     C_R   0.603207 0.711588 0.960626 0.383312
C36   C     C_R   0.412397 0.754754 0.049509 0.343210
C37   C     C_R   0.613603 0.697827 0.034330 0.447140
C38   C     C_R   0.405727 0.727335 0.977167 0.453793
C39   C     C_R   0.113610 0.197817 0.034337 0.447172
C40   C     C_R   0.905726 0.227336 0.977164 0.453787
C41   C     C_R   0.658789 0.773332 0.072692 -0.108478
C42   C     C_R   0.357338 0.787803 0.932381 -0.079964
C43   C     C_R   0.158796 0.273326 0.072696 -0.108449
C44   C     C_R   0.857334 0.287800 0.932379 -0.079967
C45   C     C_R   0.533356 0.156375 0.143974 0.585181
C46   C     C_R   0.466683 0.154971 0.856031 0.560569
C47   C     C_R   0.033356 0.656375 0.143974 0.585177
C48   C     C_R   0.966683 0.654971 0.856031 0.560569
C49   C     C_R   0.748650 0.933346 0.073105 0.021363
C50   C     C_R   0.248948 0.909819 0.920650 -0.008419
C51   C     C_R   0.248648 0.433351 0.073104 0.021357
C52   C     C_R   0.748946 0.409820 0.920650 -0.008418
C53   C     C_R   0.495290 0.169062 0.575801 -0.005650
C54   C     C_R   0.507977 0.152426 0.427540 0.003592
C55   C     C_R   0.995290 0.669062 0.575801 -0.005650
C56   C     C_R   0.007977 0.652426 0.427540 0.003592
C57   C     C_R   0.529170 0.068459 0.546934 0.025102
C58   C     C_R   0.523030 0.049906 0.473056 0.039953
C59   C     C_R   0.029170 0.568459 0.546934 0.025102
C60   C     C_R   0.023030 0.549906 0.473056 0.039953
C61   C     C_R   0.479802 0.256747 0.457274 -0.149133
C62   C     C_R   0.468157 0.260330 0.530108 -0.145051
C63   C     C_R   0.979802 0.756747 0.457274 -0.149133
C64   C     C_R   0.968157 0.760330 0.530108 -0.145051
C65   C     C_R   0.560239 0.977981 0.591118 -0.084826
C66   C     C_R   0.530138 0.928773 0.449132 -0.088460
C67   C     C_R   0.060239 0.477982 0.591118 -0.084826
C68   C     C_R   0.030137 0.428773 0.449132 -0.088460
C69   C     C_R   0.069281 0.361632 0.565782 -0.118738
C70   C     C_R   0.053834 0.337407 0.494900 -0.149088
C71   C     C_R   0.569281 0.861632 0.565782 -0.118739
C72   C     C_R   0.553834 0.837407 0.494900 -0.149087
C73   C     C_R   0.749298 0.916134 0.574939 0.000008
C74   C     C_R   0.241301 0.927440 0.425560 0.004496
C75   C     C_R   0.249298 0.416134 0.574939 0.000008
C76   C     C_R   0.741301 0.427440 0.425560 0.004496
C77   C     C_R   0.784476 0.014823 0.546063 0.024737
C78   C     C_R   0.181731 0.959420 0.466898 0.041268
C79   C     C_R   0.284476 0.514823 0.546063 0.024737
C80   C     C_R   0.681731 0.459420 0.466898 0.041267
C81   C     C_R   0.801885 0.008215 0.474545 0.040359
C82   C     C_R   0.184150 0.932280 0.539405 0.023269
C83   C     C_R   0.301885 0.508215 0.474545 0.040357
C84   C     C_R   0.684150 0.432280 0.539405 0.023269
C85   C     C_R   0.720150 0.840936 0.457430 -0.153507
C86   C     C_R   0.310967 0.919414 0.531930 -0.138460
C87   C     C_R   0.220150 0.340936 0.457430 -0.153507
C88   C     C_R   0.810967 0.419414 0.531930 -0.138460
C89   C     C_R   0.741251 0.971344 0.147728 0.540194
C90   C     C_R   0.258382 0.966780 0.850601 0.547549
C91   C     C_R   0.241251 0.471346 0.147728 0.540188
C92   C     C_R   0.758382 0.466780 0.850601 0.547548
C93   C     C_R   0.719727 0.827012 0.530263 -0.137310
C94   C     C_R   0.305959 0.910085 0.458889 -0.153893
C95   C     C_R   0.219727 0.327012 0.530263 -0.137310
C96   C     C_R   0.805959 0.410085 0.458889 -0.153892
C97   C     C_R   0.812795 0.107469 0.589554 -0.079439
C98   C     C_R   0.119713 0.015298 0.439118 -0.084336
C99   C     C_R   0.312795 0.607469 0.589554 -0.079439
C100  C     C_R   0.619713 0.515298 0.439118 -0.084336
C101  C     C_R   0.869454 0.173704 0.567087 -0.115544
C102  C     C_R   0.059337 0.019378 0.478516 -0.143303
C103  C     C_R   0.369453 0.673704 0.567087 -0.115544
C104  C     C_R   0.559337 0.519378 0.478516 -0.143303
C105  C     C_R   0.893266 0.157957 0.498708 -0.145876
C106  C     C_R   0.060442 0.979102 0.548485 -0.118041
C107  C     C_R   0.393266 0.657957 0.498708 -0.145877
C108  C     C_R   0.560442 0.479102 0.548485 -0.118041
C109  C     C_R   0.860775 0.075614 0.452902 -0.086354
C110  C     C_R   0.121764 0.931323 0.578253 -0.082460
C111  C     C_R   0.360775 0.575614 0.452902 -0.086355
C112  C     C_R   0.621764 0.431323 0.578253 -0.082460
C113  C     C_R   0.759937 0.932677 0.428747 0.005080
C114  C     C_R   0.250118 0.925002 0.572748 -0.001072
C115  C     C_R   0.259937 0.432677 0.428747 0.005080
C116  C     C_R   0.750118 0.425002 0.572748 -0.001072
C117  C     C_R   0.729948 0.381656 0.353838 0.549007
C118  C     C_R   0.268540 0.379193 0.646332 0.527983
C119  C     C_R   0.229948 0.881656 0.353838 0.549005
C120  C     C_R   0.768540 0.879193 0.646332 0.527984
C121  C     C_R   0.533528 0.155112 0.353958 0.550120
C122  C     C_R   0.467071 0.158235 0.647135 0.527337
C123  C     C_R   0.033528 0.655112 0.353958 0.550117
C124  C     C_R   0.967071 0.658235 0.647135 0.527337
C125  C     C_R   0.744086 0.971816 0.356358 0.551304
C126  C     C_R   0.257791 0.970169 0.644205 0.528944
C127  C     C_R   0.244086 0.471816 0.356358 0.551300
C128  C     C_R   0.757791 0.470169 0.644205 0.528943
C129  C     C_3   0.554685 0.214021 0.965570 -0.209332
C130  C     C_3   0.509383 0.281071 0.020838 -0.160988
C131  C     C_3   0.054684 0.714020 0.965570 -0.209335
C132  C     C_3   0.009383 0.781070 0.020838 -0.160998
C133  C     C_3   0.558450 0.101308 0.014899 -0.144426
C134  C     C_3   0.442156 0.229955 0.984746 -0.108368
C135  C     C_3   0.058450 0.601307 0.014900 -0.144417
C136  C     C_3   0.942156 0.729954 0.984746 -0.108379
C137  C     C_3   0.512347 0.167399 0.068934 0.008237
C138  C     C_3   0.488129 0.162431 0.931060 0.011025
C139  C     C_3   0.012347 0.667399 0.068934 0.008238
C140  C     C_3   0.988129 0.662431 0.931060 0.011021
Cr1   Cr    Cr6+3 0.772820 0.169820 0.252640 0.998491
Cr2   Cr    Cr6+3 0.227180 0.169820 0.747360 0.980855
Cr3   Cr    Cr6+3 0.272820 0.669820 0.252640 0.998527
Cr4   Cr    Cr6+3 0.727180 0.669820 0.747360 0.980858
Cr5   Cr    Cr6+3 0.615040 0.323610 0.249150 1.041854
Cr6   Cr    Cr6+3 0.384960 0.323610 0.750850 1.014449
Cr7   Cr    Cr6+3 0.115040 0.823610 0.249150 1.041845
Cr8   Cr    Cr6+3 0.884960 0.823610 0.750850 1.014443
Cr9   Cr    Cr6+3 0.616720 0.011130 0.250660 0.997617
Cr10  Cr    Cr6+3 0.383280 0.011130 0.749340 1.016236
Cr11  Cr    Cr6+3 0.116720 0.511130 0.250660 0.997644
Cr12  Cr    Cr6+3 0.883280 0.511130 0.749340 1.016240
H1    H     H_    0.606367 0.048554 0.028723 0.140279
H2    H     H_    0.393909 0.282359 0.971061 0.162744
H3    H     H_    0.106366 0.548552 0.028722 0.140281
H4    H     H_    0.893909 0.782359 0.971061 0.162739
H5    H     H_    0.464286 0.333019 0.423849 0.124213
H6    H     H_    0.437089 0.334094 0.550556 0.147561
H7    H     H_    0.964286 0.833019 0.423849 0.124212
H8    H     H_    0.937089 0.834094 0.550556 0.147561
H9    H     H_    0.573200 0.994876 0.646641 0.119706
H10   H     H_    0.513080 0.898884 0.397044 0.136304
H11   H     H_    0.073200 0.494876 0.646641 0.119707
H12   H     H_    0.013080 0.398884 0.397044 0.136303
H13   H     H_    0.087821 0.290143 0.601254 0.120248
H14   H     H_    0.061102 0.247965 0.474518 0.106222
H15   H     H_    0.587821 0.790143 0.601254 0.120247
H16   H     H_    0.561102 0.747965 0.474518 0.106222
H17   H     H_    0.690798 0.779223 0.423581 0.119574
H18   H     H_    0.362821 0.923867 0.556187 0.153957
H19   H     H_    0.190798 0.279223 0.423581 0.119574
H20   H     H_    0.862821 0.423867 0.556187 0.153957
H21   H     H_    0.795204 0.121142 0.643315 0.115219
H22   H     H_    0.117182 0.060325 0.387876 0.130206
H23   H     H_    0.295204 0.621142 0.643315 0.115219
H24   H     H_    0.617182 0.560325 0.387876 0.130207
H25   H     H_    0.697152 0.745063 0.551411 0.153630
H26   H     H_    0.352243 0.892042 0.428511 0.122756
H27   H     H_    0.197152 0.245062 0.551411 0.153630
H28   H     H_    0.852243 0.392041 0.428511 0.122755
H29   H     H_    0.895267 0.236431 0.603023 0.116708
H30   H     H_    0.012040 0.055672 0.454383 0.092532
H31   H     H_    0.395267 0.736431 0.603023 0.116708
H32   H     H_    0.512040 0.555672 0.454383 0.092534
H33   H     H_    0.936525 0.210763 0.480697 0.103225
H34   H     H_    0.014206 0.986881 0.580118 0.119342
H35   H     H_    0.436525 0.710763 0.480697 0.103226
H36   H     H_    0.514206 0.486881 0.580118 0.119342
H37   H     H_    0.885553 0.061242 0.402623 0.132269
H38   H     H_    0.121290 0.900077 0.632994 0.120063
H39   H     H_    0.385553 0.561242 0.402623 0.132273
H40   H     H_    0.621290 0.400077 0.632994 0.120063
H41   H     H_    0.598741 0.248081 0.934438 0.127774
H42   H     H_    0.513965 0.376143 0.039094 0.220220
H43   H     H_    0.098740 0.748078 0.934437 0.127772
H44   H     H_    0.013965 0.876142 0.039094 0.220212
H45   H     H_    0.834643 0.056857 0.058261 0.176129
H46   H     H_    0.139705 0.953335 0.921924 0.190192
H47   H     H_    0.334628 0.556884 0.058257 0.176138
H48   H     H_    0.639704 0.453349 0.921926 0.190199
H49   H     H_    0.627605 0.827073 0.871728 0.124131
H50   H     H_    0.368303 0.863407 0.132314 0.154067
H51   H     H_    0.127606 0.327055 0.871732 0.124135
H52   H     H_    0.868304 0.363411 0.132312 0.154065
H53   H     H_    0.834498 0.040253 0.931086 0.198031
H54   H     H_    0.130299 0.924972 0.048094 0.217789
H55   H     H_    0.334485 0.540272 0.931081 0.198016
H56   H     H_    0.630299 0.424984 0.048096 0.217791
H57   H     H_    0.665020 0.758052 0.129412 0.151650
H58   H     H_    0.355045 0.764136 0.876533 0.128120
H59   H     H_    0.165028 0.258049 0.129416 0.151663
H60   H     H_    0.855041 0.264134 0.876532 0.128122
O1    O     O_R   0.788190 0.043000 0.172520 -0.519507
O2    O     O_R   0.211810 0.043000 0.827480 -0.528300
O3    O     O_R   0.288190 0.543000 0.172520 -0.519479
O4    O     O_R   0.711810 0.543000 0.827480 -0.528296
O5    O     O_R   0.556550 0.253260 0.323480 -0.493085
O6    O     O_R   0.443450 0.253260 0.676520 -0.511410
O7    O     O_R   0.056550 0.753260 0.323480 -0.493089
O8    O     O_R   0.943450 0.753260 0.676520 -0.511410
O9    O     O_R   0.545830 0.051610 0.330160 -0.541484
O10   O     O_R   0.454170 0.051610 0.669840 -0.533298
O11   O     O_R   0.045830 0.551610 0.330160 -0.541485
O12   O     O_R   0.954170 0.551610 0.669840 -0.533297
O13   O     O_R   0.681920 0.959720 0.327070 -0.499340
O14   O     O_R   0.318080 0.959720 0.672930 -0.519200
O15   O     O_R   0.181920 0.459720 0.327070 -0.499340
O16   O     O_R   0.818080 0.459720 0.672930 -0.519200
O17   O     O_3   0.668190 0.168190 0.250820 -0.256800
O18   O     O_3   0.331810 0.168190 0.749180 -0.246663
O19   O     O_3   0.168190 0.668190 0.250820 -0.256808
O20   O     O_3   0.831810 0.668190 0.749180 -0.246663
O21   O     O_R   0.766240 0.292300 0.176860 -0.532809
O22   O     O_R   0.233760 0.292300 0.823140 -0.515734
O23   O     O_R   0.266240 0.792300 0.176860 -0.532801
O24   O     O_R   0.733760 0.792300 0.823140 -0.515732
O25   O     O_R   0.670310 0.409160 0.168720 -0.494419
O26   O     O_R   0.329690 0.409160 0.831280 -0.514191
O27   O     O_R   0.170310 0.909160 0.168720 -0.494409
O28   O     O_R   0.829690 0.909160 0.831280 -0.514197
O29   O     O_R   0.556160 0.251900 0.173380 -0.500720
O30   O     O_R   0.443840 0.251900 0.826620 -0.503416
O31   O     O_R   0.056160 0.751900 0.173380 -0.500730
O32   O     O_R   0.943840 0.751900 0.826620 -0.503419
O33   O     O_R   0.545410 0.050140 0.168240 -0.520216
O34   O     O_R   0.454590 0.050140 0.831760 -0.471723
O35   O     O_R   0.045410 0.550140 0.168240 -0.520178
O36   O     O_R   0.954590 0.550140 0.831760 -0.471720
O37   O     O_R   0.681530 0.958350 0.176970 -0.519076
O38   O     O_R   0.318470 0.958350 0.823030 -0.498437
O39   O     O_R   0.181530 0.458350 0.176970 -0.519072
O40   O     O_R   0.818470 0.458350 0.823030 -0.498436
O41   O     O_R   0.788610 0.044480 0.334450 -0.534894
O42   O     O_R   0.211390 0.044480 0.665550 -0.532397
O43   O     O_R   0.288610 0.544480 0.334450 -0.534889
O44   O     O_R   0.711390 0.544480 0.665550 -0.532397
O45   O     O_R   0.766630 0.293670 0.326970 -0.497743
O46   O     O_R   0.233370 0.293670 0.673030 -0.518283
O47   O     O_R   0.266630 0.793670 0.326970 -0.497741
O48   O     O_R   0.733370 0.793670 0.673030 -0.518284
O49   O     O_R   0.670730 0.410640 0.330640 -0.535386
O50   O     O_R   0.329270 0.410640 0.669360 -0.525053
O51   O     O_R   0.170730 0.910640 0.330640 -0.535386
O52   O     O_R   0.829270 0.910640 0.669360 -0.525053
F1    F     F_    0.390289 0.077410 0.071108 -0.655499
F2    F     F_    0.485959 0.933414 0.957535 -0.642983
F3    F     F_    0.890288 0.577410 0.071108 -0.655494
F4    F     F_    0.985959 0.433414 0.957535 -0.642966
O53   O     O_3   0.063165 0.124836 0.924977 -0.477964
C141  C     C_3   0.046846 0.152744 0.852865 -0.065819
H61   H     H_    0.094171 0.150842 0.820013 0.105919
H62   H     H_    0.018698 0.241025 0.847749 0.154005
H63   H     H_    0.011248 0.082038 0.831440 0.156762
O54   O     O_3   0.960686 0.187610 0.090358 -0.467335
C142  C     C_3   0.972326 0.231638 0.160061 -0.079473
H64   H     H_    0.926297 0.214390 0.193500 0.090046
H65   H     H_    0.986762 0.329036 0.159576 0.139284
H66   H     H_    0.017031 0.181227 0.184923 0.163965
O55   O     O_3   0.563160 0.624853 0.924968 -0.477958
C143  C     C_3   0.546843 0.652765 0.852857 -0.065828
H67   H     H_    0.594169 0.650861 0.820005 0.105922
H68   H     H_    0.518696 0.741048 0.847742 0.153993
H69   H     H_    0.511243 0.582063 0.831430 0.156755
O56   O     O_3   0.460673 0.687594 0.090367 -0.467358
C144  C     C_3   0.472359 0.731696 0.160048 -0.079424
H70   H     H_    0.426350 0.714491 0.193523 0.089993
H71   H     H_    0.486797 0.829092 0.159518 0.139335
H72   H     H_    0.517076 0.681305 0.184900 0.163974
F5    F     F_    0.080815 0.108669 0.069434 -0.609445
F6    F     F_    0.940815 0.131704 0.951873 -0.605557
F7    F     F_    0.580806 0.608677 0.069423 -0.609452
F8    F     F_    0.440812 0.631695 0.951878 -0.605537

loop_
_geom_bond_atom_site_label_1
_geom_bond_atom_site_label_2
_ccdc_geom_bond_type
C99   C103  A    
C124  O8    A    
C111  H39   S    
C55   C59   A    
C4    O24   A    
Cr11  O15   S    
C73   C93   A    
C136  C140  S    
C47   O35   A    
C75   C95   A    
C133  C137  S    
C90   O38   A    
C84   C112  A    
C103  H31   S    
C79   C99   A    
O56   C144  S    
C5    C6    S    
C100  C104  A    
O54   C142  S    
C94   H26   S    
C9    C13   A    
C91   O3    A    
C131  C140  S    
C3    O23   A    
Cr7   O19   S    
C50   C90   S    
C66   C72   A    
C12   C16   A    
C1    O21   A    
C43   H59   S    
C87   C115  A    
C80   C84   A    
C59   C60   A    
C8    C135  S    
C126  O14   A    
Cr4   O20   S    
C68   H12   S    
C30   H50   S    
C97   H21   S    
C102  H30   S    
C56   C123  S    
C106  H34   S    
C98   C102  A    
C123  O11   A    
C110  H38   S    
C85   H17   S    
C32   C34   A    
C135  C139  S    
C78   C82   A    
C11   C27   A    
C16   C20   A    
C87   H19   S    
C96   H28   S    
C36   O56   S    
C129  C133  S    
C28   H56   S    
C141  H62   S    
Cr7   O51   S    
C90   O2    A    
Cr3   O3    S    
Cr8   O28   S    
C108  H36   S    
C131  H43   S    
C21   H45   S    
C5    C137  S    
C118  O46   A    
C54   C61   A    
C29   C35   A    
Cr10  O18   S    
C30   C36   A    
C8    C140  S    
C48   O36   A    
C76   C96   A    
Cr11  O35   S    
C69   C70   A    
C22   C26   A    
Cr6   O6    S    
C24   H48   S    
Cr1   O21   S    
C122  O10   A    
C65   H9    S    
C73   C77   A    
C103  C107  A    
C44   H60   S    
C75   C79   A    
C79   C83   A    
C6    C138  S    
C39   F5    S    
C63   H7    S    
C21   C49   A    
C7    C8    S    
C132  C139  S    
C21   C25   A    
C127  O43   A    
C53   C122  S    
C18   C42   A    
Cr2   O46   S    
C114  C126  S    
Cr2   O18   S    
C59   C67   A    
C85   C93   A    
Cr11  O19   S    
C124  O12   A    
C87   C95   A    
C6    F2    S    
C92   O4    A    
C132  C136  S    
C84   C116  A    
Cr3   O43   S    
C72   H16   S    
C1    C12   S    
C11   C15   A    
C2    C11   S    
C20   C44   A    
Cr10  O38   S    
C92   O40   A    
C48   C140  S    
C83   C115  A    
C142  H66   S    
Cr3   O47   S    
C143  H67   S    
C46   O34   A    
C10   C14   A    
C17   C49   A    
Cr4   O4    S    
C93   H25   S    
C144  H71   S    
C1    O25   A    
C128  O16   A    
Cr6   O30   S    
C54   C58   A    
C126  O42   A    
Cr8   O52   S    
C7    F3    S    
C54   C121  S    
Cr5   O49   S    
C47   C139  S    
Cr12  O40   S    
C101  H29   S    
C129  C130  S    
Cr10  O34   S    
Cr5   O17   S    
C86   H18   S    
C121  O5    A    
C76   C80   A    
C15   C31   A    
Cr7   O27   S    
C16   C32   A    
Cr2   O42   S    
C13   C17   A    
Cr9   O17   S    
C85   C113  A    
C71   C72   A    
C26   H54   S    
C57   C58   A    
C128  O44   A    
Cr11  O11   S    
C37   C41   A    
C61   C62   A    
C130  C134  S    
C69   H13   S    
C63   C64   A    
C67   H11   S    
C40   C44   A    
C99   H23   S    
Cr8   O32   S    
Cr1   O45   S    
Cr3   O19   S    
C4    C9    S    
Cr12  O20   S    
C24   C52   A    
C119  O47   A    
C88   C96   A    
Cr10  O14   S    
C74   C94   A    
C142  H64   S    
C143  H69   S    
C48   O32   A    
C9    C25   A    
C91   O39   A    
C15   C19   A    
Cr4   O44   S    
C89   O37   A    
C12   C28   A    
C13   C29   A    
C6    C133  S    
C106  C110  A    
C25   H53   S    
Cr1   O17   S    
C66   H10   S    
C123  O7    A    
C51   C91   S    
C2    O22   A    
C100  H24   S    
O55   C143  S    
C62   H6    S    
C40   F6    S    
Cr8   O20   S    
C42   H58   S    
C22   C50   A    
C117  O49   A    
C73   C120  S    
O53   C141  S    
C127  O15   A    
Cr10  O10   S    
C141  H63   S    
C75   C118  S    
C107  C111  A    
C125  O13   A    
C19   C43   A    
Cr9   O37   S    
C29   H49   S    
Cr4   O24   S    
C24   C28   A    
Cr2   O2    S    
C45   O33   A    
C53   C57   A    
Cr11  O39   S    
C108  C112  A    
C32   H52   S    
C144  H70   S    
C61   H5    S    
C112  H40   S    
C77   C81   A    
C37   F7    S    
C64   H8    S    
C38   F8    S    
C4    O28   A    
Cr8   O8    S    
C104  H32   S    
C81   C109  A    
Cr12  O12   S    
C34   C40   A    
C52   C92   S    
C46   O30   A    
C131  C132  S    
C104  C108  A    
C18   C50   A    
C89   O1    A    
C55   C124  S    
Cr9   O33   S    
C142  H65   S    
C22   H46   S    
C57   C65   A    
C130  H42   S    
C76   C117  S    
Cr1   O41   S    
C36   C38   A    
C120  O48   A    
C47   O31   A    
C134  H2    S    
C105  C109  A    
C136  H4    S    
Cr6   O50   S    
Cr12  O36   S    
C56   C60   A    
C7    C136  S    
Cr5   O5    S    
C60   C68   A    
C74   C78   A    
C81   C113  A    
C121  O9    A    
C141  H61   S    
C130  C137  S    
C3    O27   A    
C88   H20   S    
C107  H35   S    
Cr9   O13   S    
C14   C18   A    
C8    F4    S    
C135  H3    S    
C74   C119  S    
C34   O54   S    
C33   C39   A    
C35   O55   S    
C133  H1    S    
C82   C110  A    
C35   C37   A    
C143  H68   S    
C38   C42   A    
C144  H72   S    
C131  C135  S    
C70   H14   S    
C98   H22   S    
C113  C125  S    
Cr3   O23   S    
C23   H47   S    
C115  C127  S    
C105  H33   S    
C86   C94   A    
Cr12  O16   S    
C58   C66   A    
C119  O51   A    
C129  C138  S    
C83   C111  A    
C109  H37   S    
C120  O52   A    
Cr5   O25   S    
C78   C98   A    
C31   C33   A    
C23   C27   A    
C31   H51   S    
C46   C138  S    
C41   H57   S    
C10   C26   A    
C80   C100  A    
Cr9   O9    S    
C14   C30   A    
C101  C105  A    
C5    C134  S    
Cr6   O26   S    
C82   C114  A    
Cr1   O1    S    
C2    O26   A    
C39   C43   A    
C65   C71   A    
C67   C69   A    
C88   C116  A    
C117  O45   A    
C53   C62   A    
C23   C51   A    
C118  O50   A    
C5    F1    S    
C55   C64   A    
C45   C137  S    
C56   C63   A    
Cr5   O29   S    
C125  O41   A    
C95   H27   S    
Cr7   O31   S    
C45   O29   A    
Cr6   O18   S    
C122  O6    A    
C33   O53   S    
C49   C89   S    
C134  C138  S    
C129  H41   S    
C86   C114  A    
C20   C52   A    
C3    C10   S    
C7    C139  S    
C102  C106  A    
C27   H55   S    
Cr4   O48   S    
C17   C41   A    
Cr7   O7    S    
C19   C51   A    
Cr2   O22   S    
C68   C70   A    
C116  C128  S    
C132  H44   S    
C71   H15   S    
C77   C97   A    
C97   C101  A    
