data_mof_unit_55170.cif
_audit_creation_date              2012-10-26T18:26:37-0400
_audit_creation_method            fapswitch 2.2
_symmetry_space_group_name_H-M    P1
_symmetry_Int_Tables_number       1
_space_group_crystal_system       triclinic
_cell_length_a                    15.836202
_cell_length_b                    8.745906
_cell_length_c                    7.436326
_cell_angle_alpha                 102.313823
_cell_angle_beta                  94.092491
_cell_angle_gamma                 92.26537
_cell_volume                      1002.09978225

loop_
_atom_site_label
_atom_site_type_symbol
_atom_type_description
_atom_site_fract_x
_atom_site_fract_y
_atom_site_fract_z
_atom_type_partial_charge
C1    C     C_R   0.494726 0.200729 0.455503 0.564453
C2    C     C_3   0.975768 0.648622 0.521450 -0.099855
C3    C     C_1   0.250490 0.500313 0.507513 -0.035825
C4    C     C_1   0.749510 0.499687 0.492487 -0.035826
C5    C     C_3   0.033979 0.586091 0.663844 -0.101429
C6    C     C_3   0.966021 0.413909 0.336155 -0.101429
C7    C     C_3   0.083173 0.500124 0.504785 0.052561
C8    C     C_3   0.916827 0.499876 0.495215 0.052561
C9    C     C_1   0.174935 0.500315 0.508018 -0.063839
C10   C     C_1   0.825065 0.499685 0.491982 -0.063839
C11   C     C_3   0.943166 0.367081 0.790631 -0.411896
C12   C     C_R   0.505273 0.799271 0.544497 0.564452
C13   C     C_3   0.056834 0.632919 0.209369 -0.411896
C14   C     C_3   0.409812 0.955534 0.293597 -0.376319
C15   C     C_3   0.590199 0.044461 0.706379 -0.376318
C16   C     C_R   0.339964 0.499922 0.502474 0.545474
C17   C     C_R   0.660036 0.500077 0.497526 0.545474
C18   C     C_2   0.479412 0.035750 0.438630 -0.028257
C19   C     C_2   0.520588 0.964250 0.561367 -0.028249
C20   C     C_3   0.973875 0.438184 0.635769 0.028178
C21   C     C_3   0.026125 0.561816 0.364231 0.028178
C22   C     C_3   0.024232 0.351378 0.478550 -0.099855
Cu1   Cu    Cu3+1 0.509330 0.517380 0.684380 0.940602
Cu2   Cu    Cu3+1 0.490670 0.482620 0.315620 0.940600
H1    H     H_    0.045089 0.229860 0.462877 0.099591
H2    H     H_    0.001717 0.668031 0.129815 0.123964
H3    H     H_    0.099781 0.737681 0.268433 0.131330
H4    H     H_    0.091615 0.545576 0.115905 0.135604
H5    H     H_    0.372631 0.042027 0.236631 0.127278
H6    H     H_    0.437734 0.879367 0.176143 0.167985
H7    H     H_    0.364156 0.885864 0.355084 0.132382
H8    H     H_    0.627382 0.957964 0.763333 0.127273
H9    H     H_    0.635851 0.114122 0.644870 0.132375
H10   H     H_    0.562288 0.120637 0.823845 0.167984
H11   H     H_    0.954911 0.770139 0.537123 0.099591
H12   H     H_    0.937134 0.344400 0.201725 0.100748
H13   H     H_    0.062866 0.655600 0.798274 0.100748
H14   H     H_    0.435015 0.377591 0.948828 0.240948
H15   H     H_    0.564985 0.622409 0.051172 0.240947
H16   H     H_    0.998283 0.331969 0.870185 0.123964
H17   H     H_    0.908385 0.454424 0.884094 0.135604
H18   H     H_    0.900219 0.262319 0.731567 0.131330
N1    N     N_2   0.476600 0.456420 0.038510 -0.260231
N2    N     N_2   0.523400 0.543580 0.961490 -0.260232
O1    O     O_R   0.506070 0.286130 0.619780 -0.514094
O2    O     O_R   0.493930 0.713870 0.380220 -0.514097
O3    O     O_R   0.490300 0.256770 0.308360 -0.500963
O4    O     O_R   0.509700 0.743230 0.691640 -0.500963
O5    O     O_R   0.386960 0.514660 0.655680 -0.499712
O6    O     O_R   0.613040 0.485340 0.344320 -0.499711
O7    O     O_R   0.371190 0.485310 0.344260 -0.498673
O8    O     O_R   0.628810 0.514690 0.655740 -0.498672

loop_
_geom_bond_atom_site_label_1
_geom_bond_atom_site_label_2
_ccdc_geom_bond_type
C2    H11   S    
C17   O6    A    
N1    N2    D    
C13   H4    S    
H15   N2    S    
Cu1   O1    S    
C5    H13   S    
C7    C22   S    
C14   C18   S    
C15   H10   S    
C16   O7    A    
C12   O4    A    
C14   H7    S    
Cu1   Cu2   S    
Cu2   O2    S    
C2    C21   S    
Cu1   O8    S    
C13   C21   S    
C15   H8    S    
C5    C20   S    
C15   C19   S    
Cu2   O3    S    
C1    O1    A    
C1    C18   S    
C8    C20   S    
C14   H6    S    
C3    C9    T    
C4    C17   S    
C12   C19   S    
C8    C10   S    
C20   C22   S    
C11   H17   S    
Cu2   O6    S    
C11   H16   S    
C11   C20   S    
C2    C8    S    
C13   H2    S    
Cu1   O5    S    
Cu2   O7    S    
C3    C16   S    
C14   H5    S    
C4    C10   T    
C2    C5    S    
C7    C9    S    
H14   N1    S    
C16   O5    A    
C17   O8    A    
C11   H18   S    
C12   O2    A    
C18   C19   D    
C5    C7    S    
Cu2   N1    S    
C13   H3    S    
C6    C8    S    
Cu1   O4    S    
C7    C21   S    
C6    C21   S    
C15   H9    S    
C1    O3    A    
Cu1   N2    S    
C6    H12   S    
C22   H1    S    
C6    C22   S    
