data_mof_unit_37739.cif
_audit_creation_date              2012-12-10T19:42:14-0500
_audit_creation_method            fapswitch 2.2
_symmetry_space_group_name_H-M    P1
_symmetry_Int_Tables_number       1
_space_group_crystal_system       triclinic
_cell_length_a                    10.797864
_cell_length_b                    10.925738
_cell_length_c                    9.727447
_cell_angle_alpha                 89.883715
_cell_angle_beta                  90.232928
_cell_angle_gamma                 89.969629
_cell_volume                      1147.57997709

loop_
_atom_site_label
_atom_site_type_symbol
_atom_type_description
_atom_site_fract_x
_atom_site_fract_y
_atom_site_fract_z
_atom_type_partial_charge
C1    C     C_R   0.497732 0.265473 0.500143 0.851078
C2    C     C_R   0.208375 0.129347 0.150907 -0.123702
C3    C     C_R   0.937295 0.450954 0.381656 -0.241355
C4    C     C_R   0.873610 0.469601 0.505445 -0.151356
C5    C     C_R   0.938089 0.447333 0.631208 -0.133612
C6    C     C_R   0.067551 0.431015 0.628689 0.388392
C7    C     C_R   0.130242 0.452503 0.503934 -0.201221
C8    C     C_R   0.064874 0.430254 0.381997 -0.029434
C9    C     C_R   0.888270 0.516312 0.869453 -0.107686
C10   C     C_R   0.839835 0.492620 0.999707 -0.168955
C11   C     C_R   0.777739 0.382681 0.025140 -0.138859
C12   C     C_R   0.263475 0.482939 0.500499 0.851053
C13   C     C_R   0.758976 0.298660 0.918982 -0.158808
C14   C     C_R   0.804862 0.323091 0.787781 -0.015982
C15   C     C_R   0.872883 0.430663 0.763453 0.188056
C16   C     C_2   0.488424 0.933218 0.387472 -0.159790
C17   C     C_2   0.505779 0.866705 0.501845 -0.308486
C18   C     C_2   0.493824 0.067257 0.387001 -0.161057
C19   C     C_2   0.489623 0.133536 0.502648 -0.283520
C20   C     C_2   0.481590 0.402826 0.922678 0.032697
C21   C     C_2   0.490283 0.401726 0.077436 -0.125908
C22   C     C_R   0.500840 0.734568 0.499962 0.853982
C23   C     C_R   0.738514 0.492098 0.501059 0.800897
C24   C     C_R   0.229810 0.248791 0.105835 -0.100997
C25   C     C_R   0.180935 0.348819 0.177531 -0.087877
C26   C     C_R   0.110398 0.328746 0.295764 0.094547
C27   C     C_R   0.088829 0.207956 0.340409 -0.128560
C28   C     C_R   0.137633 0.108871 0.268226 -0.128441
Cu1   Cu    Cu3+1 0.500020 0.500020 0.638630 1.003424
Cu2   Cu    Cu3+1 0.499980 0.499980 0.361370 0.935369
H1    H     H_    0.246500 0.052756 0.094751 0.136852
H2    H     H_    0.742678 0.362866 0.126724 0.153084
H3    H     H_    0.709492 0.214346 0.938653 0.118626
H4    H     H_    0.792539 0.256142 0.706894 0.108325
H5    H     H_    0.472121 0.888539 0.289380 0.162385
H6    H     H_    0.526333 0.907731 0.600430 0.143634
H7    H     H_    0.500219 0.112016 0.287451 0.155813
H8    H     H_    0.477230 0.092467 0.602930 0.153888
H9    H     H_    0.463723 0.316030 0.872950 0.165090
H10   H     H_    0.524409 0.578723 0.893991 0.188390
H11   H     H_    0.488799 0.312973 0.127055 0.148547
H12   H     H_    0.283309 0.263033 0.013981 0.190458
H13   H     H_    0.494205 0.582625 0.105850 0.198925
H14   H     H_    0.199138 0.441055 0.142265 0.180406
H15   H     H_    0.035570 0.190833 0.432651 0.149910
H16   H     H_    0.121205 0.016366 0.303720 0.139263
H17   H     H_    0.886436 0.439088 0.287051 0.164286
H18   H     H_    0.940359 0.599540 0.851953 0.137360
H19   H     H_    0.852451 0.558579 0.081363 0.142620
N1    N     N_2   0.498640 0.498660 0.846910 -0.255325
N2    N     N_2   0.498610 0.498630 0.153040 -0.282008
O1    O     O_R   0.500020 0.321960 0.617040 -0.572183
O2    O     O_R   0.499980 0.321920 0.382900 -0.593524
O3    O     O_R   0.319660 0.500030 0.617070 -0.493798
O4    O     O_R   0.319620 0.499990 0.382930 -0.586192
O5    O     O_R   0.500020 0.678080 0.617100 -0.585247
O6    O     O_R   0.499980 0.678040 0.382960 -0.580947
O7    O     O_R   0.680380 0.500010 0.617070 -0.582481
O8    O     O_R   0.680340 0.499970 0.382930 -0.583055
S1    S     S_3+6 0.145540 0.358005 0.769187 -0.037886
O9    O     O_2   0.254857 0.286341 0.718397 -0.299911
O10   O     O_2   0.189453 0.454979 0.867317 -0.352879
O11   O     O_3   0.053654 0.258002 0.851885 -0.544051
H20   H     H_    0.032906 0.297137 0.940464 0.367741

loop_
_geom_bond_atom_site_label_1
_geom_bond_atom_site_label_2
_ccdc_geom_bond_type
C14   H4    S    
C23   O7    A    
C2    C28   A    
Cu2   N2    S    
C24   C25   A    
C13   H3    S    
Cu1   Cu2   S    
Cu1   O5    S    
C24   H12   S    
C9    C10   A    
C17   C22   S    
C22   O5    A    
H13   N2    S    
Cu2   O8    S    
C27   H15   S    
C22   O6    A    
C9    C15   A    
C10   C11   A    
C7    C8    A    
C13   C14   A    
Cu1   O7    S    
C23   O8    A    
C11   C13   A    
C28   H16   S    
C26   C27   A    
C6    C7    A    
S1    O11   S    
H10   N1    S    
C5    C6    A    
C25   H14   S    
C16   C18   S    
C17   H6    S    
C18   H7    S    
C11   H2    S    
C3    C8    A    
Cu1   N1    S    
C2    H1    S    
C16   H5    S    
C2    C24   A    
C7    C12   S    
C1    O1    A    
C21   H11   S    
C5    C15   S    
C12   O4    A    
C1    C19   S    
Cu1   O3    S    
C3    C4    A    
Cu2   O6    S    
C6    S1    S    
C21   N2    D    
C19   H8    S    
C8    C26   S    
C20   C21   S    
C9    H18   S    
S1    O10   D    
C18   C19   D    
Cu2   O4    S    
C3    H17   S    
C27   C28   A    
C4    C23   S    
C20   H9    S    
C1    O2    A    
C14   C15   A    
C4    C5    A    
C20   N1    D    
C25   C26   A    
C10   H19   S    
C12   O3    A    
O11   H20   S    
C16   C17   D    
S1    O9    D    
Cu2   O2    S    
Cu1   O1    S    
