data_mof_unit_35874.cif
_audit_creation_date              2012-10-26T20:51:35-0400
_audit_creation_method            fapswitch 2.2
_symmetry_space_group_name_H-M    P1
_symmetry_Int_Tables_number       1
_space_group_crystal_system       triclinic
_cell_length_a                    9.619827
_cell_length_b                    10.856831
_cell_length_c                    13.867199
_cell_angle_alpha                 91.164865
_cell_angle_beta                  83.901799
_cell_angle_gamma                 90.128685
_cell_volume                      1439.80870103

loop_
_atom_site_label
_atom_site_type_symbol
_atom_type_description
_atom_site_fract_x
_atom_site_fract_y
_atom_site_fract_z
_atom_type_partial_charge
C1    C     C_R   0.500139 0.737212 0.502649 0.564803
C2    C     C_3   0.242283 0.925874 0.490899 -0.104347
C3    C     C_R   0.940765 0.466063 0.419019 0.171213
C4    C     C_R   0.476415 0.500205 0.682901 0.542178
C5    C     C_R   0.912066 0.550961 0.574538 0.004113
C6    C     C_R   0.060071 0.553991 0.574898 0.101209
C7    C     C_R   0.086732 0.473499 0.417125 0.128613
C8    C     C_3   0.112640 0.365968 0.350294 -0.251799
C9    C     C_3   0.953974 0.347974 0.359217 -0.126774
C10   C     C_R   0.499461 0.262585 0.501317 0.545138
C11   C     C_R   0.523615 0.499911 0.317095 0.546331
C12   C     C_1   0.461365 0.500446 0.786362 -0.022868
C13   C     C_1   0.539145 0.500167 0.213618 -0.047667
C14   C     C_2   0.562186 0.500788 0.022224 0.106022
C15   C     C_2   0.445475 0.500693 0.977406 -0.068975
C16   C     C_1   0.452046 0.500614 0.873429 -0.019152
C17   C     C_1   0.550675 0.500455 0.126507 -0.065344
C18   C     C_3   0.110833 0.630575 0.656339 -0.245408
C19   C     C_3   0.091456 0.562903 0.752532 -0.430635
C20   C     C_3   0.910025 0.226414 0.410190 -0.257034
C21   C     C_3   0.937118 0.221201 0.517322 -0.416214
C22   C     C_3   0.157387 0.861315 0.415702 -0.260303
C23   C     C_R   0.396885 0.933366 0.463423 0.012227
C24   C     C_3   0.214927 0.877741 0.309399 -0.416899
C25   C     C_R   0.502868 0.870461 0.502798 0.032317
C26   C     C_R   0.613235 0.938015 0.538196 0.067695
C27   C     C_R   0.609521 0.066609 0.538109 -0.164099
C28   C     C_R   0.499868 0.128980 0.501532 -0.023462
C29   C     C_R   0.395548 0.060813 0.462296 -0.008520
C30   C     C_3   0.241126 0.065441 0.489148 -0.248736
Cu1   Cu    Cu3+1 0.359330 0.500020 0.500000 0.904089
Cu2   Cu    Cu3+1 0.640670 0.499980 0.500000 0.941740
H1    H     H_    0.343201 0.500472 0.019089 0.085183
H2    H     H_    0.137846 0.469253 0.744776 0.176623
H3    H     H_    0.142571 0.615845 0.808355 0.132219
H4    H     H_    0.978503 0.553906 0.777918 0.141340
H5    H     H_    0.218271 0.663992 0.640150 0.202462
H6    H     H_    0.048818 0.717218 0.665297 0.089587
H7    H     H_    0.041388 0.258033 0.529260 0.158243
H8    H     H_    0.857799 0.275127 0.564041 0.186260
H9    H     H_    0.932282 0.124126 0.541028 0.107074
H10   H     H_    0.798653 0.207774 0.402786 0.178817
H11   H     H_    0.967964 0.149715 0.369778 0.120855
H12   H     H_    0.156269 0.394821 0.276745 0.108514
H13   H     H_    0.751888 0.423485 0.987070 0.225384
H14   H     H_    0.751513 0.578874 0.989649 0.225735
H15   H     H_    0.818830 0.903619 0.542038 0.217537
H16   H     H_    0.723805 0.909026 0.651814 0.218249
H17   H     H_    0.221523 0.976651 0.290856 0.143464
H18   H     H_    0.319982 0.834950 0.294624 0.163253
H19   H     H_    0.144124 0.831351 0.261846 0.129530
H20   H     H_    0.153069 0.761163 0.430349 0.176941
H21   H     H_    0.048129 0.895972 0.426523 0.130015
H22   H     H_    0.174627 0.293560 0.380711 0.153906
H23   H     H_    0.911156 0.357136 0.288298 0.115998
H24   H     H_    0.688283 0.117421 0.571828 0.128256
H25   H     H_    0.212709 0.108664 0.561934 0.124981
H26   H     H_    0.186091 0.102581 0.430165 0.133994
H27   H     H_    0.215549 0.890689 0.565415 0.114749
H28   H     H_    0.845410 0.592467 0.634130 0.144580
N1    N     N_R   0.852140 0.499070 0.499400 -0.246976
N2    N     N_R   0.148050 0.499110 0.499400 -0.236478
N3    N     N_3   0.697724 0.501094 0.967852 -0.619044
N4    N     N_3   0.724041 0.877461 0.580056 -0.612446
O1    O     O_R   0.381190 0.680360 0.500000 -0.534253
O2    O     O_R   0.618770 0.680320 0.499990 -0.456866
O3    O     O_R   0.364410 0.500000 0.637850 -0.513547
O4    O     O_R   0.602000 0.499960 0.637840 -0.497644
O5    O     O_R   0.381230 0.319680 0.500010 -0.499993
O6    O     O_R   0.618810 0.319640 0.500000 -0.514379
O7    O     O_R   0.398000 0.500040 0.362160 -0.496675
O8    O     O_R   0.635590 0.500000 0.362150 -0.494899

loop_
_geom_bond_atom_site_label_1
_geom_bond_atom_site_label_2
_ccdc_geom_bond_type
C2    C22   S    
C4    O3    A    
C20   H10   S    
C30   H25   S    
C7    N2    A    
C29   C30   S    
C3    C9    S    
C4    C12   S    
C9    C20   S    
C1    O1    A    
Cu1   Cu2   S    
C21   H7    S    
C13   C17   T    
H14   N3    S    
C2    C30   S    
C6    N2    A    
C24   H19   S    
Cu1   O7    S    
C1    O2    A    
C18   H6    S    
C5    N1    A    
C7    C8    S    
Cu2   O8    S    
C19   H3    S    
Cu2   O4    S    
C27   H24   S    
C1    C25   S    
C11   C13   S    
C14   C17   S    
Cu1   N2    S    
C26   C27   A    
C21   H8    S    
Cu1   O5    S    
C9    H23   S    
C14   N3    S    
C23   C29   A    
C22   C24   S    
Cu2   O2    S    
C28   C29   A    
C24   H17   S    
C18   H5    S    
C15   H1    S    
Cu2   N1    S    
C22   H21   S    
C3    C7    A    
C19   H4    S    
C23   C25   A    
C24   H18   S    
C5    C6    A    
C6    C18   S    
C11   O7    A    
H16   N4    S    
C11   O8    A    
Cu1   O3    S    
C3    N1    A    
C8    H22   S    
C15   C16   S    
C10   O5    A    
C10   O6    A    
C2    C23   S    
C20   H11   S    
C20   C21   S    
C19   H2    S    
C22   H20   S    
C18   C19   S    
C21   H9    S    
C10   C28   S    
H15   N4    S    
Cu1   O1    S    
C26   N4    S    
C14   C15   D    
C30   H26   S    
Cu2   O6    S    
C5    H28   S    
C25   C26   A    
C2    H27   S    
C4    O4    A    
H13   N3    S    
C12   C16   T    
C8    C9    S    
C27   C28   A    
C8    H12   S    
