data_mof_unit_48265.cif
_audit_creation_date              2013-03-05T16:59:53-0500
_audit_creation_method            fapswitch 2.2
_symmetry_space_group_name_H-M    P1
_symmetry_Int_Tables_number       1
_space_group_crystal_system       triclinic
_cell_length_a                    10.349734
_cell_length_b                    16.167586
_cell_length_c                    16.799442
_cell_angle_alpha                 89.635714
_cell_angle_beta                  92.823078
_cell_angle_gamma                 105.250334
_cell_volume                      2708.71028252

loop_
_atom_site_label
_atom_site_type_symbol
_atom_site_description
_atom_site_fract_x
_atom_site_fract_y
_atom_site_fract_z
_atom_type_partial_charge
O1    O     O_R   0.494500 0.421750 0.612630 -0.564069
O2    O     O_R   0.505500 0.578250 0.387370 -0.556864
O3    O     O_R   0.504370 0.562470 0.618930 -0.648075
O4    O     O_R   0.495630 0.437530 0.381070 -0.652873
C1    C     C_R   0.496476 0.489626 0.652964 0.944897
C2    C     C_R   0.506780 0.510742 0.347099 0.909713
O5    O     O_R   0.679100 0.455920 0.498020 -0.588858
O6    O     O_R   0.320900 0.544080 0.501980 -0.616839
O7    O     O_R   0.688960 0.596630 0.504320 -0.637608
O8    O     O_R   0.311040 0.403370 0.495680 -0.638203
C3    C     C_R   0.746824 0.534902 0.501124 0.833738
C4    C     C_R   0.253145 0.465208 0.495406 0.780668
Zn1   Zn    Zn3+2 0.493410 0.406040 0.495790 0.930598
Zn2   Zn    Zn3+2 0.506590 0.593960 0.504210 0.920093
H1    H     H_    0.136967 0.548465 0.394084 0.105240
H2    H     H_    0.860564 0.486496 0.381787 0.119043
C5    C     C_2   0.890870 0.552200 0.492907 0.329292
C6    C     C_2   0.108490 0.449248 0.479482 0.361809
C7    C     C_2   0.930579 0.513811 0.431064 -0.216490
C8    C     C_2   0.066525 0.503745 0.430171 -0.230350
C9    C     C_R   0.487202 0.484511 0.739000 -0.219514
C10   C     C_R   0.534664 0.517749 0.262597 -0.190028
C11   C     C_R   0.522771 0.561016 0.782979 -0.395079
C12   C     C_R   0.546450 0.444074 0.222877 -0.443388
C13   C     C_R   0.516501 0.559887 0.865059 0.494140
C14   C     C_R   0.570806 0.446261 0.142065 0.491453
C15   C     C_R   0.481907 0.480348 0.904369 0.149751
C16   C     C_R   0.587805 0.524343 0.101712 0.195547
C17   C     C_R   0.438783 0.404174 0.860724 -0.349484
C18   C     C_R   0.586995 0.599244 0.141928 -0.393710
C19   C     C_R   0.439369 0.405434 0.777831 0.451962
C20   C     C_R   0.562586 0.597351 0.223063 0.456048
N1    N     N_2   0.488139 0.475337 0.987783 -0.154474
N2    N     N_2   0.589010 0.527028 0.018542 -0.082974
H3    H     H_    0.538541 0.384845 0.254812 0.185087
H4    H     H_    0.556237 0.622318 0.754091 0.192154
H5    H     H_    0.407257 0.343528 0.891207 0.176318
H6    H     H_    0.598912 0.658281 0.108971 0.179150
N3    N     N_R   0.515370 0.719110 0.509820 -0.134224
N4    N     N_R   0.484630 0.280890 0.490180 -0.134743
C21   C     C_R   0.427020 0.745507 0.459218 -0.073708
C22   C     C_R   0.541624 0.247434 0.553177 -0.086698
C23   C     C_R   0.417242 0.831205 0.459143 -0.085378
C24   C     C_R   0.550029 0.161492 0.552921 -0.072187
C25   C     C_R   0.506158 0.891894 0.509965 0.150228
C26   C     C_R   0.509125 0.111353 0.482387 0.143497
C27   C     C_R   0.604935 0.865910 0.556306 0.362941
C28   C     C_R   0.453486 0.147791 0.417928 0.343397
C29   C     C_R   0.603217 0.777638 0.560000 0.064350
C30   C     C_R   0.427099 0.228799 0.426391 0.074129
N5    N     N_2   0.486994 0.975040 0.523958 -0.155429
N6    N     N_2   0.529634 0.027883 0.470606 -0.171887
H7    H     H_    0.581783 0.288006 0.604308 0.199878
H8    H     H_    0.360632 0.698578 0.419937 0.167688
C31   C     C_3   0.680030 0.746210 0.628016 -0.333607
C32   C     C_3   0.829121 0.792367 0.641597 -0.365255
C33   C     C_3   0.898398 0.742471 0.699390 -0.912508
H9    H     H_    0.851124 0.736013 0.757875 0.277667
H10   H     H_    0.891054 0.677462 0.675506 0.293997
H11   H     H_    0.005730 0.777500 0.708705 0.252991
H12   H     H_    0.879403 0.800728 0.584183 0.212568
H13   H     H_    0.840695 0.855377 0.670184 0.283255
H14   H     H_    0.628521 0.750303 0.683734 0.181435
H15   H     H_    0.676859 0.679326 0.617668 0.265951
C34   C     C_3   0.333271 0.255154 0.365250 -0.335909
C35   C     C_3   0.191981 0.193137 0.362035 -0.364967
C36   C     C_3   0.101947 0.219352 0.297330 -0.926925
H16   H     H_    0.098841 0.286805 0.306100 0.252274
H17   H     H_    0.140154 0.212952 0.237644 0.268980
H18   H     H_    0.998513 0.177064 0.299492 0.253659
H19   H     H_    0.194718 0.126514 0.349090 0.274871
H20   H     H_    0.146943 0.192953 0.420677 0.197567
H21   H     H_    0.319383 0.318082 0.380065 0.244582
H22   H     H_    0.376267 0.259070 0.305696 0.182001
O9    O     O_3   0.018401 0.390852 0.523971 -0.575980
C37   C     C_3   0.012700 0.307470 0.497073 0.080003
H23   H     H_    0.101207 0.287184 0.521353 0.163205
H24   H     H_    0.006654 0.302996 0.430755 0.142316
C38   C     C_3   0.887683 0.245624 0.526400 -0.849758
H25   H     H_    0.798288 0.265176 0.502841 0.270580
H26   H     H_    0.880870 0.179802 0.504836 0.206397
H27   H     H_    0.891000 0.246181 0.592516 0.252324
O10   O     O_3   0.976296 0.581124 0.558935 -0.590705
C39   C     C_3   0.062208 0.662265 0.542639 0.092006
H28   H     H_    0.004946 0.711340 0.543086 0.138578
H29   H     H_    0.108537 0.664638 0.483960 0.139435
C40   C     C_3   0.175357 0.684456 0.606789 -0.798159
H30   H     H_    0.239164 0.639278 0.603661 0.277732
H31   H     H_    0.238413 0.750639 0.598102 0.199237
H32   H     H_    0.134251 0.679919 0.666853 0.250880
O11   O     O_3   0.588978 0.375326 0.102514 -0.592454
C41   C     C_3   0.472656 0.306090 0.104960 0.107425
H33   H     H_    0.381123 0.326169 0.085127 0.139980
H34   H     H_    0.460364 0.278685 0.165780 0.128115
C42   C     C_3   0.486439 0.235376 0.049343 -0.815031
H35   H     H_    0.573970 0.211678 0.069563 0.255958
H36   H     H_    0.394511 0.181243 0.049361 0.200212
H37   H     H_    0.501046 0.260049 0.987747 0.260860
O12   O     O_3   0.551422 0.636570 0.906866 -0.596366
C43   C     C_3   0.436710 0.667970 0.909667 0.091179
H38   H     H_    0.358323 0.623826 0.944259 0.146424
H39   H     H_    0.394584 0.676034 0.848595 0.135083
C44   C     C_3   0.475103 0.755246 0.950632 -0.810898
H40   H     H_    0.552637 0.800812 0.917020 0.256386
H41   H     H_    0.385505 0.780597 0.952960 0.205961
H42   H     H_    0.515179 0.749683 0.012367 0.250519
O13   O     O_3   0.400233 0.328834 0.735935 -0.602109
C45   C     C_3   0.260547 0.309575 0.718663 0.131443
H43   H     H_    0.233953 0.360870 0.681828 0.150397
H44   H     H_    0.204917 0.301657 0.774543 0.131118
C46   C     C_3   0.215790 0.225887 0.671725 -0.838844
H45   H     H_    0.237571 0.172780 0.707552 0.244901
H46   H     H_    0.106216 0.210598 0.657343 0.210106
H47   H     H_    0.268995 0.231617 0.615316 0.261334
O14   O     O_3   0.557110 0.671309 0.262725 -0.590806
C47   C     C_3   0.682098 0.733402 0.260825 0.127310
H48   H     H_    0.690252 0.767480 0.202852 0.138365
H49   H     H_    0.768361 0.704447 0.270391 0.121291
C48   C     C_3   0.692100 0.799096 0.326858 -0.840152
H50   H     H_    0.692368 0.767833 0.385854 0.261609
H51   H     H_    0.786650 0.850656 0.323111 0.198915
H52   H     H_    0.606046 0.828112 0.320931 0.257903
C49   C     C_3   0.609273 0.128548 0.626500 -0.369115
C50   C     C_3   0.500816 0.092285 0.685641 -0.313239
C51   C     C_3   0.556789 0.050486 0.756249 -0.857635
H53   H     H_    0.593348 0.995922 0.735579 0.291930
H54   H     H_    0.640649 0.097979 0.787856 0.260615
H55   H     H_    0.476656 0.025917 0.798594 0.242768
H56   H     H_    0.461651 0.145051 0.708053 0.240952
H57   H     H_    0.416111 0.043770 0.655786 0.230712
H58   H     H_    0.660098 0.079459 0.610321 0.261169
H59   H     H_    0.687642 0.181356 0.656079 0.185861
C52   C     C_3   0.316823 0.856852 0.401916 -0.356646
C53   C     C_3   0.204401 0.881684 0.444631 -0.306793
C54   C     C_3   0.096382 0.896193 0.385140 -0.919811
H60   H     H_    0.140621 0.947909 0.342936 0.287417
H61   H     H_    0.048589 0.836287 0.351242 0.254980
H62   H     H_    0.018014 0.915601 0.417552 0.238095
H63   H     H_    0.157733 0.830224 0.486063 0.199030
H64   H     H_    0.244497 0.941505 0.479796 0.245773
H65   H     H_    0.370313 0.911297 0.365071 0.238333
H66   H     H_    0.270694 0.802975 0.360039 0.185567
O15   O     O_3   0.700260 0.926904 0.600244 -0.621783
C55   C     C_3   0.802079 0.968489 0.548903 0.074767
H67   H     H_    0.763803 0.008899 0.504888 0.160354
H68   H     H_    0.841084 0.921541 0.515585 0.127873
C56   C     C_3   0.919325 0.026756 0.597050 -0.887981
H69   H     H_    0.969143 0.988637 0.637228 0.251328
H70   H     H_    0.994471 0.063115 0.555969 0.214703
H71   H     H_    0.884385 0.073006 0.633313 0.259212
O16   O     O_3   0.414700 0.100776 0.348291 -0.618940
C57   C     C_3   0.523085 0.119988 0.297446 0.099712
H72   H     H_    0.609296 0.098310 0.323978 0.145283
H73   H     H_    0.556612 0.190040 0.285197 0.127443
C58   C     C_3   0.478635 0.073235 0.218527 -0.835442
H74   H     H_    0.393554 0.094389 0.190204 0.254898
H75   H     H_    0.563056 0.087624 0.177912 0.209050
H76   H     H_    0.446500 0.002959 0.228493 0.253036

loop_
_geom_bond_atom_site_label_1
_geom_bond_atom_site_label_2
_geom_bond_distance
_ccdc_geom_bond_type
C54   H62   1.110130 S    
C31   C32   1.533513 S    
C6    O9    1.384167 S    
C27   O15   1.384323 S    
C49   H59   1.111359 S    
C58   H75   1.110342 S    
C42   H35   1.110629 S    
C45   H43   1.115006 S    
C56   H69   1.108537 S    
C37   C38   1.514138 S    
C40   H30   1.109076 S    
C42   H37   1.109582 S    
C49   C50   1.532015 S    
N3    C21   1.365660 A    
C15   N1    1.402436 S    
O5    C3    1.284911 A    
C9    C19   1.411883 A    
C52   H66   1.112446 S    
C10   C20   1.411842 A    
O1    C1    1.288443 A    
C10   C12   1.404824 A    
C56   H70   1.110819 S    
C12   C14   1.391508 A    
C22   H7    1.081404 S    
C53   H64   1.108401 S    
C33   H10   1.109855 S    
C15   C17   1.394129 A    
C25   N5    1.431979 S    
O15   C55   1.419811 S    
C2    C10   1.460295 S    
C26   N6    1.436542 S    
C34   H21   1.096080 S    
C47   H48   1.111751 S    
C18   H6    1.082077 S    
C25   C27   1.403935 A    
O4    Zn1   1.989897 S    
C23   C52   1.516443 S    
C41   H33   1.114973 S    
Zn1   N4    2.004004 S    
C44   H40   1.110787 S    
Zn2   N3    2.004006 S    
C13   O12   1.382501 S    
C35   H20   1.110090 S    
O10   C39   1.411479 S    
C47   H49   1.116625 S    
C31   H14   1.110507 S    
C51   H55   1.110347 S    
O16   C57   1.411431 S    
C39   C40   1.523513 S    
C44   H42   1.109868 S    
C28   C30   1.415791 A    
C35   C36   1.526973 S    
C16   N2    1.398164 S    
C58   H76   1.110796 S    
C21   C23   1.415495 A    
O2    C2    1.291113 A    
C22   C24   1.414885 A    
C55   C56   1.525056 S    
C43   H39   1.115288 S    
C24   C26   1.422205 A    
C48   H51   1.110276 S    
H1    C8    1.087413 S    
C26   C28   1.400076 A    
C12   H3    1.080760 S    
N5    N6    1.248542 D    
C47   C48   1.521578 S    
C54   H60   1.111073 S    
C56   H71   1.109398 S    
C37   H23   1.110212 S    
C55   H68   1.114106 S    
C53   H63   1.106484 S    
C38   H26   1.109786 S    
O7    Zn2   1.876498 S    
C33   H11   1.110075 S    
C14   O11   1.388362 S    
C29   C31   1.520343 S    
C43   C44   1.520848 S    
C34   H22   1.109595 S    
C36   H16   1.110390 S    
C36   H17   1.111020 S    
O9    C37   1.410054 S    
O7    C3    1.294526 A    
C35   H19   1.108122 S    
C57   C58   1.520017 S    
O6    C4    1.285976 A    
C31   H15   1.088024 S    
C41   H34   1.110793 S    
N1    N2    1.244474 D    
C50   H57   1.111430 S    
C46   H46   1.109896 S    
C45   C46   1.521482 S    
C39   H28   1.108474 S    
C23   C25   1.413087 A    
O3    Zn2   1.989895 S    
O8    C4    1.293612 A    
O4    C2    1.290778 A    
N3    C29   1.383735 A    
C57   H73   1.114804 S    
C34   C35   1.538898 S    
C9    C11   1.398786 A    
C52   C53   1.536751 S    
C44   H41   1.110476 S    
C32   H13   1.104133 S    
C40   H32   1.108821 S    
O1    Zn1   1.979914 S    
C32   C33   1.527497 S    
O13   C45   1.412181 S    
C4    C6    1.462106 S    
O11   C41   1.414008 S    
C48   H52   1.110727 S    
C54   H61   1.110972 S    
C3    C5    1.456131 S    
O6    Zn2   1.877013 S    
C46   H45   1.110035 S    
C49   H58   1.103148 S    
C19   O13   1.382841 S    
C37   H24   1.114517 S    
C55   H67   1.109809 S    
O3    C1    1.290747 A    
O8    Zn1   1.876497 S    
C38   H27   1.109570 S    
C48   H50   1.109893 S    
C42   H36   1.110476 S    
C53   C54   1.525987 S    
C27   C29   1.423570 A    
C24   C49   1.508763 S    
C14   C16   1.402928 A    
O12   C43   1.411507 S    
C36   H18   1.110515 S    
C7    C8    1.459078 S    
C16   C18   1.392565 A    
C17   C19   1.392869 A    
C18   C20   1.397115 A    
C33   H9    1.111210 S    
C51   H53   1.111030 S    
H2    C7    1.087487 S    
N4    C30   1.377312 A    
N4    C22   1.363681 A    
C43   H38   1.114368 S    
C5    C7    1.348311 D    
C45   H44   1.114473 S    
C50   H56   1.111237 S    
C46   H47   1.110535 S    
C6    C8    1.344541 D    
C41   C42   1.520825 S    
C20   O14   1.387950 S    
O2    Zn2   1.979913 S    
C30   C34   1.514413 S    
C21   H8    1.081987 S    
C38   H25   1.108506 S    
O5    Zn1   1.877014 S    
C11   C13   1.383380 A    
C1    C9    1.453631 S    
C57   H72   1.113983 S    
C11   H4    1.080569 S    
C28   O16   1.382758 S    
C17   H5    1.082532 S    
C58   H74   1.110786 S    
C51   H54   1.110870 S    
C40   H31   1.110037 S    
C32   H12   1.109128 S    
C39   H29   1.113342 S    
C52   H65   1.111252 S    
C5    O10   1.386820 S    
O14   C47   1.415156 S    
C50   C51   1.525586 S    
C13   C15   1.410044 A    
