data_mof_unit_24030.cif
_audit_creation_date              2013-03-05T15:59:35-0500
_audit_creation_method            fapswitch 2.2
_symmetry_space_group_name_H-M    P1
_symmetry_Int_Tables_number       1
_space_group_crystal_system       triclinic
_cell_length_a                    12.635762
_cell_length_b                    13.062735
_cell_length_c                    15.755524
_cell_angle_alpha                 92.146582
_cell_angle_beta                  103.169905
_cell_angle_gamma                 80.639294
_cell_volume                      2498.45207157

loop_
_atom_site_label
_atom_site_type_symbol
_atom_site_description
_atom_site_fract_x
_atom_site_fract_y
_atom_site_fract_z
_atom_type_partial_charge
O1    O     O_R   0.366730 0.627160 0.478790 -0.548108
O2    O     O_R   0.544830 0.662520 0.507160 -0.562903
C1    C     C_R   0.437570 0.691495 0.483675 1.000697
O3    O     O_R   0.410960 0.482330 0.609040 -0.577909
O4    O     O_R   0.589060 0.517690 0.637410 -0.574235
C2    C     C_R   0.501545 0.500490 0.661686 0.902239
Zn1   Zn    Zn3+2 0.381080 0.476390 0.481050 1.044738
Zn2   Zn    Zn3+2 0.618920 0.523610 0.518950 1.023689
O5    O     O_R   0.455170 0.337480 0.492840 -0.637411
O6    O     O_R   0.633270 0.372840 0.521210 -0.595590
O7    O     O_R   0.410940 0.482310 0.362590 -0.595753
O8    O     O_R   0.589040 0.517670 0.390960 -0.617565
C3    C     C_R   0.562509 0.307926 0.510408 0.870657
C4    C     C_R   0.498802 0.498661 0.338345 0.875572
C5    C     C_3   0.401193 0.532957 0.010123 0.363089
C6    C     C_3   0.473880 0.594681 0.972071 0.098377
C7    C     C_1   0.505081 0.500776 0.750942 -0.057250
C8    C     C_1   0.496771 0.495377 0.249278 -0.119447
C9    C     C_3   0.433588 0.437399 0.955535 0.134173
C10   C     C_3   0.505385 0.499479 0.916699 -0.221645
C11   C     C_3   0.533188 0.398588 0.028811 0.114895
C12   C     C_3   0.501351 0.493834 0.084315 -0.216858
C13   C     C_3   0.605730 0.460377 0.990647 0.384611
C14   C     C_3   0.573531 0.555873 0.045416 0.106203
C15   C     C_1   0.506244 0.500467 0.826225 0.218527
C16   C     C_1   0.497828 0.493651 0.174330 0.197854
C17   C     C_R   0.722625 0.049053 0.471021 -0.178846
H1    H     H_    0.796163 0.019102 0.447977 0.212327
C18   C     C_R   0.602921 0.196200 0.513062 -0.172625
C19   C     C_R   0.295473 0.848315 0.484522 0.151246
C20   C     C_R   0.294139 0.936439 0.538898 0.148370
C21   C     C_R   0.386359 0.988087 0.556668 0.371173
C22   C     C_R   0.469485 0.962101 0.507812 -0.108185
C23   C     C_R   0.474401 0.867125 0.462702 -0.169547
C24   C     C_R   0.548307 0.025818 0.503471 0.059342
C25   C     C_R   0.640902 0.987132 0.468356 -0.065967
C26   C     C_R   0.645896 0.891291 0.425097 0.432815
C27   C     C_R   0.557069 0.836780 0.415018 0.467421
C28   C     C_R   0.529055 0.131311 0.521891 -0.242076
C29   C     C_R   0.706293 0.153112 0.497181 0.492141
C30   C     C_R   0.397142 0.802892 0.467329 -0.230785
H2    H     H_    0.450363 0.166283 0.533779 0.231310
C31   C     C_R   0.100695 0.327022 0.389904 0.466829
H3    H     H_    0.269171 0.315562 0.380312 0.182235
N1    N     N_R   0.222180 0.444680 0.455580 -0.180907
C32   C     C_R   0.804627 0.623272 0.610348 0.234700
C33   C     C_R   0.915813 0.627196 0.648304 0.083206
C34   C     C_R   0.996166 0.563318 0.614459 0.461602
C35   C     C_R   0.965655 0.511225 0.534277 -0.125656
C36   C     C_R   0.855083 0.498031 0.506325 -0.000128
C37   C     C_R   0.042592 0.465539 0.485495 -0.191144
C38   C     C_R   0.016482 0.384127 0.426123 -0.120543
C39   C     C_R   0.907136 0.364034 0.403603 0.526823
C40   C     C_R   0.827940 0.422849 0.443126 -0.177698
C41   C     C_R   0.143140 0.502038 0.490884 0.443904
C42   C     C_R   0.203791 0.358636 0.407278 -0.158287
N2    N     N_R   0.776980 0.554790 0.543960 -0.187684
H4    H     H_    0.747188 0.403549 0.427754 0.224289
N3    N     N_R   0.444262 0.702283 0.942980 0.250422
O9    O     O_R   0.426778 0.775658 0.998570 -0.320819
O10   O     O_R   0.437156 0.725847 0.862207 -0.330176
N4    N     N_R   0.194792 0.816675 0.435592 0.277476
O11   O     O_R   0.100588 0.875120 0.434289 -0.329906
O12   O     O_R   0.198500 0.746234 0.375198 -0.343950
O13   O     O_3   0.394868 0.061095 0.622778 -0.602329
C43   C     C_3   0.467674 0.014619 0.697778 -0.055677
H5    H     H_    0.552434 0.991828 0.687107 0.172368
H6    H     H_    0.437740 0.946278 0.718934 0.193042
H7    H     H_    0.471899 0.072078 0.751618 0.220730
N5    N     N_R   0.204684 0.968412 0.581378 0.249576
O14   O     O_R   0.158509 0.899194 0.610554 -0.254897
O15   O     O_R   0.175808 0.065866 0.598393 -0.380396
O16   O     O_3   0.551797 0.753383 0.358204 -0.606619
C44   C     C_3   0.482768 0.788296 0.277670 -0.136991
H8    H     H_    0.516035 0.849162 0.248746 0.206221
H9    H     H_    0.397224 0.817459 0.284280 0.150696
H10   H     H_    0.478924 0.722096 0.231579 0.215037
O17   O     O_3   0.880654 0.283140 0.346911 -0.552557
C45   C     C_3   0.785706 0.315271 0.280995 -0.153237
H11   H     H_    0.782196 0.395309 0.257202 0.130698
H12   H     H_    0.710188 0.308800 0.303893 0.173099
H13   H     H_    0.787399 0.262028 0.224693 0.216086
O18   O     O_3   0.082661 0.243424 0.335096 -0.564496
C46   C     C_3   0.121168 0.151544 0.384479 -0.108832
H14   H     H_    0.105789 0.084286 0.340917 0.213250
H15   H     H_    0.075977 0.148825 0.437098 0.193274
H16   H     H_    0.211430 0.142596 0.412398 0.117357
N6    N     N_R   0.154545 0.606254 0.519226 0.262986
O19   O     O_R   0.235595 0.624439 0.582160 -0.286761
O20   O     O_R   0.072862 0.680855 0.493391 -0.358090
N7    N     N_R   0.720702 0.690681 0.641582 0.262405
O21   O     O_R   0.695615 0.786402 0.614947 -0.427943
O22   O     O_R   0.693077 0.666697 0.712047 -0.294373
O23   O     O_3   0.295254 0.566854 0.025520 -0.571497
C47   C     C_3   0.224829 0.615273 0.950268 -0.008632
H17   H     H_    0.237250 0.575853 0.888568 0.148593
H18   H     H_    0.234885 0.697876 0.948338 0.199063
H19   H     H_    0.138455 0.613553 0.953779 0.205618
O24   O     O_3   0.103469 0.548559 0.662901 -0.547576
C48   C     C_3   0.124462 0.453154 0.707302 -0.177009
H20   H     H_    0.210817 0.441707 0.745402 0.228658
H21   H     H_    0.115648 0.386710 0.661294 0.151364
H22   H     H_    0.070052 0.453467 0.753855 0.175185
N8    N     N_R   0.948256 0.693663 0.721373 0.245652
O25   O     O_R   0.898165 0.703008 0.785430 -0.295265
O26   O     O_R   0.034011 0.739108 0.727361 -0.264347
N9    N     N_R   0.649961 0.621725 0.092956 0.244310
O27   O     O_R   0.703610 0.670920 0.050877 -0.261799
O28   O     O_R   0.667878 0.629008 0.177396 -0.390323
O29   O     O_3   0.710305 0.425823 0.972879 -0.549410
C49   C     C_3   0.785785 0.388555 0.049818 -0.115049
H23   H     H_    0.768016 0.313991 0.070159 0.169746
H24   H     H_    0.787885 0.445942 0.103766 0.156489
H25   H     H_    0.869382 0.373301 0.036424 0.208837
N10   N     N_R   0.562577 0.291057 0.058089 0.238854
O30   O     O_R   0.587842 0.218210 0.004264 -0.286827
O31   O     O_R   0.560078 0.266813 0.136809 -0.399931
N11   N     N_R   0.359862 0.370450 0.905969 0.230437
O32   O     O_R   0.262671 0.371859 0.921065 -0.349309
O33   O     O_R   0.395719 0.300745 0.853745 -0.343637
O34   O     O_3   0.783757 0.215662 0.494461 -0.619463
C50   C     C_3   0.879838 0.183149 0.559092 -0.175343
H26   H     H_    0.925652 0.108784 0.540709 0.199557
H27   H     H_    0.861043 0.176422 0.624219 0.169643
H28   H     H_    0.934934 0.242293 0.564943 0.179698
O35   O     O_3   0.727276 0.860421 0.379506 -0.594669
C51   C     C_3   0.802102 0.777690 0.424527 -0.064414
H29   H     H_    0.762655 0.707617 0.424269 0.177153
H30   H     H_    0.838642 0.800047 0.492505 0.162319
H31   H     H_    0.870292 0.757040 0.390382 0.236351

loop_
_geom_bond_atom_site_label_1
_geom_bond_atom_site_label_2
_geom_bond_distance
_ccdc_geom_bond_type
C43   H6    1.113871 S    
O35   C51   1.408697 S    
C31   O18   1.382309 S    
O16   C44   1.410113 S    
C4    C8    1.396848 S    
C47   H17   1.113795 S    
C8    C16   1.183284 T    
C46   H16   1.113476 S    
C11   N10   1.457583 S    
C5    O23   1.412067 S    
N8    O26   1.301502 A    
C47   H19   1.109185 S    
C39   C40   1.406222 A    
Zn1   O7    1.993235 S    
C29   O34   1.381834 S    
N4    O11   1.301773 A    
C44   H9    1.112972 S    
Zn1   N1    2.062741 S    
C3    C18   1.464555 S    
C25   C26   1.402090 A    
C9    C11   1.532312 S    
C46   H15   1.113185 S    
C19   C20   1.409176 A    
O7    C4    1.304063 A    
C31   C38   1.414551 A    
C43   H7    1.109274 S    
C10   C15   1.428549 S    
C5    C6    1.543079 S    
C45   H13   1.108445 S    
C41   N6    1.436098 S    
C34   O24   1.382927 S    
O5    C3    1.315996 A    
N11   O32   1.300202 A    
N4    O12   1.301915 A    
C5    C9    1.542454 S    
C20   N5    1.438841 S    
C33   C34   1.396170 A    
N1    C42   1.355268 A    
N10   O31   1.300037 A    
C44   H10   1.108176 S    
N9    O27   1.300186 A    
C13   O29   1.411825 S    
C19   C30   1.405127 A    
N5    O14   1.301625 A    
Zn2   O8    1.966191 S    
C43   H5    1.112898 S    
N3    O9    1.300387 A    
C6    C14   1.533312 S    
O1    Zn1   1.949127 S    
C11   C12   1.546123 S    
N9    O28   1.300202 A    
C23   C30   1.402074 A    
O3    Zn1   1.966193 S    
N8    O25   1.300315 A    
C28   H2    1.078509 S    
C5    C12   1.545801 S    
N3    O10   1.300241 A    
C44   H8    1.113400 S    
C37   C38   1.419089 A    
C46   H14   1.109192 S    
C9    N11   1.457698 S    
O3    C2    1.302069 A    
N7    O21   1.299914 A    
C45   H12   1.110514 S    
O17   C45   1.412505 S    
C32   N7    1.429571 S    
C35   C37   1.417517 A    
C48   H22   1.113244 S    
O29   C49   1.407986 S    
O1    C1    1.312199 A    
C6    N3    1.457662 S    
C24   C28   1.391236 A    
C51   H30   1.113850 S    
C26   C27   1.400834 A    
Zn2   N2    2.050363 S    
N7    O22   1.300310 A    
H3    C42   1.081848 S    
O18   C46   1.410696 S    
C10   C13   1.544909 S    
C17   C29   1.402033 A    
C6    C10   1.543398 S    
C18   C28   1.390790 A    
C48   H21   1.112962 S    
C22   C23   1.406124 A    
C49   H24   1.110670 S    
C14   N9    1.458087 S    
C36   C40   1.397958 A    
O34   C50   1.411578 S    
C34   C35   1.416555 A    
N6    O20   1.300655 A    
O13   C43   1.409932 S    
C11   C13   1.543172 S    
C32   N2    1.371653 A    
C12   C14   1.548074 S    
C50   H27   1.114284 S    
C51   H29   1.110639 S    
C38   C39   1.411165 A    
C26   O35   1.384185 S    
C40   H4    1.062954 S    
Zn1   O5    1.896556 S    
C2    C7    1.396668 S    
C32   C33   1.404393 A    
C1    C30   1.473459 S    
C33   N8    1.439825 S    
C49   H23   1.108665 S    
C23   C27   1.418899 A    
C36   N2    1.367830 A    
C20   C21   1.408655 A    
O2    Zn2   1.896556 S    
O8    C4    1.301903 A    
O6    C3    1.309161 A    
O4    Zn2   1.993234 S    
C47   H18   1.109134 S    
C17   C25   1.404184 A    
O24   C48   1.409288 S    
C7    C15   1.183000 T    
C21   C22   1.429647 A    
C9    C10   1.544173 S    
C19   N4    1.443558 S    
C39   O17   1.390880 S    
C51   H31   1.108755 S    
O4    C2    1.303676 A    
C50   H28   1.109249 S    
C18   C29   1.408801 A    
C48   H20   1.108376 S    
C22   C24   1.412222 A    
O2    C1    1.316112 A    
C49   H25   1.109045 S    
C37   C41   1.411932 A    
O23   C47   1.410657 S    
N11   O33   1.300365 A    
C13   C14   1.542886 S    
C45   H11   1.114590 S    
C31   C42   1.395190 A    
N6    O19   1.298931 A    
N1    C41   1.358952 A    
Zn2   O6    1.949127 S    
C35   C36   1.402846 A    
C12   C16   1.429140 S    
C17   H1    1.083127 S    
N5    O15   1.301334 A    
C24   C25   1.418475 A    
C50   H26   1.111317 S    
N10   O30   1.300255 A    
C21   O13   1.383447 S    
C27   O16   1.384144 S    
