data_mof_unit_12420.cif
_audit_creation_date              2012-12-10T18:10:19-0500
_audit_creation_method            fapswitch 2.2
_symmetry_space_group_name_H-M    P1
_symmetry_Int_Tables_number       1
_space_group_crystal_system       triclinic
_cell_length_a                    10.721992
_cell_length_b                    9.556188
_cell_length_c                    15.82084
_cell_angle_alpha                 90.449162
_cell_angle_beta                  90.225165
_cell_angle_gamma                 90.395832
_cell_volume                      1620.92360249

loop_
_atom_site_label
_atom_site_type_symbol
_atom_type_description
_atom_site_fract_x
_atom_site_fract_y
_atom_site_fract_z
_atom_type_partial_charge
C1    C     C_R   0.260149 0.499520 0.500938 0.778360
C2    C     C_3   0.577404 0.614436 0.950685 -0.552277
C3    C     C_3   0.584585 0.610753 0.048498 -0.362614
C4    C     C_1   0.494847 0.498211 0.824633 0.056939
C5    C     C_1   0.497205 0.499074 0.175409 0.009486
C6    C     C_1   0.498930 0.499647 0.251012 -0.064023
C7    C     C_3   0.073028 0.584288 0.578077 -0.372528
C8    C     C_3   0.070363 0.346964 0.508150 -0.372299
C9    C     C_3   0.928935 0.582933 0.578685 -0.370473
C10   C     C_3   0.927720 0.347389 0.506075 -0.338391
C11   C     C_3   0.072186 0.564494 0.418807 -0.382614
C12   C     C_3   0.122035 0.498676 0.501486 0.134124
C13   C     C_3   0.878049 0.499688 0.501245 0.109417
C14   C     C_R   0.500158 0.499782 0.340652 0.862624
C15   C     C_3   0.928368 0.567558 0.419431 -0.342230
C16   C     C_3   0.627630 0.085547 0.510788 0.541917
C17   C     C_3   0.625668 0.921537 0.523638 0.578741
C18   C     C_3   0.433481 0.084755 0.577473 -0.465292
C19   C     C_3   0.416340 0.917525 0.568736 -0.496114
C20   C     C_3   0.427513 0.070732 0.427854 0.348025
C21   C     C_3   0.463418 0.913189 0.417315 0.283070
C22   C     C_R   0.739726 0.500136 0.500608 0.759455
C23   C     C_R   0.499743 0.500422 0.659445 0.791347
C24   C     C_3   0.361312 0.527395 0.050997 -0.408454
C25   C     C_3   0.533523 0.351197 0.049750 -0.367080
C26   C     C_3   0.549615 0.355009 0.952398 0.321273
C27   C     C_3   0.358106 0.525806 0.952745 0.321978
C28   C     C_1   0.497628 0.500734 0.749042 -0.083473
C29   C     C_3   0.494717 0.497394 0.083277 0.107207
C30   C     C_3   0.491787 0.493690 0.916824 0.036404
Cu1   Cu    Cu3+1 0.499860 0.642410 0.500040 0.997335
Cu2   Cu    Cu3+1 0.499860 0.357590 0.500040 1.035604
H1    H     H_    0.894472 0.692501 0.577585 0.210865
H2    H     H_    0.895166 0.286008 0.450039 0.244228
H3    H     H_    0.108912 0.673052 0.411961 0.184916
H4    H     H_    0.104666 0.503015 0.363179 0.181410
H5    H     H_    0.896936 0.677961 0.415389 0.250214
H6    H     H_    0.891230 0.510810 0.362900 0.165520
H7    H     H_    0.673643 0.133744 0.567228 0.039718
H8    H     H_    0.647926 0.899836 0.591159 0.017812
H9    H     H_    0.484703 0.109899 0.637150 0.217406
H10   H     H_    0.435900 0.869556 0.631041 0.229490
H11   H     H_    0.328188 0.064024 0.448767 0.066704
H12   H     H_    0.377561 0.855254 0.397622 0.103985
H13   H     H_    0.340723 0.134782 0.584750 0.225669
H14   H     H_    0.317371 0.891470 0.553804 0.196696
H15   H     H_    0.295420 0.448849 0.077533 0.224191
H16   H     H_    0.461138 0.273799 0.068312 0.266281
H17   H     H_    0.622711 0.318277 0.079651 0.177645
H18   H     H_    0.330473 0.631575 0.074659 0.179614
H19   H     H_    0.652009 0.362986 0.941415 0.111382
H20   H     H_    0.333679 0.633532 0.932292 0.095799
H21   H     H_    0.560065 0.715444 0.074677 0.232071
H22   H     H_    0.681858 0.587786 0.068632 0.195406
H23   H     H_    0.541224 0.717847 0.930277 0.208747
H24   H     H_    0.673179 0.605565 0.924252 0.212771
H25   H     H_    0.107048 0.694426 0.574823 0.178936
H26   H     H_    0.104618 0.281090 0.454985 0.226379
H27   H     H_    0.108890 0.539437 0.638105 0.188503
H28   H     H_    0.102976 0.298380 0.567981 0.177997
H29   H     H_    0.894979 0.534542 0.638159 0.163650
H30   H     H_    0.891604 0.294692 0.563639 0.180637
N1    N     N_3   0.500250 0.143650 0.501830 -0.253202
N2    N     N_3   0.500250 0.856350 0.501830 -0.264430
O1    O     O_R   0.317570 0.620260 0.500050 -0.615442
O2    O     O_R   0.317570 0.379740 0.500050 -0.554849
O3    O     O_R   0.499890 0.620310 0.379470 -0.533278
O4    O     O_R   0.499890 0.379690 0.379470 -0.470218
O5    O     O_R   0.682190 0.620260 0.500020 -0.496124
O6    O     O_R   0.682190 0.379740 0.500020 -0.562929
O7    O     O_R   0.499870 0.620210 0.620600 -0.602391
O8    O     O_R   0.499870 0.379790 0.620600 -0.575948
S1    S     S_3+6 0.230396 0.419020 0.914180 0.026266
O9    O     O_2   0.110655 0.487589 0.940244 -0.295150
O10   O     O_2   0.232710 0.408088 0.819386 -0.283595
O11   O     O_3   0.234913 0.258594 0.956727 -0.459064
H31   H     H_    0.163604 0.207329 0.930888 0.387307
S2    S     S_3+6 0.509006 0.190107 0.900939 0.028257
O12   O     O_2   0.421714 0.209435 0.827585 -0.239451
O13   O     O_2   0.627209 0.125834 0.868341 -0.313955
O14   O     O_3   0.443671 0.077774 0.969479 -0.484822
H32   H     H_    0.434408 0.988655 0.937585 0.366008
F1    F     F_    0.700697 0.123575 0.443211 -0.587401
F2    F     F_    0.724222 0.866212 0.479691 -0.590609
S3    S     S_3+6 0.376408 0.146061 0.327459 0.063592
O15   O     O_2   0.480720 0.188764 0.269899 -0.219577
O16   O     O_2   0.300743 0.035666 0.281917 -0.280440
O17   O     O_3   0.280054 0.281736 0.342941 -0.578319
H33   H     H_    0.251938 0.308826 0.285672 0.353752
S4    S     S_3+6 0.575011 0.886412 0.328041 0.140806
O18   O     O_2   0.498524 0.846491 0.251606 -0.288820
O19   O     O_2   0.647155 0.016249 0.306997 -0.144614
O20   O     O_3   0.682911 0.761131 0.340997 -0.462191
H34   H     H_    0.718373 0.744867 0.284056 0.340740

loop_
_geom_bond_atom_site_label_1
_geom_bond_atom_site_label_2
_ccdc_geom_bond_type
O20   H34   S    
S1    O9    D    
C24   C27   S    
O14   H32   S    
C19   H14   S    
Cu2   O8    S    
S3    O15   D    
Cu1   O3    S    
C26   S2    S    
C9    H29   S    
C11   H4    S    
C2    H23   S    
C17   N2    S    
C5    C6    T    
C3    H22   S    
S2    O13   D    
C18   N1    S    
C25   C29   S    
C7    C9    S    
C18   C19   S    
C3    C29   S    
C9    C13   S    
C24   C29   S    
C15   H5    S    
C21   N2    S    
C8    H26   S    
C11   C15   S    
C16   C17   S    
C1    O1    A    
C14   O3    A    
C16   N1    S    
C22   O5    A    
C19   H10   S    
Cu2   O4    S    
Cu1   O7    S    
C27   C30   S    
C9    H1    S    
S1    O10   D    
C10   H30   S    
C1    C12   S    
Cu1   N2    S    
C7    H27   S    
C4    C28   T    
C5    C29   S    
C21   S4    S    
S3    O16   D    
C24   H18   S    
C7    C12   S    
C23   O7    A    
O11   H31   S    
C18   H9    S    
S2    O12   D    
Cu2   O6    S    
C25   C26   S    
C16   F1    S    
C17   H8    S    
C15   H6    S    
C6    C14   S    
C21   H12   S    
S4    O19   D    
Cu1   Cu2   S    
C19   N2    S    
C8    C12   S    
C20   S3    S    
C1    O2    A    
C10   H2    S    
C23   C28   S    
C20   C21   S    
C25   H16   S    
C26   C30   S    
C13   C15   S    
S1    O11   S    
C18   H13   S    
C20   H11   S    
C27   H20   S    
S4    O20   S    
Cu2   O2    S    
S3    O17   S    
Cu1   O1    S    
C24   H15   S    
C23   O8    A    
Cu2   N1    S    
C10   C13   S    
C11   C12   S    
C2    C30   S    
C17   F2    S    
C20   N1    S    
C11   H3    S    
C2    C3    S    
C2    H24   S    
C26   H19   S    
C8    H28   S    
C3    H21   S    
S2    O14   S    
S4    O18   D    
C22   O6    A    
C13   C22   S    
C25   H17   S    
C16   H7    S    
Cu1   O5    S    
O17   H33   S    
C8    C10   S    
C14   O4    A    
C27   S1    S    
C7    H25   S    
C4    C30   S    
