data_mof_unit_14306.cif
_audit_creation_date              2012-12-10T17:41:03-0500
_audit_creation_method            fapswitch 2.2
_symmetry_space_group_name_H-M    P1
_symmetry_Int_Tables_number       1
_space_group_crystal_system       triclinic
_cell_length_a                    14.526099
_cell_length_b                    15.711339
_cell_length_c                    9.92769
_cell_angle_alpha                 90.557776
_cell_angle_beta                  90.982931
_cell_angle_gamma                 90.073959
_cell_volume                      2265.29858794

loop_
_atom_site_label
_atom_site_type_symbol
_atom_type_description
_atom_site_fract_x
_atom_site_fract_y
_atom_site_fract_z
_atom_type_partial_charge
C1    C     C_R   0.391967 0.871995 0.501172 0.878966
C2    C     C_R   0.686397 0.247096 0.394924 -0.059644
C3    C     C_R   0.164002 0.232750 0.449805 -0.006970
C4    C     C_R   0.261493 0.679835 0.396931 0.000541
C5    C     C_R   0.695491 0.821717 0.499446 -0.177448
C6    C     C_R   0.672551 0.200086 0.512269 -0.231144
C7    C     C_R   0.187453 0.314905 0.499163 -0.114593
C8    C     C_R   0.201411 0.676065 0.508795 -0.183010
C9    C     C_R   0.328800 0.029132 0.127374 0.511531
C10   C     C_R   0.821548 0.488427 0.126429 0.486903
C11   C     C_R   0.258400 0.067220 0.050014 -0.262745
C12   C     C_R   0.381830 0.120798 0.500002 0.882667
C13   C     C_R   0.744985 0.473764 0.037209 -0.254391
C14   C     C_R   0.260034 0.060883 0.911609 -0.283880
C15   C     C_R   0.752316 0.477547 0.900984 -0.256978
C16   C     C_R   0.336389 0.026102 0.851063 -0.135535
C17   C     C_R   0.835878 0.492531 0.846198 -0.121372
C18   C     C_R   0.418849 0.013850 0.924258 0.107744
C19   C     C_R   0.917324 0.495961 0.923349 0.113983
C20   C     C_R   0.417393 0.014374 0.068892 0.038220
C21   C     C_R   0.914372 0.495018 0.068874 0.073908
C22   C     C_R   0.577270 0.983789 0.073281 0.006479
C23   C     C_R   0.887616 0.374024 0.498756 0.934748
C24   C     C_R   0.078980 0.503476 0.073278 -0.034381
C25   C     C_R   0.614583 0.124862 0.502799 0.837457
C26   C     C_R   0.622629 0.882626 0.500386 0.830233
C27   C     C_R   0.122800 0.618681 0.502044 0.800891
C28   C     C_R   0.118917 0.379498 0.499926 0.893110
C29   C     C_R   0.577195 0.984004 0.930399 -0.040206
C30   C     C_R   0.078931 0.503635 0.930674 -0.049010
C31   C     C_R   0.434226 0.288519 0.595702 -0.178230
C32   C     C_R   0.351812 0.782492 0.761570 -0.085018
C33   C     C_R   0.915573 0.771425 0.678048 -0.150871
C34   C     C_R   0.886715 0.624833 0.499339 0.895896
C35   C     C_R   0.877286 0.254864 0.722638 -0.142175
C36   C     C_R   0.458061 0.369686 0.641433 -0.234833
C37   C     C_R   0.303823 0.773992 0.880657 -0.206215
C38   C     C_R   0.925531 0.838763 0.768373 -0.231066
C39   C     C_R   0.851888 0.229516 0.850373 -0.221686
C40   C     C_R   0.860104 0.903264 0.770921 0.056116
C41   C     C_R   0.761478 0.204473 0.872940 0.078554
C42   C     C_R   0.392620 0.434606 0.641871 0.065078
C43   C     C_R   0.212707 0.746625 0.876118 0.046422
C44   C     C_R   0.784687 0.900002 0.680246 -0.167503
C45   C     C_R   0.230792 0.170847 0.451966 -0.303947
C46   C     C_R   0.699592 0.196901 0.763165 -0.113448
C47   C     C_R   0.302749 0.417394 0.594398 -0.177423
C48   C     C_R   0.174204 0.719674 0.752363 -0.163517
C49   C     C_R   0.771769 0.829656 0.590895 0.068063
C50   C     C_R   0.727240 0.216085 0.630429 0.057655
C51   C     C_R   0.277353 0.334778 0.548112 0.025713
C52   C     C_R   0.225851 0.719966 0.631597 0.107565
C53   C     C_R   0.343956 0.270239 0.548863 0.102860
C54   C     C_R   0.308877 0.764555 0.634972 0.142378
C55   C     C_R   0.838752 0.765379 0.590163 0.098524
C56   C     C_R   0.326317 0.744362 0.394439 -0.226447
C57   C     C_R   0.811847 0.256684 0.615571 0.077508
C58   C     C_R   0.318568 0.189141 0.500289 -0.091150
C59   C     C_R   0.344261 0.791473 0.510368 -0.201148
C60   C     C_R   0.830090 0.699249 0.494783 -0.165061
C61   C     C_R   0.826637 0.301699 0.496345 -0.118408
C62   C     C_2   0.872374 0.973753 0.868603 0.360631
C63   C     C_2   0.733846 0.183046 0.010772 0.534190
C64   C     C_2   0.419376 0.519871 0.692992 0.390146
C65   C     C_2   0.159434 0.743923 0.001825 0.392751
C66   C     C_2   0.612335 0.743310 0.305308 0.418531
C67   C     C_R   0.765554 0.703130 0.390307 -0.182169
C68   C     C_2   0.611591 0.257442 0.291765 0.462895
C69   C     C_2   0.071380 0.206065 0.398394 0.339080
C70   C     C_2   0.264385 0.613801 0.288852 0.425847
C71   C     C_3   0.238744 0.931190 0.234984 0.096846
C72   C     C_3   0.176968 0.927926 0.357338 -0.844783
C73   C     C_3   0.711384 0.495618 0.304570 0.065651
C74   C     C_3   0.700417 0.505265 0.457072 -0.870495
C75   C     C_R   0.767276 0.292772 0.384859 -0.173991
C76   C     C_R   0.692868 0.758185 0.397960 -0.049012
H1    H     H_    0.214436 0.107182 0.416076 0.176815
H2    H     H_    0.143739 0.506673 0.878780 0.162172
H3    H     H_    0.487155 0.240471 0.597365 0.129827
H4    H     H_    0.423082 0.802236 0.769865 0.170232
H5    H     H_    0.970161 0.725847 0.674108 0.158048
H6    H     H_    0.947874 0.274715 0.708863 0.164515
H7    H     H_    0.527881 0.381652 0.677057 0.129982
H8    H     H_    0.337129 0.790947 0.975717 0.137474
H9    H     H_    0.985399 0.841129 0.834949 0.160564
H10   H     H_    0.902147 0.231830 0.932249 0.139312
H11   H     H_    0.738957 0.954035 0.678071 0.188472
H12   H     H_    0.365278 0.756065 0.304306 0.183628
H13   H     H_    0.629024 0.181341 0.784780 0.197164
H14   H     H_    0.253567 0.469031 0.593035 0.163527
H15   H     H_    0.103961 0.700144 0.755000 0.189941
H16   H     H_    0.640728 0.971313 0.128148 0.156953
H17   H     H_    0.143762 0.505603 0.127911 0.141595
H18   H     H_    0.195050 0.086880 0.097223 0.167625
H19   H     H_    0.675398 0.463247 0.069112 0.175217
H20   H     H_    0.935267 0.978877 0.928851 0.063143
H21   H     H_    0.782174 0.191108 0.094588 0.055530
H22   H     H_    0.490513 0.532922 0.721667 0.061548
H23   H     H_    0.766559 0.657230 0.309023 0.231319
H24   H     H_    0.191092 0.764252 0.096419 0.075526
H25   H     H_    0.543748 0.762510 0.334354 0.071184
H26   H     H_    0.543281 0.232255 0.308949 0.091365
H27   H     H_    0.052881 0.139067 0.398209 0.063020
H28   H     H_    0.240590 0.549724 0.308051 0.069970
H29   H     H_    0.275881 0.870193 0.224326 0.152155
H30   H     H_    0.192447 0.935877 0.144779 0.110454
H31   H     H_    0.218041 0.932988 0.452212 0.252615
H32   H     H_    0.127022 0.981300 0.353939 0.224635
H33   H     H_    0.138053 0.867014 0.356800 0.224752
H34   H     H_    0.780814 0.326420 0.292824 0.200525
H35   H     H_    0.680664 0.433457 0.277887 0.183773
H36   H     H_    0.670097 0.546339 0.255017 0.181670
H37   H     H_    0.675186 0.569663 0.483745 0.229145
H38   H     H_    0.648714 0.459015 0.493481 0.212662
H39   H     H_    0.765546 0.493855 0.512027 0.265707
H40   H     H_    0.199392 0.076629 0.852021 0.173486
H41   H     H_    0.691566 0.471055 0.836661 0.168161
H42   H     H_    0.328386 0.008032 0.747712 0.213661
H43   H     H_    0.833129 0.500265 0.740969 0.220989
H44   H     H_    0.640369 0.971263 0.878324 0.177545
N1    N     N_R   0.498810 1.000000 0.142780 -0.120501
N2    N     N_R   0.998810 0.500000 0.142780 -0.108222
N3    N     N_R   0.498740 1.000000 0.857170 -0.130561
N4    N     N_R   0.998740 0.500000 0.857170 -0.122825
O1    O     O_R   0.408390 0.908380 0.614690 -0.662081
O2    O     O_R   0.591620 0.908390 0.614640 -0.630896
O3    O     O_R   0.091620 0.591610 0.614640 -0.626782
O4    O     O_R   0.091620 0.408390 0.614640 -0.639180
O5    O     O_R   0.591610 0.091610 0.385310 -0.607015
O6    O     O_R   0.591610 0.908390 0.385310 -0.633737
O7    O     O_R   0.091610 0.591610 0.385310 -0.629779
O8    O     O_R   0.091610 0.408390 0.385310 -0.584562
O9    O     O_2   0.811771 0.026047 0.885035 -0.617916
O10   O     O_2   0.657077 0.155404 0.032367 -0.569954
O11   O     O_2   0.362403 0.576230 0.705302 -0.574654
O12   O     O_R   0.408390 0.091620 0.614690 -0.640502
O13   O     O_2   0.079808 0.718884 0.001666 -0.590384
O14   O     O_2   0.621634 0.708432 0.195898 -0.582758
O15   O     O_2   0.623733 0.297499 0.188894 -0.607280
O16   O     O_2   0.016522 0.256315 0.350246 -0.576734
O17   O     O_2   0.297637 0.628910 0.179460 -0.597029
O18   O     O_3   0.304335 0.998253 0.251087 -0.572220
O19   O     O_3   0.805615 0.499100 0.264347 -0.577265
O20   O     O_R   0.908390 0.408380 0.614690 -0.674532
O21   O     O_R   0.908390 0.591620 0.614690 -0.656952
O22   O     O_R   0.408370 0.908380 0.385360 -0.565395
O23   O     O_R   0.408370 0.091620 0.385360 -0.564047
O24   O     O_R   0.908370 0.408380 0.385360 -0.527566
O25   O     O_R   0.908370 0.591620 0.385360 -0.541040
O26   O     O_R   0.591620 0.091610 0.614640 -0.626170
Zn1   Zn    Zn3+2 0.500010 0.000000 0.653130 0.935238
Zn2   Zn    Zn3+2 0.000010 0.500000 0.653130 0.934438
Zn3   Zn    Zn3+2 0.499980 1.000000 0.346870 0.998148
Zn4   Zn    Zn3+2 0.999980 0.500000 0.346870 1.026730

loop_
_geom_bond_atom_site_label_1
_geom_bond_atom_site_label_2
_ccdc_geom_bond_type
C44   C49   A    
C33   C55   A    
C38   C40   A    
C22   C29   A    
C62   H20   S    
C27   O7    A    
C73   C74   S    
C36   C42   A    
C4    C8    A    
C25   O5    A    
C4    C70   S    
C39   C41   A    
C46   H13   S    
C61   C75   A    
N1    Zn3   S    
C13   H19   S    
C12   O23   A    
C19   C21   A    
C1    O1    A    
C2    C68   S    
C1    C59   S    
C11   C14   A    
C70   H28   S    
C56   H12   S    
C6    C25   S    
C36   H7    S    
C74   H38   S    
C40   C62   S    
C26   O2    A    
C21   N2    A    
O1    Zn1   S    
C17   C19   A    
C27   O3    A    
C35   H6    S    
C72   H32   S    
C60   C67   A    
C52   C54   A    
C75   H34   S    
C48   H15   S    
O8    Zn4   S    
C41   C46   A    
C37   H8    S    
C44   H11   S    
C43   C48   A    
C8    C52   A    
C40   C44   A    
C26   O6    A    
C67   H23   S    
C18   N3    A    
C10   O19   S    
C65   O13   D    
C69   O16   D    
C64   H22   S    
N4    Zn2   S    
C64   O11   D    
C55   C60   A    
C4    C56   A    
C34   C60   S    
N2    Zn4   S    
C66   H25   S    
C5    C49   A    
C1    O22   A    
C2    C6    A    
O24   Zn4   S    
C32   C54   A    
C34   O25   A    
O4    Zn2   S    
C73   H35   S    
C54   C59   A    
C69   H27   S    
C10   C21   A    
C19   N4    A    
C29   H44   S    
N3    Zn1   S    
C45   C58   A    
C38   H9    S    
C63   O10   D    
C47   C51   A    
C49   C55   A    
C74   H37   S    
C3    C45   A    
C6    C50   A    
C7    C28   S    
C15   H41   S    
C25   O26   A    
C28   O8    A    
C37   C43   A    
C35   C39   A    
O25   Zn4   S    
C16   H42   S    
O3    Zn2   S    
C32   H4    S    
O2    Zn1   S    
C9    C20   A    
C66   O14   D    
C72   H31   S    
C23   C61   S    
C43   C65   S    
C66   C76   S    
C24   N2    A    
C32   C37   A    
C31   C53   A    
C31   H3    S    
C9    C11   A    
C20   N1    A    
C71   O18   S    
C53   C58   A    
C11   H18   S    
C16   C18   A    
C30   N4    A    
C13   C15   A    
C47   H14   S    
C14   C16   A    
C23   O20   A    
C41   C63   S    
C42   C64   S    
O12   Zn1   S    
C62   O9    D    
C22   N1    A    
C73   O19   S    
C73   H36   S    
C15   C17   A    
C72   H33   S    
C70   O17   D    
C3    C69   S    
C31   C36   A    
C50   C57   A    
O7    Zn4   S    
C65   H24   S    
C68   H26   S    
C10   C13   A    
C9    O18   S    
C57   C61   A    
C23   O24   A    
C46   C50   A    
C3    C7    A    
C33   C38   A    
C56   C59   A    
C35   C57   A    
C5    C76   A    
C71   H29   S    
C12   C58   S    
C71   C72   S    
O20   Zn2   S    
C24   H17   S    
O5    Zn3   S    
O22   Zn3   S    
C14   H40   S    
C74   H39   S    
C29   N3    A    
C34   O21   A    
O6    Zn3   S    
C18   C20   A    
C42   C47   A    
O23   Zn3   S    
C24   C30   A    
O21   Zn2   S    
C17   H43   S    
C7    C51   A    
C5    C26   S    
C30   H2    S    
C48   C52   A    
C63   H21   S    
C12   O12   A    
C71   H30   S    
C8    C27   S    
C22   H16   S    
O26   Zn1   S    
C68   O15   D    
C45   H1    S    
C67   C76   A    
C39   H10   S    
C51   C53   A    
C33   H5    S    
C2    C75   A    
C28   O4    A    
