data_mof_unit_33687.cif
_audit_creation_date              2013-03-05T15:58:56-0500
_audit_creation_method            fapswitch 2.2
_symmetry_space_group_name_H-M    P1
_symmetry_Int_Tables_number       1
_space_group_crystal_system       triclinic
_cell_length_a                    10.635769
_cell_length_b                    12.590707
_cell_length_c                    13.14742
_cell_angle_alpha                 82.567901
_cell_angle_beta                  90.089641
_cell_angle_gamma                 102.213064
_cell_volume                      1705.68804469

loop_
_atom_site_label
_atom_site_type_symbol
_atom_site_description
_atom_site_fract_x
_atom_site_fract_y
_atom_site_fract_z
_atom_type_partial_charge
O1    O     O_R   0.468120 0.366740 0.627160 -0.614750
O2    O     O_R   0.510770 0.544830 0.662520 -0.611424
C1    C     C_R   0.481565 0.438844 0.691183 0.834432
O3    O     O_R   0.663880 0.410950 0.482330 -0.629694
O4    O     O_R   0.706530 0.589040 0.517700 -0.625139
C2    C     C_R   0.741405 0.499033 0.503003 0.845582
Zn1   Zn    Zn3+2 0.471520 0.381090 0.476390 0.929642
Zn2   Zn    Zn3+2 0.528480 0.618910 0.523610 0.953865
O5    O     O_R   0.489230 0.455170 0.337480 -0.613536
O6    O     O_R   0.531880 0.633260 0.372840 -0.641145
O7    O     O_R   0.293470 0.410960 0.482300 -0.621299
O8    O     O_R   0.336120 0.589050 0.517670 -0.599806
C3    C     C_R   0.513072 0.560931 0.308927 0.857576
C4    C     C_R   0.257835 0.498828 0.503199 0.806510
C5    C     C_3   0.898245 0.378441 0.513414 -0.402697
H1    H     H_    0.859780 0.340355 0.444698 0.196752
H2    H     H_    0.846424 0.327238 0.582345 0.169081
C6    C     C_3   0.041493 0.378846 0.519874 -0.456090
H3    H     H_    0.061547 0.335528 0.595512 0.174366
H4    H     H_    0.067221 0.332236 0.459392 0.207070
H5    H     H_    0.894842 0.533633 0.337303 0.148571
H6    H     H_    0.100847 0.508664 0.338966 0.159899
C7    C     C_3   0.943878 0.565004 0.405714 -0.374729
C8    C     C_3   0.937650 0.548167 0.600706 -0.449347
C9    C     C_3   0.877574 0.497838 0.505688 0.125013
H7    H     H_    0.915142 0.630057 0.604065 0.215977
H8    H     H_    0.895057 0.495381 0.672099 0.131687
C10   C     C_3   0.120915 0.499049 0.505585 0.062173
C11   C     C_3   0.085649 0.556815 0.401504 -0.376641
C12   C     C_3   0.084248 0.556862 0.597296 0.208543
H9    H     H_    0.110626 0.511564 0.669996 0.058694
H10   H     H_    0.937338 0.652428 0.402462 0.210503
H11   H     H_    0.148363 0.639543 0.381483 0.197836
C13   C     C_R   0.405083 0.698706 0.066263 -0.197071
H12   H     H_    0.431924 0.742531 0.218128 0.140963
H13   H     H_    0.315335 0.694537 0.877214 0.185954
H14   H     H_    0.361370 0.767514 0.040569 0.138223
C14   C     C_R   0.502139 0.596321 0.200691 -0.047939
C15   C     C_R   0.508844 0.301891 0.836651 -0.189628
C16   C     C_R   0.524113 0.274219 0.940889 -0.149121
C17   C     C_R   0.509537 0.346978 0.008923 -0.193181
C18   C     C_R   0.472960 0.447191 0.973587 0.088375
C19   C     C_R   0.438670 0.466380 0.870463 0.062494
C20   C     C_R   0.468977 0.529020 0.036951 0.080513
C21   C     C_R   0.412691 0.619483 0.001912 0.151270
C22   C     C_R   0.362577 0.628223 0.904096 -0.223426
C23   C     C_R   0.375173 0.552438 0.839161 -0.185590
C24   C     C_R   0.521179 0.524053 0.133992 -0.257201
C25   C     C_R   0.447714 0.686061 0.166441 -0.209039
C26   C     C_R   0.470276 0.399593 0.800693 -0.110656
H15   H     H_    0.572685 0.461345 0.161763 0.144583
H16   H     H_    0.531272 0.248708 0.783922 0.150425
H17   H     H_    0.524308 0.321410 0.088759 0.132745
H18   H     H_    0.552630 0.198221 0.968649 0.141944
H19   H     H_    0.333364 0.560782 0.764447 0.200864
C27   C     C_R   0.323082 0.088073 0.346548 -0.294631
H20   H     H_    0.301681 0.254937 0.330266 0.133718
H21   H     H_    0.293885 0.881055 0.315794 0.146121
H22   H     H_    0.255587 0.066081 0.287017 0.144447
N1    N     N_R   0.433240 0.222190 0.444680 -0.102211
C28   C     C_R   0.651312 0.799509 0.630035 0.045225
C29   C     C_R   0.682147 0.904128 0.658497 -0.236938
C30   C     C_R   0.624854 0.985727 0.609305 -0.192452
C31   C     C_R   0.536088 0.962711 0.530750 0.019352
C32   C     C_R   0.508331 0.854722 0.504476 0.255619
C33   C     C_R   0.473858 0.041903 0.477535 -0.013136
C34   C     C_R   0.385634 0.011509 0.399622 0.191997
C35   C     C_R   0.360812 0.905117 0.375169 -0.235893
C36   C     C_R   0.421467 0.828121 0.426864 -0.143850
C37   C     C_R   0.495396 0.150811 0.498008 -0.046994
C38   C     C_R   0.348604 0.194232 0.370636 0.006804
N2    N     N_R   0.566070 0.776970 0.554790 -0.128277
H23   H     H_    0.560820 0.181824 0.555066 0.120300
H24   H     H_    0.695179 0.735582 0.668123 0.136378
H25   H     H_    0.651868 0.065382 0.634408 0.129844
H26   H     H_    0.750045 0.921921 0.718614 0.152353
H27   H     H_    0.398116 0.748081 0.404474 0.197521
N3    N     N_R   0.151288 0.672629 0.592049 0.228789
O9    O     O_R   0.125058 0.746895 0.521680 -0.420314
O10   O     O_R   0.225964 0.704093 0.665772 -0.426752

loop_
_geom_bond_atom_site_label_1
_geom_bond_atom_site_label_2
_geom_bond_distance
_ccdc_geom_bond_type
C5    C6    1.524751 S    
H6    C11   1.113790 S    
C13   H14   1.083990 S    
C17   C18   1.419386 A    
C36   H27   1.065143 S    
C8    H8    1.113788 S    
C14   C25   1.399570 A    
C21   C22   1.391444 A    
Zn1   O7    2.010700 S    
O4    C2    1.301506 A    
C7    C11   1.534542 S    
C10   C11   1.548713 S    
C8    H7    1.112912 S    
C12   H9    1.115079 S    
O7    C4    1.303635 A    
N3    O10   1.300393 A    
C5    C9    1.555256 S    
C2    C9    1.451842 S    
C5    H1    1.114200 S    
C11   H11   1.111214 S    
C5    H2    1.113914 S    
C6    H3    1.113613 S    
O5    C3    1.306340 A    
C24   H15   1.079151 S    
C35   C36   1.382278 A    
H12   C25   1.082301 S    
H13   C22   1.084022 S    
C14   C24   1.386664 A    
C15   H16   1.083543 S    
C29   H26   1.082560 S    
C18   C20   1.413477 A    
O3    Zn1   2.003696 S    
C1    C26   1.457042 S    
Zn2   N2    2.040158 S    
C34   C35   1.388865 A    
C6    C10   1.557357 S    
C8    C9    1.549640 S    
O3    C2    1.293856 A    
C15   C16   1.387673 A    
N3    O9    1.301486 A    
N1    C38   1.354149 A    
O1    C1    1.302128 A    
C31   C33   1.420926 A    
C29   C30   1.391713 A    
N1    C37   1.350260 A    
Zn2   O8    2.003696 S    
C27   C38   1.384285 A    
C37   H23   1.076374 S    
C13   C21   1.403560 A    
H20   C38   1.081928 S    
C17   H17   1.078659 S    
C3    C14   1.447216 S    
C28   N2    1.357253 A    
H21   C35   1.084465 S    
C16   C17   1.391354 A    
O8    C4    1.294254 A    
C16   H18   1.082991 S    
H5    C7    1.113671 S    
C18   C19   1.407332 A    
C27   C34   1.398098 A    
Zn1   N1    2.052521 S    
C20   C21   1.421191 A    
C23   H19   1.079525 S    
Zn1   O5    1.930520 S    
C22   C23   1.386529 A    
C13   C25   1.392860 A    
O1    Zn1   1.966730 S    
O2    Zn2   1.930520 S    
O6    C3    1.302226 A    
O4    Zn2   2.010701 S    
C19   C26   1.407711 A    
C28   H24   1.081744 S    
C32   N2    1.363307 A    
C27   H22   1.083878 S    
C31   C32   1.416513 A    
C10   C12   1.576207 S    
O2    C1    1.309238 A    
C7    H10   1.112863 S    
C33   C37   1.402703 A    
C30   H25   1.077379 S    
C32   C36   1.400518 A    
C33   C34   1.422216 A    
C6    H4    1.113973 S    
C7    C9    1.550203 S    
C28   C29   1.388176 A    
C8    C12   1.540063 S    
C30   C31   1.414419 A    
C12   N3    1.473820 S    
C15   C26   1.402661 A    
Zn2   O6    1.966727 S    
C4    C10   1.457233 S    
C19   C23   1.411682 A    
C20   C24   1.389878 A    
