data_mof_unit_60823.cif
_audit_creation_date              2013-03-05T16:20:26-0500
_audit_creation_method            fapswitch 2.2
_symmetry_space_group_name_H-M    P1
_symmetry_Int_Tables_number       1
_space_group_crystal_system       triclinic
_cell_length_a                    30.863752
_cell_length_b                    29.379938
_cell_length_c                    30.689621
_cell_angle_alpha                 89.939085
_cell_angle_beta                  89.986148
_cell_angle_gamma                 90.053105
_cell_volume                      27828.5562705

loop_
_atom_site_label
_atom_site_type_symbol
_atom_site_description
_atom_site_fract_x
_atom_site_fract_y
_atom_site_fract_z
_atom_type_partial_charge
O1    O     O_R   0.321180 0.000000 0.731010 -0.573060
O2    O     O_R   0.678820 0.000000 0.731010 -0.573589
O3    O     O_R   0.821180 0.500000 0.731010 -0.564055
O4    O     O_R   0.178820 0.500000 0.731010 -0.580504
O5    O     O_R   0.821180 1.000000 0.231010 -0.566343
O6    O     O_R   0.178820 1.000000 0.231010 -0.568644
O7    O     O_R   0.321180 0.500000 0.231010 -0.565690
O8    O     O_R   0.678820 0.500000 0.231010 -0.557652
O9    O     O_R   0.268980 0.000000 0.678820 -0.567194
O10   O     O_R   0.731020 0.000000 0.678820 -0.567224
O11   O     O_R   0.768980 0.500000 0.678820 -0.583179
O12   O     O_R   0.231020 0.500000 0.678820 -0.546863
O13   O     O_R   0.768980 1.000000 0.178820 -0.580000
O14   O     O_R   0.231020 1.000000 0.178820 -0.579911
O15   O     O_R   0.268980 0.500000 0.178820 -0.580677
O16   O     O_R   0.731020 0.500000 0.178820 -0.580264
C1    C     C_R   0.309106 0.001539 0.690470 0.847833
C2    C     C_R   0.690896 0.998487 0.690481 0.845258
C3    C     C_R   0.809062 0.499610 0.690653 0.873895
C4    C     C_R   0.190849 0.499516 0.690718 0.848191
C5    C     C_R   0.809097 0.000474 0.190637 0.872670
C6    C     C_R   0.190898 0.000501 0.190634 0.867039
C7    C     C_R   0.309113 0.500264 0.190612 0.866973
C8    C     C_R   0.690883 0.499828 0.190615 0.877007
O17   O     O_R   0.276100 0.938030 0.776090 -0.567662
O18   O     O_R   0.723900 0.061970 0.776090 -0.571671
O19   O     O_R   0.723900 0.938030 0.776090 -0.562054
O20   O     O_R   0.276100 0.061970 0.776090 -0.571064
O21   O     O_R   0.776100 0.438030 0.776090 -0.562587
O22   O     O_R   0.223900 0.561970 0.776090 -0.549131
O23   O     O_R   0.223900 0.438030 0.776090 -0.572841
O24   O     O_R   0.776100 0.561970 0.776090 -0.555729
O25   O     O_R   0.776100 0.938030 0.276090 -0.557859
O26   O     O_R   0.223900 0.061970 0.276090 -0.560080
O27   O     O_R   0.223900 0.938030 0.276090 -0.556849
O28   O     O_R   0.776100 0.061970 0.276090 -0.566650
O29   O     O_R   0.276100 0.438030 0.276090 -0.560006
O30   O     O_R   0.723900 0.561970 0.276090 -0.567858
O31   O     O_R   0.723900 0.438030 0.276090 -0.564482
O32   O     O_R   0.276100 0.561970 0.276090 -0.558529
O33   O     O_R   0.223900 0.938040 0.723900 -0.564427
O34   O     O_R   0.776100 0.061960 0.723900 -0.557736
O35   O     O_R   0.776100 0.938040 0.723900 -0.567047
O36   O     O_R   0.223900 0.061960 0.723900 -0.558562
O37   O     O_R   0.723900 0.438040 0.723900 -0.571755
O38   O     O_R   0.276100 0.561960 0.723900 -0.567252
O39   O     O_R   0.276100 0.438040 0.723900 -0.555640
O40   O     O_R   0.723900 0.561960 0.723900 -0.565217
O41   O     O_R   0.723900 0.938040 0.223900 -0.567660
O42   O     O_R   0.276100 0.061960 0.223900 -0.566624
O43   O     O_R   0.276100 0.938040 0.223900 -0.570709
O44   O     O_R   0.723900 0.061960 0.223900 -0.566095
O45   O     O_R   0.223900 0.438040 0.223900 -0.560612
O46   O     O_R   0.776100 0.561960 0.223900 -0.560325
O47   O     O_R   0.776100 0.438040 0.223900 -0.562163
O48   O     O_R   0.223900 0.561960 0.223900 -0.569945
C9    C     C_R   0.250030 0.915398 0.749963 0.796320
C10   C     C_R   0.750000 0.084603 0.749963 0.792470
C11   C     C_R   0.749979 0.915391 0.750000 0.797205
C12   C     C_R   0.249985 0.084601 0.750007 0.800053
C13   C     C_R   0.750054 0.415398 0.749933 0.805753
C14   C     C_R   0.249952 0.584604 0.749920 0.812912
C15   C     C_R   0.250044 0.415396 0.750074 0.782495
C16   C     C_R   0.750056 0.584599 0.749945 0.806637
C17   C     C_R   0.750057 0.915400 0.249935 0.805026
C18   C     C_R   0.249990 0.084606 0.249933 0.813380
C19   C     C_R   0.249900 0.915396 0.249933 0.797163
C20   C     C_R   0.750044 0.084603 0.249942 0.812322
C21   C     C_R   0.250082 0.415400 0.249912 0.823843
C22   C     C_R   0.749928 0.584606 0.249873 0.811445
C23   C     C_R   0.750091 0.415398 0.250125 0.796331
C24   C     C_R   0.249909 0.584602 0.250076 0.789788
Cu1   Cu    Cu3+1 0.280900 0.000000 0.780900 0.941175
Cu2   Cu    Cu3+1 0.719100 0.000000 0.780900 0.965930
Cu3   Cu    Cu3+1 0.780900 0.500000 0.780900 0.995142
Cu4   Cu    Cu3+1 0.219100 0.500000 0.780900 0.990195
Cu5   Cu    Cu3+1 0.780900 1.000000 0.280900 0.960459
Cu6   Cu    Cu3+1 0.219100 1.000000 0.280900 0.996297
Cu7   Cu    Cu3+1 0.280900 0.500000 0.280900 0.993938
Cu8   Cu    Cu3+1 0.719100 0.500000 0.280900 0.955419
Cu9   Cu    Cu3+1 0.219090 0.000000 0.719100 0.956328
Cu10  Cu    Cu3+1 0.780910 0.000000 0.719100 0.957293
Cu11  Cu    Cu3+1 0.719090 0.500000 0.719100 0.970644
Cu12  Cu    Cu3+1 0.280910 0.500000 0.719100 0.992513
Cu13  Cu    Cu3+1 0.719090 0.000000 0.219100 0.960086
Cu14  Cu    Cu3+1 0.280910 0.000000 0.219100 0.962570
Cu15  Cu    Cu3+1 0.219090 0.500000 0.219100 0.972370
Cu16  Cu    Cu3+1 0.780910 0.500000 0.219100 0.979116
O49   O     O_R   0.231010 1.000000 0.821180 -0.593822
O50   O     O_R   0.768990 1.000000 0.821180 -0.571924
O51   O     O_R   0.731010 0.500000 0.821180 -0.546484
O52   O     O_R   0.268990 0.500000 0.821180 -0.550779
O53   O     O_R   0.731010 0.000000 0.321180 -0.595255
O54   O     O_R   0.268990 0.000000 0.321180 -0.545864
O55   O     O_R   0.231010 0.500000 0.321180 -0.550107
O56   O     O_R   0.768990 0.500000 0.321180 -0.596499
O57   O     O_R   0.178810 0.000000 0.768990 -0.579514
O58   O     O_R   0.821190 0.000000 0.768990 -0.581419
O59   O     O_R   0.678810 0.500000 0.768990 -0.592221
O60   O     O_R   0.321190 0.500000 0.768990 -0.591065
O61   O     O_R   0.678810 0.000000 0.268990 -0.586082
O62   O     O_R   0.321190 0.000000 0.268990 -0.593476
O63   O     O_R   0.178810 0.500000 0.268990 -0.591280
O64   O     O_R   0.821190 0.500000 0.268990 -0.580267
C25   C     C_R   0.190746 0.999777 0.809393 0.792402
C26   C     C_R   0.809258 0.999723 0.809408 0.788033
C27   C     C_R   0.690753 0.499539 0.809334 0.799293
C28   C     C_R   0.309270 0.499412 0.809395 0.801878
C29   C     C_R   0.690697 0.000836 0.309368 0.791791
C30   C     C_R   0.309336 0.999447 0.309348 0.801742
C31   C     C_R   0.190719 0.500524 0.309406 0.801681
C32   C     C_R   0.809255 0.500206 0.309399 0.786474
C33   C     C_1   0.250033 0.864114 0.749928 -0.188771
C34   C     C_1   0.750013 0.135882 0.749919 -0.182375
C35   C     C_1   0.749980 0.864104 0.750009 -0.183831
C36   C     C_1   0.249961 0.135881 0.750029 -0.179882
C37   C     C_1   0.750103 0.364119 0.749856 -0.176012
C38   C     C_1   0.249879 0.635880 0.749822 -0.160907
C39   C     C_1   0.249990 0.364116 0.750087 -0.188396
C40   C     C_1   0.750130 0.635870 0.749906 -0.163705
C41   C     C_1   0.750130 0.864125 0.249820 -0.174197
C42   C     C_1   0.250028 0.135888 0.249827 -0.176384
C43   C     C_1   0.249763 0.864120 0.249873 -0.169509
C44   C     C_1   0.750069 0.135884 0.249904 -0.177485
C45   C     C_1   0.250194 0.364125 0.249797 -0.159749
C46   C     C_1   0.749881 0.635888 0.249691 -0.178556
C47   C     C_1   0.750101 0.364120 0.250189 -0.186217
C48   C     C_1   0.249842 0.635884 0.250075 -0.190065
C49   C     C_1   0.249989 0.821632 0.749881 0.002482
C50   C     C_1   0.750026 0.178362 0.749887 0.009177
C51   C     C_1   0.750034 0.821620 0.749980 0.002949
C52   C     C_1   0.249944 0.178362 0.750041 0.009579
C53   C     C_1   0.750111 0.321640 0.749816 0.001879
C54   C     C_1   0.249834 0.678358 0.749790 0.002129
C55   C     C_1   0.249948 0.321638 0.750062 0.002023
C56   C     C_1   0.750172 0.678345 0.749898 -0.000151
C57   C     C_1   0.750130 0.821647 0.249702 -0.001471
C58   C     C_1   0.250092 0.178370 0.249748 0.002983
C59   C     C_1   0.249701 0.821641 0.249840 -0.000843
C60   C     C_1   0.750077 0.178366 0.249917 0.004630
C61   C     C_1   0.250245 0.321647 0.249723 -0.003583
C62   C     C_1   0.749898 0.678368 0.249584 -0.007052
C63   C     C_1   0.750085 0.321642 0.250148 0.004705
C64   C     C_1   0.249799 0.678365 0.250002 -0.002648
C65   C     C_1   0.249906 0.771234 0.749827 0.007057
C66   C     C_1   0.750057 0.228759 0.749845 0.011926
C67   C     C_1   0.750116 0.771219 0.749936 0.006073
C68   C     C_1   0.249928 0.228760 0.750044 0.011418
C69   C     C_1   0.750088 0.271243 0.749819 0.010530
C70   C     C_1   0.249849 0.728751 0.749796 0.002885
C71   C     C_1   0.249927 0.271243 0.750046 0.010089
C72   C     C_1   0.750165 0.728736 0.749909 0.000600
C73   C     C_1   0.750061 0.771251 0.249589 0.000226
C74   C     C_1   0.250182 0.228770 0.249691 0.009383
C75   C     C_1   0.249703 0.771245 0.249854 0.001804
C76   C     C_1   0.750074 0.228764 0.249982 0.010633
C77   C     C_1   0.250237 0.271253 0.249681 0.005300
C78   C     C_1   0.749979 0.728767 0.249549 0.000368
C79   C     C_1   0.750073 0.271247 0.250057 0.011595
C80   C     C_1   0.249742 0.728762 0.249907 0.005704
C81   C     C_R   0.378204 0.974610 0.661357 -0.002288
C82   C     C_R   0.622257 0.026088 0.660837 -0.003245
C83   C     C_R   0.856200 0.539187 0.639277 -0.014140
C84   C     C_R   0.125270 0.529705 0.656783 0.000167
C85   C     C_R   0.860741 0.960660 0.144065 -0.003016
C86   C     C_R   0.138727 0.960774 0.144503 -0.002776
C87   C     C_R   0.342271 0.468672 0.124982 0.025722
C88   C     C_R   0.657538 0.531407 0.124982 0.023787
C89   C     C_R   0.341377 0.001519 0.656224 -0.182152
C90   C     C_R   0.658644 0.998446 0.656248 -0.179600
C91   C     C_R   0.841161 0.498467 0.656759 -0.110607
C92   C     C_R   0.157967 0.497502 0.657621 -0.151722
C93   C     C_R   0.841317 0.001256 0.156749 -0.152167
C94   C     C_R   0.158666 0.001277 0.156754 -0.150551
C95   C     C_R   0.341413 0.502483 0.156758 -0.159355
C96   C     C_R   0.658605 0.497558 0.156771 -0.127403
C97   C     C_R   0.335796 0.026769 0.617258 0.235022
C98   C     C_R   0.663899 0.972468 0.617746 0.238828
C99   C     C_R   0.854270 0.457103 0.637631 0.215216
C100  C     C_R   0.158101 0.463824 0.624539 0.258747
C101  C     C_R   0.849650 0.041191 0.132647 0.224607
C102  C     C_R   0.150762 0.041047 0.132275 0.223760
C103  C     C_R   0.370466 0.539446 0.153538 0.245218
C104  C     C_R   0.629514 0.460610 0.153632 0.231574
C105  C     C_R   0.368695 0.026127 0.585725 -0.152341
C106  C     C_R   0.630979 0.972963 0.586243 -0.159457
C107  C     C_R   0.886587 0.457787 0.605320 -0.200656
C108  C     C_R   0.125584 0.464692 0.592073 -0.175348
C109  C     C_R   0.881907 0.040538 0.100339 -0.178847
C110  C     C_R   0.118434 0.040418 0.100042 -0.182204
C111  C     C_R   0.402895 0.538559 0.121395 -0.263782
C112  C     C_R   0.597114 0.461486 0.121430 -0.275754
H1    H     H_    0.365775 0.047062 0.556874 0.212626
H2    H     H_    0.633697 0.951455 0.557797 0.213191
H3    H     H_    0.898155 0.425836 0.592131 0.183562
H4    H     H_    0.125244 0.438660 0.567092 0.198446
H5    H     H_    0.889919 0.071804 0.083401 0.191800
H6    H     H_    0.110760 0.071585 0.082811 0.192461
H7    H     H_    0.425928 0.566357 0.119476 0.157936
H8    H     H_    0.573935 0.433813 0.119722 0.155934
C113  C     C_R   0.405824 0.999563 0.591941 -0.109454
C114  C     C_R   0.594260 0.000306 0.591900 -0.113086
C115  C     C_R   0.904809 0.499365 0.591449 -0.092803
C116  C     C_R   0.093996 0.499366 0.591802 -0.085927
C117  C     C_R   0.904541 0.000096 0.091156 -0.097411
C118  C     C_R   0.095343 0.000125 0.091264 -0.096644
C119  C     C_R   0.406682 0.501042 0.093205 -0.116484
C120  C     C_R   0.593559 0.498832 0.092887 -0.108467
C121  C     C_R   0.409748 0.972920 0.629225 0.031529
C122  C     C_R   0.590780 0.027758 0.628649 0.036102
C123  C     C_R   0.886814 0.539838 0.606715 0.097280
C124  C     C_R   0.095700 0.531708 0.624461 0.013588
C125  C     C_R   0.891379 0.959841 0.111360 0.092239
C126  C     C_R   0.108068 0.959945 0.111832 0.090822
C127  C     C_R   0.374795 0.467493 0.094240 0.169098
C128  C     C_R   0.625643 0.532154 0.093670 0.125812
C129  C     C_3   0.446068 0.974260 0.661409 -0.537402
C130  C     C_3   0.554430 0.027798 0.660849 -0.534525
C131  C     C_3   0.907121 0.583074 0.622610 -0.513448
C132  C     C_3   0.074817 0.574208 0.640834 -0.532620
C133  C     C_3   0.917599 0.923419 0.132950 -0.561152
C134  C     C_3   0.081444 0.924027 0.133783 -0.561979
C135  C     C_3   0.377964 0.416689 0.094749 -0.529262
C136  C     C_3   0.623415 0.582997 0.092432 -0.466561
C137  C     C_3   0.411740 0.976184 0.696996 0.527165
C138  C     C_3   0.588700 0.025886 0.696489 0.524928
C139  C     C_3   0.873471 0.581995 0.659627 0.474460
C140  C     C_3   0.108704 0.572118 0.678123 0.509640
C141  C     C_3   0.884249 0.924718 0.169919 0.486769
C142  C     C_3   0.114819 0.925357 0.170716 0.487309
C143  C     C_3   0.341568 0.417555 0.128754 0.441869
C144  C     C_3   0.658831 0.582496 0.127772 0.441018
H9    H     H_    0.466170 0.942959 0.660975 0.194251
H10   H     H_    0.534897 0.059480 0.659778 0.194149
H11   H     H_    0.535317 0.995975 0.658065 0.166377
H12   H     H_    0.464610 0.006408 0.657991 0.166768
H13   H     H_    0.941403 0.578483 0.632534 0.178684
H14   H     H_    0.079446 0.603048 0.617820 0.201804
H15   H     H_    0.040729 0.568531 0.651136 0.171790
H16   H     H_    0.902183 0.611146 0.598819 0.196248
H17   H     H_    0.917326 0.891300 0.113845 0.201770
H18   H     H_    0.048690 0.936607 0.142909 0.168815
H19   H     H_    0.081348 0.891711 0.114984 0.201774
H20   H     H_    0.950494 0.935557 0.142174 0.168991
H21   H     H_    0.368460 0.401516 0.063007 0.219704
H22   H     H_    0.634428 0.596118 0.060337 0.248505
H23   H     H_    0.591347 0.596221 0.102683 0.183682
H24   H     H_    0.409719 0.404733 0.107476 0.175583
C145  C     C_R   0.164986 0.015635 0.884142 -0.036529
C146  C     C_R   0.834877 0.014701 0.884451 -0.018613
C147  C     C_R   0.663479 0.521208 0.881923 -0.039746
C148  C     C_R   0.334239 0.511867 0.884967 -0.034385
C149  C     C_R   0.666741 0.993305 0.385864 -0.059061
C150  C     C_R   0.333076 0.005124 0.385915 -0.038009
C151  C     C_R   0.166415 0.490286 0.385570 -0.033804
C152  C     C_R   0.835099 0.484220 0.384154 -0.034939
C153  C     C_R   0.157585 0.998729 0.842531 -0.074131
C154  C     C_R   0.842396 0.998433 0.842594 -0.084425
C155  C     C_R   0.657477 0.499488 0.842259 -0.069528
C156  C     C_R   0.342454 0.497894 0.842537 -0.082997
C157  C     C_R   0.657335 0.001862 0.342389 -0.079097
C158  C     C_R   0.342765 0.998293 0.342295 -0.084885
C159  C     C_R   0.157530 0.501936 0.342599 -0.083561
C160  C     C_R   0.842412 0.501297 0.342543 -0.072408
C161  C     C_R   0.116069 0.980700 0.833572 -0.168002
C162  C     C_R   0.883991 0.980764 0.833458 -0.169142
C163  C     C_R   0.617133 0.478215 0.834787 -0.179505
C164  C     C_R   0.384817 0.482748 0.832779 -0.176117
C165  C     C_R   0.613567 0.010466 0.331449 -0.165307
C166  C     C_R   0.386695 0.990712 0.331311 -0.174990
C167  C     C_R   0.114570 0.514756 0.332425 -0.176588
C168  C     C_R   0.883847 0.519567 0.333580 -0.168249
H25   H     H_    0.108626 0.966550 0.801870 0.156933
H26   H     H_    0.891491 0.966953 0.801635 0.158137
H27   H     H_    0.610691 0.460937 0.804307 0.157334
H28   H     H_    0.392950 0.470679 0.800468 0.161783
H29   H     H_    0.604218 0.017750 0.298161 0.161901
H30   H     H_    0.396285 0.984557 0.297894 0.164744
H31   H     H_    0.105820 0.524942 0.299670 0.162552
H32   H     H_    0.891216 0.533861 0.301888 0.156932
C169  C     C_R   0.083806 0.980562 0.865970 -0.204105
C170  C     C_R   0.916304 0.980669 0.865795 -0.206036
C171  C     C_R   0.585174 0.478079 0.867481 -0.208276
C172  C     C_R   0.417101 0.482917 0.865151 -0.212106
C173  C     C_R   0.581361 0.010045 0.363897 -0.210821
C174  C     C_R   0.418797 0.990991 0.363870 -0.214773
C175  C     C_R   0.082426 0.514613 0.364933 -0.209342
C176  C     C_R   0.916127 0.519742 0.365952 -0.205416
H33   H     H_    0.052156 0.966512 0.858704 0.130712
H34   H     H_    0.948020 0.966919 0.858388 0.131048
H35   H     H_    0.554689 0.460810 0.861670 0.135549
H36   H     H_    0.449347 0.470861 0.857356 0.131379
H37   H     H_    0.548051 0.017283 0.355188 0.128497
H38   H     H_    0.452293 0.984902 0.355073 0.128683
H39   H     H_    0.049674 0.524764 0.356768 0.129521
H40   H     H_    0.947719 0.533952 0.358669 0.130969
C177  C     C_R   0.092453 0.999516 0.907137 -0.039711
C178  C     C_R   0.907647 0.999398 0.907049 -0.040486
C179  C     C_R   0.592801 0.500474 0.907283 -0.028526
C180  C     C_R   0.407652 0.499644 0.907017 -0.025548
C181  C     C_R   0.592486 0.999902 0.407241 -0.022829
C182  C     C_R   0.407360 0.999810 0.407402 -0.019458
C183  C     C_R   0.092705 0.500423 0.407472 -0.020934
C184  C     C_R   0.907587 0.500588 0.407100 -0.040424
C185  C     C_R   0.133602 0.016265 0.914980 -0.063453
C186  C     C_R   0.866400 0.015688 0.915091 -0.048485
C187  C     C_R   0.632139 0.522698 0.912734 -0.058669
C188  C     C_R   0.365816 0.514118 0.915426 -0.057010
C189  C     C_R   0.635454 0.990654 0.416616 -0.064805
C190  C     C_R   0.364062 0.006949 0.416973 -0.063908
C191  C     C_R   0.135136 0.488339 0.416387 -0.062232
C192  C     C_R   0.866510 0.483640 0.414960 -0.062954
C193  C     C_3   0.160934 0.040373 0.948083 0.518842
C194  C     C_3   0.839225 0.039849 0.948245 0.487450
C195  C     C_3   0.660602 0.546304 0.945629 0.468040
C196  C     C_3   0.337085 0.534771 0.949652 0.469705
C197  C     C_3   0.666590 0.981035 0.453089 0.518308
C198  C     C_3   0.332696 0.018133 0.452885 0.459279
C199  C     C_3   0.164866 0.470404 0.451248 0.458210
C200  C     C_3   0.839377 0.459214 0.448062 0.517476
C201  C     C_3   0.197899 0.038538 0.912934 0.305162
C202  C     C_3   0.802131 0.037914 0.913227 0.302564
C203  C     C_3   0.696648 0.545100 0.909465 0.324324
C204  C     C_3   0.300261 0.531792 0.914413 0.321925
C205  C     C_3   0.702800 0.982742 0.417230 0.327305
C206  C     C_3   0.296664 0.015211 0.416814 0.337937
C207  C     C_3   0.201317 0.473239 0.415565 0.328487
C208  C     C_3   0.802362 0.460953 0.412965 0.302191
O65   O     O_R   0.954900 0.964110 0.954900 -0.591281
O66   O     O_R   0.045100 0.035890 0.954900 -0.555119
O67   O     O_R   0.045100 0.964110 0.954900 -0.592259
O68   O     O_R   0.954900 0.035890 0.954900 -0.554952
O69   O     O_R   0.454900 0.464110 0.954900 -0.590995
O70   O     O_R   0.545100 0.535890 0.954900 -0.547605
O71   O     O_R   0.545100 0.464110 0.954900 -0.593463
O72   O     O_R   0.454900 0.535890 0.954900 -0.547201
O73   O     O_R   0.454900 0.964110 0.454900 -0.578142
O74   O     O_R   0.545100 0.035890 0.454900 -0.572698
O75   O     O_R   0.545100 0.964110 0.454900 -0.564124
O76   O     O_R   0.454900 0.035890 0.454900 -0.563098
O77   O     O_R   0.954900 0.464110 0.454900 -0.554739
O78   O     O_R   0.045100 0.535890 0.454900 -0.589826
O79   O     O_R   0.045100 0.464110 0.454900 -0.552581
O80   O     O_R   0.954900 0.535890 0.454900 -0.591775
C209  C     C_R   0.940153 0.999941 0.940200 0.869481
C210  C     C_R   0.059988 0.999968 0.940338 0.869070
C211  C     C_R   0.440011 0.499979 0.940336 0.880668
C212  C     C_R   0.560741 0.500094 0.941040 0.878841
C213  C     C_R   0.439489 0.999996 0.440900 0.874146
C214  C     C_R   0.560373 0.999988 0.440757 0.866844
C215  C     C_R   0.940091 0.500064 0.440260 0.869286
C216  C     C_R   0.060420 0.500049 0.440810 0.874328
O81   O     O_R   0.454900 0.964130 0.545070 -0.563241
O82   O     O_R   0.545100 0.035870 0.545070 -0.567232
O83   O     O_R   0.545100 0.964130 0.545070 -0.590901
O84   O     O_R   0.454900 0.035870 0.545070 -0.596936
O85   O     O_R   0.954900 0.464130 0.545070 -0.585040
O86   O     O_R   0.045100 0.535870 0.545070 -0.577596
O87   O     O_R   0.045100 0.464130 0.545070 -0.598729
O88   O     O_R   0.954900 0.535870 0.545070 -0.586492
O89   O     O_R   0.954900 0.964130 0.045070 -0.581564
O90   O     O_R   0.045100 0.035870 0.045070 -0.590182
O91   O     O_R   0.045100 0.964130 0.045070 -0.581261
O92   O     O_R   0.954900 0.035870 0.045070 -0.589847
O93   O     O_R   0.454900 0.464130 0.045070 -0.592631
O94   O     O_R   0.545100 0.535870 0.045070 -0.591792
O95   O     O_R   0.545100 0.464130 0.045070 -0.588021
O96   O     O_R   0.454900 0.535870 0.045070 -0.578633
C217  C     C_R   0.440231 0.999967 0.560149 0.868750
C218  C     C_R   0.559877 0.999996 0.560054 0.861799
C219  C     C_R   0.940135 0.499908 0.560275 0.874769
C220  C     C_R   0.060311 0.499948 0.559492 0.877790
C221  C     C_R   0.939968 0.000003 0.060097 0.872305
C222  C     C_R   0.059959 0.000024 0.060167 0.873022
C223  C     C_R   0.440717 0.500058 0.060768 0.874684
C224  C     C_R   0.559446 0.499907 0.060588 0.863194
Cu17  Cu    Cu3+1 1.000000 0.957530 0.999990 0.990094
Cu18  Cu    Cu3+1 1.000000 0.042470 0.999990 1.072770
Cu19  Cu    Cu3+1 0.500000 0.457530 0.999990 0.987083
Cu20  Cu    Cu3+1 0.500000 0.542470 0.999990 1.073202
Cu21  Cu    Cu3+1 0.500000 0.957530 0.499990 1.041709
Cu22  Cu    Cu3+1 0.500000 0.042470 0.499990 1.044273
Cu23  Cu    Cu3+1 0.000000 0.457530 0.499990 1.070323
Cu24  Cu    Cu3+1 0.000000 0.542470 0.499990 0.993010
N1    N     N_2   0.300247 0.057179 0.612060 -0.437277
H41   H     H_    0.308458 0.088503 0.599247 0.264496
C225  C     C_3   0.261502 0.038146 0.592561 -0.478944
H42   H     H_    0.258347 0.049682 0.558278 0.246259
H43   H     H_    0.232746 0.050274 0.610875 0.204468
H44   H     H_    0.261655 0.000292 0.593252 0.247920
N2    N     N_2   0.699235 0.941727 0.612962 -0.437333
H45   H     H_    0.690783 0.910285 0.600648 0.262299
C226  C     C_3   0.737979 0.960212 0.592931 -0.489629
H46   H     H_    0.740370 0.948945 0.558533 0.247824
H47   H     H_    0.766814 0.947422 0.610710 0.204785
H48   H     H_    0.738465 0.998056 0.593811 0.247809
N3    N     N_2   0.837498 0.414865 0.652814 -0.456097
H49   H     H_    0.860601 0.389575 0.654606 0.254069
C227  C     C_3   0.799197 0.399721 0.629880 -0.597703
H50   H     H_    0.807053 0.392649 0.595183 0.257652
H51   H     H_    0.773296 0.425839 0.631534 0.251630
H52   H     H_    0.786806 0.368021 0.645201 0.214055
N4    N     N_2   0.190180 0.429093 0.623879 -0.400748
H53   H     H_    0.197718 0.417860 0.592952 0.299098
C228  C     C_3   0.181578 0.391730 0.653368 -0.674178
H54   H     H_    0.151891 0.373188 0.643078 0.228162
H55   H     H_    0.177261 0.404282 0.687203 0.215100
H56   H     H_    0.209359 0.367749 0.652993 0.238760
N5    N     N_2   0.828282 0.082629 0.143058 -0.456770
H57   H     H_    0.849006 0.110179 0.144081 0.251175
C229  C     C_3   0.790649 0.091827 0.116427 -0.574419
H58   H     H_    0.800487 0.097606 0.082013 0.262381
H59   H     H_    0.774090 0.122829 0.128642 0.208895
H60   H     H_    0.767392 0.063017 0.117922 0.253357
N6    N     N_2   0.172647 0.082348 0.142225 -0.457634
H61   H     H_    0.152229 0.110113 0.143161 0.250666
C230  C     C_3   0.210210 0.090933 0.115268 -0.572868
H62   H     H_    0.200221 0.096513 0.080876 0.262224
H63   H     H_    0.233157 0.061898 0.116836 0.254693
H64   H     H_    0.227184 0.121870 0.127123 0.207622
N7    N     N_2   0.368082 0.576660 0.183064 -0.429314
H65   H     H_    0.397738 0.591317 0.189726 0.249380
C231  C     C_3   0.335901 0.610324 0.171527 -0.634222
H66   H     H_    0.344527 0.626778 0.140062 0.240127
H67   H     H_    0.334512 0.636849 0.197227 0.221109
H68   H     H_    0.303354 0.594460 0.168715 0.227823
N8    N     N_2   0.631687 0.423546 0.183419 -0.426165
H69   H     H_    0.601964 0.409033 0.190110 0.250188
C232  C     C_3   0.663796 0.389707 0.172214 -0.654418
H70   H     H_    0.655184 0.373063 0.140875 0.230827
H71   H     H_    0.665058 0.363357 0.198137 0.223944
H72   H     H_    0.696391 0.405454 0.169318 0.227483
N9    N     N_2   0.410632 0.936772 0.726240 -0.413374
H73   H     H_    0.393551 0.942735 0.754564 0.274558
C233  C     C_3   0.401078 0.892127 0.708417 -0.686748
H74   H     H_    0.406621 0.865899 0.733876 0.232533
H75   H     H_    0.422372 0.884150 0.680362 0.237816
H76   H     H_    0.366612 0.890276 0.698111 0.224561
N10   N     N_2   0.590525 0.065830 0.724942 -0.413672
H77   H     H_    0.607495 0.060071 0.753377 0.273962
C234  C     C_3   0.600904 0.109918 0.706236 -0.692190
H78   H     H_    0.595836 0.136746 0.731165 0.229997
H79   H     H_    0.579771 0.117773 0.678021 0.238657
H80   H     H_    0.635401 0.110868 0.695905 0.225059
N11   N     N_2   0.587974 0.983201 0.721046 -0.416991
H81   H     H_    0.594704 0.954449 0.702958 0.243511
C235  C     C_3   0.552005 0.976276 0.750578 -0.691286
H82   H     H_    0.559354 0.947202 0.772477 0.234939
H83   H     H_    0.522234 0.967976 0.731930 0.231604
H84   H     H_    0.546458 0.006803 0.771107 0.241478
N12   N     N_2   0.411670 0.019349 0.720697 -0.416991
H85   H     H_    0.404500 0.047604 0.702017 0.242841
C236  C     C_3   0.447441 0.027536 0.750146 -0.695233
H86   H     H_    0.439613 0.057011 0.771320 0.232796
H87   H     H_    0.477166 0.035838 0.731388 0.231303
H88   H     H_    0.453328 0.997604 0.771425 0.242398
N13   N     N_2   0.890731 0.575221 0.703752 -0.391855
H89   H     H_    0.895675 0.604552 0.721348 0.262408
C237  C     C_3   0.925103 0.542399 0.711338 -0.709772
H90   H     H_    0.925688 0.533296 0.746442 0.238848
H91   H     H_    0.957029 0.557425 0.702829 0.205309
H92   H     H_    0.920161 0.510665 0.692527 0.233484
N14   N     N_2   0.140884 0.608515 0.676800 -0.424852
H93   H     H_    0.158269 0.610136 0.648082 0.251582
C238  C     C_3   0.127260 0.652941 0.691860 -0.696358
H94   H     H_    0.153604 0.678023 0.686091 0.233145
H95   H     H_    0.120841 0.652182 0.727424 0.239725
H96   H     H_    0.097852 0.664304 0.674066 0.219930
N15   N     N_2   0.090177 0.565288 0.721611 -0.388288
H97   H     H_    0.072390 0.592789 0.732268 0.248552
C239  C     C_3   0.068625 0.522571 0.731610 -0.685352
H98   H     H_    0.057257 0.523096 0.765936 0.224001
H99   H     H_    0.091273 0.493514 0.728139 0.249543
H100  H     H_    0.040115 0.517452 0.710125 0.206870
N16   N     N_2   0.841410 0.618504 0.657292 -0.430041
H101  H     H_    0.822618 0.617927 0.629451 0.256670
C240  C     C_3   0.855781 0.664089 0.668167 -0.699038
H102  H     H_    0.830493 0.689071 0.658624 0.233302
H103  H     H_    0.886221 0.672721 0.650705 0.225053
H104  H     H_    0.860533 0.667497 0.703816 0.231113
N17   N     N_2   0.860280 0.882114 0.175873 -0.408375
H105  H     H_    0.879962 0.854483 0.181975 0.252497
C241  C     C_3   0.824835 0.871328 0.146629 -0.680274
H106  H     H_    0.810572 0.837965 0.155860 0.226350
H107  H     H_    0.836640 0.869278 0.112496 0.234108
H108  H     H_    0.798911 0.897367 0.149276 0.239213
N18   N     N_2   0.097510 0.943567 0.211399 -0.395670
H109  H     H_    0.084673 0.975895 0.208695 0.240175
C242  C     C_3   0.070218 0.913489 0.236856 -0.686143
H110  H     H_    0.057478 0.932072 0.265624 0.224612
H111  H     H_    0.089213 0.884051 0.249018 0.243490
H112  H     H_    0.042389 0.901301 0.217103 0.208445
N19   N     N_2   0.138300 0.882563 0.177061 -0.408959
H113  H     H_    0.118304 0.855208 0.183429 0.252490
C243  C     C_3   0.173616 0.871102 0.147901 -0.677177
H114  H     H_    0.187500 0.837686 0.157439 0.227384
H115  H     H_    0.199836 0.896890 0.150289 0.238716
H116  H     H_    0.161783 0.868826 0.113797 0.234240
N20   N     N_2   0.901768 0.942319 0.210762 -0.395894
H117  H     H_    0.914997 0.974524 0.208352 0.240317
C244  C     C_3   0.928688 0.911677 0.235929 -0.687015
H118  H     H_    0.941683 0.929833 0.264841 0.224466
H119  H     H_    0.956347 0.899335 0.216038 0.208461
H120  H     H_    0.909324 0.882359 0.247859 0.243553
N21   N     N_2   0.301142 0.396229 0.114229 -0.411003
H121  H     H_    0.304420 0.362022 0.107518 0.252527
C245  C     C_3   0.274581 0.419291 0.082056 -0.606947
H122  H     H_    0.245299 0.398523 0.075175 0.210590
H123  H     H_    0.292836 0.423949 0.051196 0.258176
H124  H     H_    0.263558 0.452770 0.094579 0.258762
N22   N     N_2   0.700666 0.600066 0.113014 -0.417712
H125  H     H_    0.715109 0.580883 0.088882 0.291526
C246  C     C_3   0.703713 0.648489 0.104316 -0.638770
H126  H     H_    0.735433 0.656154 0.088839 0.231770
H127  H     H_    0.702194 0.668281 0.134993 0.217386
H128  H     H_    0.677621 0.659701 0.081857 0.244377
N23   N     N_2   0.646356 0.599942 0.170793 -0.416929
H129  H     H_    0.655472 0.632935 0.177267 0.266372
C247  C     C_3   0.603978 0.589461 0.188763 -0.715366
H130  H     H_    0.604918 0.594097 0.224640 0.241617
H131  H     H_    0.594192 0.553855 0.182096 0.234574
H132  H     H_    0.579296 0.613039 0.175261 0.219862
N24   N     N_2   0.355060 0.401953 0.171871 -0.426572
H133  H     H_    0.381247 0.419365 0.184562 0.239707
C248  C     C_3   0.358415 0.353255 0.178320 -0.685182
H134  H     H_    0.371507 0.346205 0.211349 0.229141
H135  H     H_    0.380491 0.338010 0.153761 0.219978
H136  H     H_    0.325954 0.337124 0.176289 0.242577
N25   N     N_R   0.143971 0.086029 0.957904 0.113351
O97   O     O_R   0.128146 0.111571 0.927072 -0.335971
O98   O     O_R   0.142042 0.100377 0.997960 -0.353670
N26   N     N_R   0.831082 0.013019 0.987850 0.095852
O99   O     O_R   0.801539 0.026086 0.015367 -0.371154
O100  O     O_R   0.855402 0.978334 0.997711 -0.402664
N27   N     N_R   0.856237 0.085571 0.957863 0.118545
O101  O     O_R   0.871734 0.111120 0.926839 -0.335870
O102  O     O_R   0.858693 0.099923 0.997888 -0.346433
N28   N     N_R   0.169471 0.013648 0.987608 0.107621
O103  O     O_R   0.200914 0.025413 0.013498 -0.340359
O104  O     O_R   0.143997 0.980346 0.998924 -0.407981
N29   N     N_R   0.645702 0.592125 0.957451 0.101025
O105  O     O_R   0.670623 0.618649 0.980345 -0.371047
O106  O     O_R   0.607037 0.606094 0.947150 -0.364810
N30   N     N_R   0.331168 0.505407 0.987956 0.093513
O107  O     O_R   0.356741 0.470967 0.994946 -0.433320
O108  O     O_R   0.301778 0.515293 0.016825 -0.363754
N31   N     N_R   0.350023 0.581270 0.961744 0.106187
O109  O     O_R   0.329469 0.602669 0.992529 -0.321916
O110  O     O_R   0.382425 0.601448 0.942577 -0.363700
N32   N     N_R   0.669631 0.518265 0.984294 0.089562
O111  O     O_R   0.649254 0.480062 0.990915 -0.394900
O112  O     O_R   0.696734 0.532625 0.013664 -0.375093
N33   N     N_R   0.668337 0.018061 0.485279 0.109635
O113  O     O_R   0.641504 0.052170 0.483391 -0.363764
O114  O     O_R   0.695748 0.016201 0.517348 -0.373931
N34   N     N_R   0.330407 0.982956 0.486795 0.090090
O115  O     O_R   0.298063 0.982372 0.513916 -0.388205
O116  O     O_R   0.362021 0.954258 0.492387 -0.387354
N35   N     N_R   0.339301 0.063772 0.471283 0.084547
O117  O     O_R   0.373444 0.087727 0.461484 -0.368589
O118  O     O_R   0.311277 0.080488 0.498523 -0.390499
N36   N     N_R   0.660553 0.936400 0.473653 0.084412
O119  O     O_R   0.692173 0.917941 0.495371 -0.365722
O120  O     O_R   0.623156 0.915958 0.472646 -0.386831
N37   N     N_R   0.170101 0.501579 0.488264 0.090161
O121  O     O_R   0.142160 0.533873 0.495433 -0.402005
O122  O     O_R   0.200777 0.494622 0.516562 -0.354903
N38   N     N_R   0.856689 0.413659 0.457800 0.113370
O123  O     O_R   0.859510 0.399529 0.497907 -0.337533
O124  O     O_R   0.872309 0.388198 0.426845 -0.336555
N39   N     N_R   0.830724 0.485722 0.487650 0.108938
O125  O     O_R   0.855891 0.519289 0.498862 -0.409999
O126  O     O_R   0.799670 0.473353 0.513800 -0.327280
N40   N     N_R   0.153839 0.424005 0.465476 0.095522
O127  O     O_R   0.176527 0.404284 0.495796 -0.361167
O128  O     O_R   0.120911 0.402377 0.448906 -0.362381
N41   N     N_2   0.210643 0.082947 0.895957 -0.412313
H137  H     H_    0.220824 0.082464 0.863946 0.253185
C249  C     C_3   0.238174 0.110526 0.923626 -0.569782
H138  H     H_    0.237557 0.146278 0.911925 0.228461
H139  H     H_    0.272114 0.098114 0.922323 0.194129
H140  H     H_    0.226786 0.109916 0.957927 0.264095
N42   N     N_2   0.764457 0.009710 0.924397 -0.411461
H141  H     H_    0.746657 0.021764 0.950347 0.279685
C250  C     C_3   0.767371 0.960382 0.923312 -0.601580
H142  H     H_    0.735451 0.945479 0.932037 0.216746
H143  H     H_    0.791784 0.947835 0.946868 0.255808
H144  H     H_    0.775729 0.948277 0.890177 0.231071
N43   N     N_2   0.789544 0.082039 0.895625 -0.394502
H145  H     H_    0.779740 0.081099 0.863512 0.263230
C251  C     C_3   0.761518 0.109830 0.922495 -0.591793
H146  H     H_    0.761767 0.145307 0.910030 0.233687
H147  H     H_    0.772758 0.110183 0.956853 0.255740
H148  H     H_    0.727762 0.096764 0.921162 0.203470
N44   N     N_2   0.235321 0.009764 0.923765 -0.398049
H149  H     H_    0.263701 0.019474 0.908634 0.264164
C252  C     C_3   0.230740 0.960533 0.924414 -0.598324
H150  H     H_    0.258911 0.945376 0.941572 0.227819
H151  H     H_    0.229982 0.947003 0.890678 0.215243
H152  H     H_    0.200909 0.949709 0.941573 0.258065
N45   N     N_2   0.710417 0.589557 0.892499 -0.403170
H153  H     H_    0.724118 0.610691 0.915485 0.282698
C253  C     C_3   0.684347 0.613376 0.860430 -0.612216
H154  H     H_    0.699599 0.646668 0.852690 0.220024
H155  H     H_    0.651207 0.619588 0.873026 0.259145
H156  H     H_    0.682658 0.593580 0.829744 0.208361
N46   N     N_2   0.264438 0.500680 0.924730 -0.390286
H157  H     H_    0.246848 0.509925 0.951867 0.276511
C254  C     C_3   0.269982 0.451782 0.920696 -0.614929
H158  H     H_    0.239330 0.434387 0.929800 0.213789
H159  H     H_    0.296033 0.439420 0.942513 0.249697
H160  H     H_    0.277562 0.442309 0.886589 0.232058
N47   N     N_2   0.285173 0.575451 0.897451 -0.412893
H161  H     H_    0.309210 0.597800 0.887936 0.267109
C255  C     C_3   0.249013 0.596989 0.919274 -0.588901
H162  H     H_    0.243639 0.631429 0.905347 0.218113
H163  H     H_    0.255393 0.600298 0.954688 0.256710
H164  H     H_    0.219006 0.576851 0.914102 0.227576
N48   N     N_2   0.733196 0.515044 0.918651 -0.394834
H165  H     H_    0.725251 0.483095 0.930188 0.270347
C256  C     C_3   0.771363 0.534746 0.938601 -0.582809
H166  H     H_    0.794644 0.507361 0.947157 0.214232
H167  H     H_    0.762711 0.553673 0.968609 0.253067
H168  H     H_    0.787650 0.558098 0.915308 0.226554
N49   N     N_2   0.732484 0.021097 0.422482 -0.415538
H169  H     H_    0.739126 0.039415 0.394606 0.266278
C257  C     C_3   0.770036 0.014475 0.450114 -0.578061
H170  H     H_    0.779886 0.047663 0.464234 0.238723
H171  H     H_    0.797466 0.000948 0.430625 0.186243
H172  H     H_    0.762978 0.990399 0.477111 0.263748
N50   N     N_2   0.265373 0.977864 0.421660 -0.395145
H173  H     H_    0.246058 0.980248 0.448962 0.276977
C258  C     C_3   0.277629 0.931462 0.411091 -0.598599
H174  H     H_    0.249960 0.908292 0.417749 0.215487
H175  H     H_    0.305644 0.920326 0.431012 0.254552
H176  H     H_    0.285689 0.928446 0.376001 0.221010
N51   N     N_2   0.275998 0.058356 0.405526 -0.404045
H177  H     H_    0.296656 0.085647 0.401262 0.267854
C259  C     C_3   0.235454 0.069614 0.426680 -0.578966
H178  H     H_    0.225929 0.104944 0.418090 0.219475
H179  H     H_    0.238486 0.066935 0.462602 0.245306
H180  H     H_    0.209437 0.046431 0.415200 0.223952
N52   N     N_2   0.725191 0.939624 0.408080 -0.395337
H181  H     H_    0.755998 0.943600 0.395646 0.268450
C260  C     C_3   0.702352 0.903071 0.385969 -0.596179
H182  H     H_    0.699864 0.910569 0.350590 0.193027
H183  H     H_    0.669413 0.897945 0.399437 0.260270
H184  H     H_    0.720709 0.870878 0.390046 0.230218
N53   N     N_2   0.235970 0.506338 0.424014 -0.393090
H185  H     H_    0.254308 0.499126 0.451222 0.279805
C261  C     C_3   0.228352 0.554698 0.417908 -0.598131
H186  H     H_    0.258195 0.573926 0.426280 0.216349
H187  H     H_    0.201686 0.566733 0.439144 0.253886
H188  H     H_    0.220496 0.562246 0.383405 0.225685
N54   N     N_2   0.789872 0.416545 0.395897 -0.414142
H189  H     H_    0.779596 0.417140 0.363920 0.252879
C262  C     C_3   0.762594 0.388615 0.423565 -0.558646
H190  H     H_    0.763359 0.352948 0.411710 0.230241
H191  H     H_    0.728582 0.400831 0.422462 0.195119
H192  H     H_    0.774113 0.389057 0.457817 0.265159
N55   N     N_2   0.764774 0.489416 0.423926 -0.397867
H193  H     H_    0.736433 0.479568 0.408834 0.264617
C263  C     C_3   0.769039 0.538675 0.424648 -0.599558
H194  H     H_    0.769653 0.552348 0.390936 0.215221
H195  H     H_    0.798827 0.549642 0.441758 0.257779
H196  H     H_    0.740800 0.553561 0.441894 0.228089
N56   N     N_2   0.217938 0.429485 0.400448 -0.411356
H197  H     H_    0.194724 0.405561 0.392569 0.268285
C264  C     C_3   0.255515 0.410868 0.422344 -0.578524
H198  H     H_    0.261985 0.375962 0.410123 0.219288
H199  H     H_    0.250199 0.409311 0.458052 0.256963
H200  H     H_    0.284494 0.432024 0.415251 0.226075

loop_
_geom_bond_atom_site_label_1
_geom_bond_atom_site_label_2
_geom_bond_distance
_ccdc_geom_bond_type
Cu16  O64   1.972491 S    
C247  H132  1.110129 S    
N8    H69   1.031764 S    
C264  H198  1.110608 S    
C184  C215  1.429237 S    
O29   C21   1.316336 A    
C50   C66   1.480659 S    
C112  C120  1.407643 A    
N13   H89   1.028720 S    
C243  H114  1.110581 S    
C68   C71   1.248148 T    
C237  H90   1.109908 S    
C225  H44   1.112351 S    
O45   C21   1.316414 A    
O34   C10   1.316467 A    
O24   Cu3   1.832627 S    
O79   Cu23  1.971751 S    
C134  H18   1.112555 S    
C161  C169  1.407007 A    
C197  N36   1.466424 S    
O83   Cu21  1.972354 S    
N15   H97   1.030772 S    
C163  H27   1.083121 S    
O38   C14   1.316573 A    
O7    Cu7   1.972024 S    
C116  C220  1.436966 S    
C140  N14   1.459313 S    
O75   Cu21  1.971751 S    
N45   C253  1.451096 S    
N1    H41   1.031786 S    
C201  N41   1.458076 S    
C184  C192  1.382717 A    
N3    C227  1.445973 S    
C261  H188  1.108567 S    
C140  N15   1.465356 S    
C245  H123  1.110181 S    
C229  H59   1.110344 S    
C149  C157  1.388261 A    
C238  H96   1.110809 S    
C26   C154  1.444029 S    
N38   O123  1.301545 A    
O12   Cu12  1.974846 S    
C96   C104  1.411471 A    
C250  H142  1.110322 S    
C113  C121  1.391027 A    
O47   Cu16  1.832063 S    
C126  C134  1.496401 S    
C230  H63   1.110261 S    
C110  C118  1.407523 A    
C172  H36   1.083476 S    
O48   C24   1.316316 A    
C151  C207  1.503035 S    
C18   C42   1.506670 S    
O3    C3    1.293914 A    
C199  N37   1.468859 S    
C64   C80   1.480669 S    
C49   C65   1.480704 S    
C3    C91   1.436762 S    
O57   C25   1.293632 A    
C22   C46   1.506642 S    
C167  H31   1.082898 S    
C177  C210  1.428960 S    
C37   C53   1.248056 T    
N47   C255  1.447891 S    
C85   C141  1.506954 S    
Cu10  O58   1.972491 S    
C132  H14   1.111581 S    
Cu4   O52   1.974846 S    
C116  C124  1.382827 A    
C62   C78   1.480707 S    
C83   C139  1.502182 S    
O20   Cu1   1.832627 S    
Cu7   Cu15  2.690386 S    
C118  C222  1.450492 S    
N34   O116  1.301431 A    
C231  H68   1.110412 S    
C2    C90   1.447459 S    
C142  N18   1.460167 S    
C194  N26   1.469479 S    
C86   C94   1.391325 A    
N21   C245  1.451212 S    
O95   Cu19  1.972354 S    
N14   H93   1.032741 S    
C186  C194  1.498287 S    
O51   C27   1.294726 A    
C153  C161  1.413225 A    
O36   Cu9   1.832377 S    
C129  H9    1.109910 S    
N23   C247  1.452001 S    
C234  H80   1.111152 S    
C82   C122  1.386537 A    
N43   H145  1.031410 S    
O71   Cu19  1.971751 S    
O10   Cu10  1.974846 S    
C236  H88   1.109954 S    
C235  H83   1.109678 S    
N40   O127  1.300709 A    
O69   Cu19  1.972478 S    
C88   C144  1.504015 S    
O22   Cu4   1.832348 S    
C193  N28   1.468285 S    
C136  H23   1.109193 S    
O46   C22   1.316188 A    
C257  H172  1.110250 S    
O79   C216  1.234297 A    
O12   C4    1.292455 A    
C226  H47   1.109656 S    
N36   O119  1.300491 A    
O89   Cu17  1.972138 S    
N18   C242  1.448298 S    
C47   C63   1.247994 T    
C176  H40   1.083464 S    
C101  N5    1.421762 S    
C48   C64   1.248067 T    
O14   Cu14  1.974846 S    
C258  H174  1.110397 S    
C180  C211  1.429539 S    
O78   C216  1.233359 A    
C32   C160  1.443386 S    
O38   Cu12  1.832644 S    
C61   C77   1.480577 S    
C4    C92   1.437251 S    
C90   C98   1.416739 A    
C171  H35   1.083447 S    
C264  H200  1.110075 S    
C5    C93   1.438910 S    
N19   C243  1.450210 S    
N51   H177  1.032149 S    
C250  H144  1.108106 S    
C228  H56   1.110320 S    
C136  C144  1.540086 S    
O5    Cu5   1.972024 S    
Cu23  Cu24  2.495529 S    
C8    C96   1.440927 S    
N16   H101  1.032926 S    
O59   C27   1.291986 A    
O93   C223  1.240863 A    
C95   C103  1.411070 A    
C109  H5    1.083363 S    
C227  H51   1.109780 S    
N4    C228  1.446297 S    
C63   C79   1.480596 S    
O92   Cu18  1.971595 S    
O48   Cu15  1.832377 S    
C19   C43   1.506500 S    
C192  C200  1.498412 S    
Cu12  O60   1.972491 S    
C9    C33   1.506711 S    
C261  H186  1.110374 S    
O28   C20   1.316437 A    
O81   Cu21  1.972138 S    
Cu6   O54   1.974846 S    
C226  H46   1.109144 S    
O27   Cu6   1.832936 S    
C16   C40   1.506343 S    
C121  C129  1.494748 S    
O31   Cu8   1.832936 S    
Cu2   O50   1.974846 S    
O1    Cu1   1.972024 S    
C240  H103  1.110487 S    
C256  H166  1.110558 S    
N30   O107  1.301515 A    
O46   Cu16  1.832644 S    
C179  C187  1.388251 A    
O23   Cu4   1.832936 S    
C182  C213  1.428535 S    
C84   C124  1.349331 A    
O37   C13   1.316287 A    
C232  H71   1.110213 S    
C175  H39   1.083526 S    
C263  H195  1.106738 S    
N11   H81   1.032530 S    
C234  H79   1.108427 S    
O33   C9    1.316386 A    
C98   C106  1.402764 A    
C171  C179  1.407817 A    
C241  H108  1.110539 S    
C99   C107  1.406408 A    
N26   O99   1.301116 A    
C196  C204  1.571499 S    
Cu8   Cu16  2.689735 S    
O13   Cu13  1.974380 S    
N56   H197  1.032170 S    
C201  N44   1.469865 S    
O31   C23   1.316193 A    
C102  C110  1.405310 A    
C88   C96   1.392780 A    
N5    H57   1.031688 S    
C228  H54   1.111563 S    
C130  C138  1.522747 S    
O47   C23   1.316144 A    
C233  H75   1.108418 S    
C152  C208  1.505641 S    
N7    H65   1.031777 S    
O74   C214  1.234905 A    
C199  N40   1.470578 S    
C198  N34   1.467553 S    
N46   H157  1.030859 S    
C87   C127  1.377905 A    
C94   C102  1.409926 A    
C254  H158  1.110355 S    
C97   C105  1.402661 A    
C133  H17   1.111527 S    
N37   O121  1.301612 A    
C139  N13   1.468729 S    
C237  H91   1.110350 S    
C106  C114  1.400623 A    
C138  N11   1.462583 S    
C206  N51   1.460933 S    
O63   C31   1.293863 A    
O10   C2    1.289683 A    
C130  H11   1.108414 S    
O96   Cu20  1.971595 S    
C239  H99   1.109039 S    
N32   O111  1.301834 A    
C85   C125  1.379067 A    
O82   C218  1.237043 A    
C227  H50   1.111892 S    
C43   C59   1.248014 T    
C15   C39   1.506596 S    
C174  H38   1.083512 S    
C27   C155  1.440593 S    
C41   C57   1.248004 T    
C73   C78   1.248182 T    
N33   O113  1.301885 A    
C162  H26   1.083014 S    
C258  H176  1.108858 S    
N2    H45   1.031788 S    
O52   C28   1.294782 A    
C241  H106  1.110587 S    
C45   C61   1.247990 T    
O88   Cu24  1.971595 S    
C260  H184  1.109964 S    
N55   H193  1.031196 S    
N6    C230  1.445901 S    
C51   C67   1.480776 S    
O27   C19   1.316191 A    
C156  C164  1.413633 A    
O3    Cu3   1.972024 S    
C157  C165  1.414958 A    
C65   C70   1.248137 T    
C38   C54   1.247988 T    
O35   C11   1.315993 A    
C81   C89   1.393990 A    
C162  C170  1.407110 A    
C159  C167  1.413603 A    
O80   C215  1.232438 A    
Cu5   Cu13  2.690386 S    
C168  H32   1.083030 S    
C244  H118  1.110615 S    
O90   C222  1.238582 A    
C147  C155  1.387355 A    
C91   C99   1.409771 A    
O37   Cu11  1.832342 S    
O17   C9    1.316409 A    
C181  C214  1.428213 S    
C177  C185  1.382854 A    
C82   C138  1.506418 S    
C139  N16   1.461721 S    
N25   O97   1.302453 A    
C100  N4    1.422608 S    
N50   C258  1.452136 S    
C226  H48   1.112301 S    
O21   C13   1.316504 A    
O60   C28   1.293442 A    
C258  H175  1.108484 S    
O23   C15   1.316272 A    
C115  C219  1.450413 S    
O24   C16   1.316101 A    
O45   Cu15  1.832342 S    
O16   Cu16  1.974846 S    
C256  H168  1.110197 S    
O94   C224  1.240611 A    
O64   C32   1.293640 A    
C112  H8    1.083772 S    
C145  C185  1.354214 A    
C23   C47   1.506547 S    
C257  H171  1.110533 S    
O44   C20   1.316382 A    
C108  C116  1.410751 A    
C173  C181  1.405610 A    
O95   C224  1.236136 A    
C246  H127  1.108103 S    
C119  C223  1.447374 S    
C208  N54   1.458049 S    
N29   O105  1.301102 A    
C151  C191  1.352419 A    
N44   H149  1.031190 S    
C36   C52   1.248087 T    
C59   C75   1.480622 S    
C31   C159  1.445114 S    
C137  N12   1.462651 S    
C120  C224  1.446584 S    
N17   H105  1.031360 S    
O32   Cu7   1.832627 S    
C165  H29   1.082818 S    
C255  H163  1.108926 S    
C111  C119  1.406872 A    
C242  H111  1.109697 S    
C205  N49   1.460720 S    
C161  H25   1.083027 S    
C199  C207  1.571884 S    
O65   Cu17  1.972478 S    
O14   C6    1.290314 A    
C141  N20   1.460178 S    
C84   C92   1.384165 A    
C187  C195  1.507543 S    
N22   H125  1.032489 S    
C154  C162  1.413358 A    
C229  H58   1.111689 S    
C254  H160  1.108344 S    
C87   C95   1.393053 A    
C252  H152  1.106777 S    
C197  C205  1.569000 S    
N2    C226  1.449303 S    
C174  C182  1.406154 A    
O32   C24   1.316477 A    
O67   Cu17  1.971751 S    
C106  H2    1.081523 S    
O84   C217  1.236837 A    
C225  H43   1.109656 S    
C251  H148  1.110775 S    
C134  H19   1.111524 S    
C195  N29   1.468826 S    
O66   C210  1.235502 A    
C136  H22   1.110438 S    
C123  C131  1.498094 S    
O1    C1    1.299587 A    
O40   Cu11  1.832377 S    
C178  C209  1.429106 S    
C88   C128  1.376029 A    
C248  H135  1.110839 S    
N45   H153  1.030808 S    
C259  H180  1.110158 S    
N3    H49   1.031725 S    
O13   C5    1.290340 A    
C193  C201  1.570915 S    
C261  H187  1.108111 S    
C118  C126  1.394857 A    
O43   C19   1.316194 A    
O7    C7    1.294626 A    
C238  H95   1.109448 S    
N38   O124  1.302454 A    
C243  H116  1.110698 S    
O17   Cu1   1.832669 S    
N27   O102  1.301352 A    
C12   C36   1.506602 S    
C149  C205  1.504007 S    
N12   H85   1.032529 S    
C134  C142  1.532273 S    
C141  N17   1.464644 S    
C248  H136  1.109713 S    
O49   C25   1.294359 A    
N18   H109  1.032719 S    
C10   C34   1.506573 S    
C259  H178  1.110578 S    
N49   C257  1.449416 S    
C102  N6    1.421714 S    
C149  C189  1.352211 A    
O53   C29   1.296258 A    
Cu14  O62   1.972491 S    
O30   C22   1.316271 A    
N47   H161  1.032153 S    
N56   C264  1.447958 S    
C34   C50   1.248062 T    
N31   O109  1.300766 A    
C206  N50   1.468471 S    
C205  N52   1.470879 S    
C203  N48   1.460528 S    
Cu4   Cu12  2.689735 S    
O83   C218  1.236983 A    
C262  H190  1.109899 S    
C101  C109  1.405097 A    
Cu19  Cu20  2.495529 S    
C231  H67   1.110213 S    
O77   Cu23  1.972478 S    
C135  H21   1.111103 S    
N53   C261  1.452307 S    
O11   C3    1.289435 A    
N28   O103  1.301118 A    
C198  N35   1.469529 S    
O15   Cu15  1.974380 S    
C146  C202  1.506202 S    
C46   C62   1.248084 T    
O28   Cu5   1.832627 S    
O39   C15   1.316097 A    
N23   H129  1.028664 S    
C232  H72   1.110393 S    
C7    C95   1.441081 S    
N7    C231  1.446150 S    
O61   C29   1.292694 A    
N54   H189  1.031528 S    
O6    C6    1.293951 A    
C107  C115  1.409698 A    
C185  C193  1.498724 S    
C132  C140  1.551693 S    
O6    Cu6   1.972491 S    
C247  H131  1.107837 S    
C105  C113  1.400031 A    
O80   Cu24  1.972514 S    
C236  H87   1.109763 S    
C11   C35   1.506814 S    
O18   Cu2   1.832348 S    
Cu13  O61   1.972024 S    
N40   O128  1.301901 A    
C100  C108  1.414579 A    
O67   C210  1.232378 A    
C262  H191  1.110228 S    
C183  C191  1.384449 A    
C125  C133  1.496431 S    
C86   C126  1.379044 A    
C148  C156  1.389092 A    
N4    H53   1.031774 S    
C109  C117  1.407623 A    
N41   C249  1.449173 S    
C191  C199  1.504788 S    
N36   O120  1.301028 A    
C263  H194  1.109626 S    
C104  C112  1.406348 A    
C17   C41   1.506465 S    
C83   C91   1.389974 A    
O91   C222  1.239894 A    
C84   C140  1.498608 S    
C92   C100  1.418424 A    
N43   C251  1.448201 S    
C21   C45   1.506465 S    
N39   O125  1.301456 A    
C160  C168  1.413303 A    
Cu11  O59   1.972024 S    
N19   H113  1.031361 S    
C229  H60   1.110232 S    
N33   O114  1.299120 A    
C249  H140  1.109856 S    
C148  C204  1.503630 S    
Cu2   Cu10  2.689735 S    
C147  C187  1.353299 A    
O43   Cu14  1.832063 S    
C145  C201  1.505301 S    
C135  C143  1.533329 S    
C117  C221  1.450376 S    
N15   C239  1.452337 S    
O76   Cu22  1.972514 S    
C197  N33   1.471218 S    
C250  H143  1.107448 S    
O78   Cu24  1.972292 S    
C235  H82   1.109961 S    
C245  H122  1.110394 S    
C113  C217  1.441975 S    
O50   C26   1.294226 A    
C74   C77   1.248159 T    
C208  N55   1.469846 S    
C97   N1    1.424469 S    
N42   C250  1.452541 S    
C53   C69   1.480657 S    
C245  H124  1.110082 S    
N52   C260  1.452931 S    
C232  H70   1.111610 S    
C13   C37   1.506574 S    
O54   C30   1.297119 A    
C39   C55   1.248007 T    
C249  H138  1.109894 S    
C103  C111  1.405403 A    
C40   C56   1.247900 T    
O5    C5    1.294078 A    
C114  C218  1.442862 S    
C131  H16   1.111553 S    
N10   H77   1.031763 S    
Cu7   O55   1.974380 S    
C240  H102  1.111002 S    
C158  C166  1.414940 A    
C66   C69   1.248156 T    
N8    C232  1.446067 S    
C82   C90   1.393704 A    
C163  C171  1.406865 A    
N24   H133  1.032682 S    
O33   Cu9   1.832342 S    
O90   Cu18  1.972318 S    
C119  C127  1.392559 A    
O39   Cu12  1.832063 S    
O18   C10   1.315883 A    
C42   C58   1.248121 T    
C33   C49   1.248123 T    
Cu1   Cu9   2.690386 S    
C241  H107  1.110697 S    
N26   O100  1.301639 A    
C193  N25   1.471854 S    
O22   C14   1.315797 A    
O85   C219  1.237807 A    
O62   C30   1.291482 A    
O19   C11   1.316517 A    
C169  C177  1.406723 A    
C253  H155  1.108687 S    
N44   C252  1.453287 S    
C262  H192  1.109839 S    
N34   O115  1.299633 A    
C110  H6    1.083343 S    
N49   H169  1.030675 S    
C147  C203  1.501849 S    
C225  H42   1.109382 S    
O69   C211  1.233483 A    
N1    C225  1.449312 S    
C25   C153  1.442947 S    
O73   Cu21  1.972478 S    
O92   C221  1.238345 A    
C44   C60   1.248101 T    
C145  C153  1.389579 A    
N50   H173  1.030694 S    
N46   C254  1.452355 S    
C167  C175  1.406781 A    
O94   Cu20  1.972318 S    
C124  C132  1.493235 S    
O68   Cu18  1.972514 S    
C166  H30   1.082778 S    
N10   C234  1.451735 S    
O87   C220  1.234450 A    
C235  H84   1.109980 S    
Cu1   O49   1.974380 S    
N25   O98   1.301380 A    
C253  H156  1.108618 S    
N32   O112  1.300278 A    
N24   C248  1.447977 S    
Cu3   Cu11  2.690386 S    
C144  N22   1.461762 S    
C81   C121  1.386540 A    
O36   C12   1.316469 A    
C55   C71   1.480614 S    
C131  H13   1.109442 S    
Cu5   O53   1.974380 S    
O56   C32   1.294179 A    
C172  C180  1.406704 A    
C89   C97   1.417233 A    
O76   C213  1.234131 A    
C14   C38   1.506501 S    
C204  N46   1.468160 S    
C155  C163  1.411606 A    
C144  N23   1.468230 S    
C207  N56   1.460569 S    
C152  C192  1.354381 A    
O11   Cu11  1.974380 S    
C204  N47   1.460464 S    
O30   Cu8   1.832348 S    
C133  C141  1.532245 S    
C255  H162  1.110616 S    
C260  H183  1.107469 S    
C105  H1    1.081373 S    
C131  C139  1.539308 S    
C56   C72   1.480503 S    
C257  H170  1.109688 S    
N30   O108  1.301041 A    
N12   C236  1.447061 S    
C143  N21   1.465409 S    
C227  H52   1.110439 S    
C164  H28   1.082946 S    
N22   C246  1.450198 S    
O2    C2    1.299184 A    
N48   C256  1.448242 S    
C202  N42   1.467491 S    
O34   Cu10  1.832644 S    
C239  H98   1.110407 S    
O25   Cu5   1.832669 S    
C20   C44   1.506643 S    
C128  C136  1.495846 S    
C230  H62   1.111693 S    
O25   C17   1.316388 A    
C247  H130  1.109950 S    
N35   O118  1.299802 A    
C35   C51   1.248187 T    
O29   Cu7   1.832669 S    
C198  C206  1.571679 S    
N21   H121  1.031167 S    
O41   C17   1.316347 A    
C164  C172  1.407269 A    
O84   Cu22  1.971595 S    
C165  C173  1.406879 A    
O44   Cu13  1.832377 S    
N31   O110  1.302064 A    
C111  H7    1.083798 S    
Cu21  Cu22  2.495529 S    
C240  H104  1.108479 S    
O86   Cu24  1.972318 S    
C244  H120  1.109707 S    
N55   C263  1.453279 S    
O81   C217  1.236731 A    
C1    C89   1.447803 S    
C228  H55   1.110348 S    
N16   C240  1.449737 S    
C85   C93   1.391291 A    
N20   H117  1.032723 S    
C54   C70   1.480558 S    
O73   C213  1.233900 A    
N11   C235  1.447022 S    
C246  H126  1.110810 S    
C263  H196  1.109946 S    
N13   C237  1.452948 S    
C202  N43   1.457013 S    
N35   O117  1.301625 A    
O74   Cu22  1.972292 S    
C188  C196  1.503240 S    
O40   C16   1.316597 A    
O8    C8    1.294335 A    
C189  C197  1.502205 S    
C253  H154  1.110545 S    
C86   C142  1.506972 S    
N27   O101  1.302440 A    
C117  C125  1.394872 A    
C132  H15   1.110886 S    
O58   C26   1.293848 A    
Cu8   O56   1.974846 S    
O19   Cu2   1.832936 S    
O87   Cu23  1.972354 S    
C242  H110  1.110607 S    
C137  N9    1.464618 S    
O2    Cu2   1.972491 S    
C200  N38   1.471956 S    
O68   C209  1.235494 A    
C233  H76   1.111147 S    
C195  C203  1.571728 S    
C180  C188  1.384096 A    
O15   C7    1.290560 A    
C181  C189  1.384185 A    
C120  C128  1.392086 A    
C175  C183  1.406461 A    
C176  C184  1.406735 A    
O89   C221  1.240033 A    
C115  C123  1.394353 A    
C114  C122  1.391420 A    
N54   C262  1.449153 S    
C129  H12   1.108754 S    
O26   C18   1.316304 A    
C6    C94   1.439368 S    
C194  C202  1.571474 S    
C166  C174  1.407338 A    
N39   O126  1.301195 A    
C81   C137  1.506746 S    
C252  H151  1.109646 S    
C104  N8    1.422656 S    
C237  H92   1.107569 S    
C148  C188  1.352220 A    
C256  H167  1.109003 S    
C30   C158  1.445183 S    
C150  C206  1.500237 S    
C103  N7    1.422710 S    
N37   O122  1.301064 A    
C57   C73   1.480647 S    
C52   C68   1.480676 S    
O41   Cu13  1.832342 S    
O86   C220  1.237003 A    
C130  H10   1.109912 S    
C207  N53   1.468148 S    
C239  H100  1.109912 S    
C231  H66   1.111641 S    
C251  H147  1.110163 S    
C83   C123  1.375231 A    
O93   Cu19  1.972138 S    
C142  N19   1.464633 S    
C190  C198  1.503526 S    
O70   C212  1.233599 A    
O75   C214  1.232774 A    
C196  N30   1.468662 S    
C249  H139  1.110231 S    
C259  H179  1.109156 S    
C252  H150  1.109946 S    
C143  N24   1.460770 S    
O88   C219  1.240840 A    
C170  H34   1.083472 S    
N6    H61   1.031683 S    
C183  C216  1.428015 S    
C195  N32   1.470640 S    
C182  C190  1.384385 A    
N20   C244  1.448288 S    
C238  H94   1.110845 S    
O71   C212  1.236801 A    
C243  H115  1.110546 S    
O42   C18   1.316134 A    
C150  C158  1.386449 A    
Cu17  Cu18  2.495529 S    
O20   C12   1.316306 A    
C178  C186  1.382702 A    
O9    C1    1.289880 A    
O66   Cu18  1.972292 S    
C60   C76   1.480702 S    
N9    H73   1.031748 S    
C244  H119  1.110688 S    
C146  C186  1.353526 A    
Cu15  O63   1.972024 S    
C28   C156  1.444298 S    
C200  N39   1.468363 S    
N5    C229  1.445890 S    
O91   Cu17  1.972354 S    
C203  N45   1.468022 S    
C230  H64   1.110341 S    
O70   Cu20  1.972292 S    
C170  C178  1.406663 A    
O8    Cu8   1.972491 S    
O72   Cu20  1.972514 S    
C107  H3    1.083450 S    
C75   C80   1.248164 T    
C76   C79   1.248158 T    
C151  C159  1.389575 A    
C58   C74   1.480733 S    
C127  C135  1.495965 S    
O96   C223  1.236414 A    
C138  N10   1.464594 S    
C87   C143  1.506271 S    
O21   Cu3   1.832669 S    
O4    C4    1.291102 A    
Cu3   O51   1.974380 S    
C135  H24   1.112229 S    
C168  C176  1.407170 A    
N9    C233  1.451736 S    
N53   H185  1.030787 S    
N51   C259  1.448258 S    
N28   O104  1.301435 A    
C179  C212  1.432474 S    
C122  C130  1.494878 S    
C246  H128  1.110101 S    
C251  H146  1.109938 S    
O72   C211  1.234639 A    
C152  C160  1.389891 A    
C67   C72   1.248148 T    
C254  H159  1.107690 S    
O65   C209  1.232415 A    
N42   H141  1.030667 S    
N29   O106  1.301270 A    
O55   C31   1.295137 A    
O26   Cu6   1.832348 S    
O77   C215  1.235546 A    
Cu6   Cu14  2.689735 S    
C234  H78   1.110183 S    
C260  H182  1.110348 S    
C129  C137  1.522550 S    
Cu9   O57   1.972024 S    
N17   C241  1.450208 S    
C264  H199  1.108936 S    
C255  H164  1.110054 S    
C98   N2    1.424327 S    
C93   C101  1.409731 A    
C236  H86   1.109975 S    
C242  H112  1.110681 S    
O4    Cu4   1.972491 S    
C99   N3    1.422166 S    
C150  C190  1.351448 A    
O42   Cu14  1.832644 S    
C233  H74   1.110181 S    
O82   Cu22  1.972318 S    
C196  N31   1.470934 S    
C194  N27   1.472017 S    
C108  H4    1.083525 S    
O16   C8    1.290490 A    
N41   H137  1.031505 S    
O85   Cu23  1.972138 S    
C173  H37   1.083509 S    
O9    Cu9   1.974380 S    
N14   C238  1.447824 S    
O35   Cu10  1.832063 S    
C24   C48   1.506692 S    
C200  C208  1.571158 S    
N48   H165  1.032175 S    
C248  H134  1.110637 S    
C29   C157  1.444914 S    
C146  C154  1.390607 A    
N52   H181  1.030929 S    
C169  H33   1.083476 S    
C133  H20   1.112555 S    
