data_mof_unit_16346.cif
_audit_creation_date              2012-10-26T19:43:41-0400
_audit_creation_method            fapswitch 2.2
_symmetry_space_group_name_H-M    P1
_symmetry_Int_Tables_number       1
_space_group_crystal_system       triclinic
_cell_length_a                    12.42415
_cell_length_b                    13.182181
_cell_length_c                    13.885319
_cell_angle_alpha                 106.3672
_cell_angle_beta                  73.819491
_cell_angle_gamma                 116.876371
_cell_volume                      1915.61467697

loop_
_atom_site_label
_atom_site_type_symbol
_atom_type_description
_atom_site_fract_x
_atom_site_fract_y
_atom_site_fract_z
_atom_type_partial_charge
C1    C     C_R   0.144375 0.714386 0.509683 0.548961
C2    C     C_R   0.564027 0.021461 0.471253 0.087875
C3    C     C_R   0.606566 0.944104 0.394598 0.013866
C4    C     C_R   0.984095 0.504306 0.686295 0.529385
C5    C     C_R   0.523235 0.836085 0.355299 -0.131539
C6    C     C_R   0.398623 0.801893 0.393143 -0.120574
C7    C     C_R   0.651649 0.125172 0.516404 0.242189
C8    C     C_R   0.815502 0.086782 0.390210 -0.161124
C9    C     C_R   0.226380 0.839423 0.515233 0.030240
C10   C     C_R   0.646891 0.688215 0.651918 -0.062111
C11   C     C_R   0.255229 0.354362 0.359137 0.210016
C12   C     C_1   0.974416 0.506224 0.791536 0.003369
C13   C     C_R   0.364228 0.339936 0.316057 -0.093118
C14   C     C_R   0.468488 0.407702 0.359652 0.266707
C15   C     C_R   0.458762 0.477963 0.457587 -0.007233
C16   C     C_R   0.856375 0.286058 0.486433 0.534417
C17   C     C_R   0.349581 0.499038 0.493228 0.089869
C18   C     C_R   0.554600 0.533456 0.518138 -0.015361
C19   C     C_R   0.550158 0.625959 0.598436 -0.015091
C20   C     C_R   0.447752 0.653612 0.626465 0.059594
C21   C     C_R   0.347659 0.587158 0.577372 -0.072925
C22   C     C_R   0.651930 0.497995 0.504845 0.343494
C23   C     C_R   0.732096 0.976511 0.356411 -0.142900
C24   C     C_R   0.745339 0.657954 0.630759 0.355106
C25   C     C_R   0.016031 0.495813 0.313699 0.540926
C26   C     C_1   0.026723 0.494614 0.208432 -0.023980
C27   C     C_2   0.046609 0.493523 0.013903 0.100792
C28   C     C_2   0.960946 0.507722 0.984823 -0.056966
C29   C     C_1   0.967314 0.507262 0.879832 0.002706
C30   C     C_1   0.036122 0.493966 0.119813 -0.046849
C31   C     C_R   0.775525 0.162806 0.467947 -0.002316
C32   C     C_R   0.180941 0.924079 0.571767 0.234642
C33   C     C_R   0.261889 0.040822 0.586873 -0.143188
C34   C     C_R   0.386922 0.073593 0.553506 -0.094117
C35   C     C_R   0.435624 0.990927 0.501149 0.040638
C36   C     C_R   0.352978 0.875700 0.470678 -0.038411
Cu1   Cu    Cu3+1 0.899780 0.525060 0.522890 1.004149
Cu2   Cu    Cu3+1 0.100220 0.474940 0.477110 0.948905
H1    H     H_    0.884375 0.519516 0.040387 0.110465
H2    H     H_    0.228207 0.107120 0.626588 0.115733
H3    H     H_    0.892084 0.692018 0.679021 0.394675
H4    H     H_    0.429010 0.805255 0.679329 0.244663
H5    H     H_    0.366740 0.714405 0.763946 0.240612
H6    H     H_    0.718646 0.399272 0.403809 0.372187
H7    H     H_    0.176012 0.302523 0.235244 0.212707
H8    H     H_    0.130171 0.199921 0.305576 0.195474
H9    H     H_    0.641650 0.492772 0.316286 0.320917
H10   H     H_    0.228831 0.543728 0.963942 0.234731
H11   H     H_    0.146808 0.399292 0.944941 0.237662
H12   H     H_    0.338673 0.719389 0.356271 0.153929
H13   H     H_    0.689120 0.233914 0.643485 0.336534
H14   H     H_    0.041816 0.961310 0.648390 0.333910
H15   H     H_    0.646840 0.761285 0.712240 0.186557
H16   H     H_    0.370246 0.282002 0.243757 0.132421
H17   H     H_    0.270953 0.609757 0.606444 0.185690
H18   H     H_    0.910429 0.113850 0.353098 0.145727
H19   H     H_    0.554533 0.777372 0.295093 0.116035
H20   H     H_    0.765078 0.918650 0.296633 0.123167
H21   H     H_    0.443349 0.165290 0.564520 0.213219
N1    N     N_R   0.748810 0.563010 0.557590 -0.247542
N2    N     N_R   0.250540 0.437620 0.443020 -0.211066
N3    N     N_3   0.442734 0.747515 0.708072 -0.642424
N4    N     N_3   0.151170 0.287160 0.309879 -0.550076
N5    N     N_3   0.148123 0.477961 0.941182 -0.608352
O1    O     O_R   0.025040 0.682470 0.528790 -0.445566
O2    O     O_3   0.639285 0.390614 0.448561 -0.643489
O3    O     O_3   0.578712 0.413941 0.298005 -0.676418
O4    O     O_3   0.616471 0.184067 0.610394 -0.704797
O5    O     O_3   0.057523 0.891796 0.611092 -0.650831
O6    O     O_R   0.194310 0.640150 0.490130 -0.548646
O7    O     O_R   0.903380 0.524130 0.659910 -0.520664
O8    O     O_R   0.072660 0.481800 0.621240 -0.510382
O9    O     O_R   0.805690 0.359850 0.509870 -0.468572
O10   O     O_R   0.974960 0.317530 0.471210 -0.466079
O11   O     O_R   0.927340 0.518200 0.378760 -0.526789
O12   O     O_R   0.096620 0.475870 0.340090 -0.475474
O13   O     O_3   0.834651 0.726957 0.689145 -0.669892

loop_
_geom_bond_atom_site_label_1
_geom_bond_atom_site_label_2
_ccdc_geom_bond_type
C2    C35   A    
C15   C18   A    
Cu2   O6    S    
C12   C29   T    
C23   H20   S    
C3    C23   A    
C35   C36   A    
C8    H18   S    
Cu2   O12   S    
C16   C31   S    
C16   O10   A    
C28   C29   S    
C18   C19   A    
C11   N4    S    
H3    O13   S    
C5    C6    A    
H10   N5    S    
C8    C23   A    
C34   C35   A    
C10   H15   S    
C22   O2    S    
H14   O5    S    
C9    C32   A    
C17   N2    A    
C7    O4    S    
H6    O2    S    
C2    C7    A    
Cu1   O1    S    
C9    C36   A    
C1    O1    A    
C14   O3    S    
C4    C12   S    
H4    N3    S    
Cu2   N2    S    
Cu1   O11   S    
H11   N5    S    
C13   C14   A    
C27   C30   S    
H9    O3    S    
Cu2   O8    S    
C33   H2    S    
C7    C31   A    
C16   O9    A    
C1    C9    S    
C21   H17   S    
C28   H1    S    
C10   C24   A    
C25   C26   S    
H7    N4    S    
C17   C21   A    
C25   O11   A    
Cu1   Cu2   S    
C10   C19   A    
C24   N1    A    
C33   C34   A    
C6    H12   S    
C26   C30   T    
Cu1   O7    S    
C34   H21   S    
C3    C5    A    
C4    O8    A    
C13   H16   S    
Cu2   O10   S    
C15   C17   A    
Cu1   O9    S    
C18   C22   A    
C8    C31   A    
C11   N2    A    
C32   O5    S    
C1    O6    A    
C5    H19   S    
H8    N4    S    
C25   O12   A    
C32   C33   A    
C19   C20   A    
C2    C3    A    
C22   N1    A    
C11   C13   A    
C6    C36   A    
H13   O4    S    
C20   N3    S    
Cu1   N1    S    
C27   N5    S    
C24   O13   S    
C20   C21   A    
C27   C28   D    
C14   C15   A    
C4    O7    A    
H5    N3    S    
