data_mof_unit_46394.cif
_audit_creation_date              2012-12-10T17:42:44-0500
_audit_creation_method            fapswitch 2.2
_symmetry_space_group_name_H-M    P1
_symmetry_Int_Tables_number       1
_space_group_crystal_system       triclinic
_cell_length_a                    9.903435
_cell_length_b                    10.7226
_cell_length_c                    13.152803
_cell_angle_alpha                 90.594198
_cell_angle_beta                  69.349008
_cell_angle_gamma                 87.719767
_cell_volume                      1305.48021321

loop_
_atom_site_label
_atom_site_type_symbol
_atom_type_description
_atom_site_fract_x
_atom_site_fract_y
_atom_site_fract_z
_atom_type_partial_charge
Br1   Br    Br    0.584207 0.235841 0.731883 -0.578041
C1    C     C_R   0.497478 0.740643 0.497435 0.867661
C2    C     C_R   0.367353 0.488718 0.822979 -0.105095
C3    C     C_R   0.219266 0.902720 0.546383 -0.203055
C4    C     C_R   0.419750 0.493862 0.704292 0.884266
C5    C     C_R   0.092641 0.973669 0.601740 -0.136342
C6    C     C_R   0.099805 0.088468 0.648816 -0.142206
C7    C     C_R   0.233768 0.138109 0.630168 -0.135910
C8    C     C_R   0.362257 0.072119 0.564232 0.107767
C9    C     C_R   0.356751 0.947011 0.535603 0.088267
C10   C     C_R   0.490018 0.874945 0.495814 -0.121586
C11   C     C_R   0.622275 0.932497 0.466228 -0.217982
C12   C     C_R   0.439095 0.503732 0.981412 0.061777
C13   C     C_R   0.624942 0.059416 0.475016 -0.182049
C14   C     C_R   0.495688 0.129186 0.521263 -0.074402
C15   C     C_R   0.785448 0.654939 0.650794 -0.205486
C16   C     C_R   0.498844 0.260870 0.507176 0.908043
C17   C     C_R   0.815318 0.720548 0.731584 -0.221982
C18   C     C_R   0.954983 0.716673 0.734754 0.241252
C19   C     C_R   0.063299 0.646345 0.654348 -0.299516
C20   C     C_R   0.034202 0.572984 0.575881 0.118642
C21   C     C_R   0.890286 0.574937 0.574909 0.188678
C22   C     C_R   0.965148 0.428648 0.428241 -0.121627
C23   C     C_R   0.463865 0.453498 0.876462 0.027537
C24   C     C_R   0.108433 0.429092 0.427961 -0.101047
C25   C     C_R   0.580648 0.502967 0.295741 0.889651
C26   C     C_R   0.798540 0.415995 0.006200 0.247223
C27   C     C_R   0.632372 0.500292 0.177668 -0.118176
C28   C     C_R   0.231598 0.544297 0.882254 -0.187507
C29   C     C_R   0.197234 0.576737 0.991032 -0.116701
C30   C     C_R   0.300972 0.561461 0.039467 -0.182101
C31   C     C_3   0.892304 0.879918 0.882494 -0.779399
C32   C     C_3   0.973045 0.240592 0.962732 -0.796072
C33   C     C_R   0.552045 0.490990 0.024426 0.049333
C34   C     C_R   0.686110 0.427932 0.963037 0.040675
C35   C     C_R   0.698517 0.365611 0.866429 -0.273900
C36   C     C_R   0.585096 0.370596 0.828024 0.271458
C37   C     C_R   0.532940 0.533695 0.129087 -0.245306
C38   C     C_R   0.768697 0.449143 0.115223 -0.223285
H1    H     H_    0.849218 0.429759 0.152007 0.160671
H2    H     H_    0.170643 0.654193 0.652943 0.209019
H3    H     H_    0.790401 0.302739 0.825473 0.173585
H4    H     H_    0.192175 0.371027 0.369163 0.154763
H5    H     H_    0.435777 0.584396 0.178785 0.154378
H6    H     H_    0.154902 0.568634 0.843238 0.159909
H7    H     H_    0.268096 0.594988 0.122401 0.126945
H8    H     H_    0.092440 0.620588 0.036417 0.150318
H9    H     H_    0.724526 0.879515 0.433319 0.169898
H10   H     H_    0.099136 0.800243 0.796558 0.225915
H11   H     H_    0.941220 0.924237 0.937122 0.236608
H12   H     H_    0.205585 0.818275 0.507175 0.180764
H13   H     H_    0.790397 0.839009 0.934426 0.246983
H14   H     H_    0.869584 0.952855 0.830599 0.244625
H15   H     H_    0.973495 0.388490 0.861106 0.223251
H16   H     H_    0.087007 0.214356 0.912632 0.254027
H17   H     H_    0.901426 0.176881 0.940650 0.235358
H18   H     H_    0.959428 0.229568 0.049594 0.247590
H19   H     H_    0.988636 0.938851 0.608991 0.161319
H20   H     H_    0.001718 0.141327 0.695804 0.148539
H21   H     H_    0.236079 0.229025 0.665968 0.161562
H22   H     H_    0.727919 0.103115 0.443435 0.167954
H23   H     H_    0.941138 0.370335 0.369743 0.136065
H24   H     H_    0.679158 0.671679 0.650289 0.214721
H25   H     H_    0.728563 0.776786 0.789430 0.168826
N1    N     N_R   0.856860 0.501200 0.500990 -0.106290
N2    N     N_R   0.142450 0.501280 0.501020 -0.113984
N3    N     N_2   0.991216 0.783222 0.815926 -0.306712
N4    N     N_2   0.940076 0.368478 0.942543 -0.309435
O1    O     O_R   0.385310 0.683220 0.500000 -0.649260
O2    O     O_R   0.614640 0.683250 0.500010 -0.636522
O3    O     O_R   0.328400 0.499950 0.653610 -0.644613
O4    O     O_R   0.557730 0.499970 0.653620 -0.601510
O5    O     O_R   0.385360 0.316750 0.499990 -0.626594
O6    O     O_R   0.614690 0.316780 0.500000 -0.582279
O7    O     O_R   0.442270 0.500030 0.346380 -0.613270
O8    O     O_R   0.671600 0.500050 0.346390 -0.620025
Zn1   Zn    Zn3+2 0.346880 0.499980 0.499990 0.920229
Zn2   Zn    Zn3+2 0.653120 0.500020 0.500010 0.953210

loop_
_geom_bond_atom_site_label_1
_geom_bond_atom_site_label_2
_ccdc_geom_bond_type
C32   H16   S    
C20   N2    A    
O2    Zn2   S    
C5    H19   S    
O1    Zn1   S    
C34   C35   A    
C11   H9    S    
C24   H4    S    
C19   H2    S    
C6    C7    A    
C35   C36   A    
O8    Zn2   S    
C17   C18   A    
C4    O4    A    
C29   C30   A    
H15   N4    S    
C33   C34   A    
C2    C28   A    
C31   H13   S    
O4    Zn2   S    
C26   N4    S    
C35   H3    S    
C22   H23   S    
C18   C19   A    
C26   C38   A    
C7    C8    A    
C30   H7    S    
C25   O8    A    
C18   N3    S    
C15   H24   S    
C1    O1    A    
C8    C9    A    
Br1   C36   S    
C32   H17   S    
C20   C21   A    
C16   O5    A    
C2    C23   A    
C1    C10   S    
C6    H20   S    
C23   C36   A    
C3    H12   S    
C29   H8    S    
C3    C5    A    
C38   H1    S    
C27   C38   A    
C26   C34   A    
C13   H22   S    
C12   C23   A    
C28   H6    S    
C21   N1    A    
C37   H5    S    
C28   C29   A    
C27   C37   A    
C25   O7    A    
O7    Zn1   S    
C31   H11   S    
C31   N3    S    
C11   C13   A    
C16   O6    A    
C3    C9    A    
C31   H14   S    
O3    Zn1   S    
C14   C16   S    
N2    Zn1   S    
C15   C21   A    
N1    Zn2   S    
H10   N3    S    
C33   C37   A    
C12   C30   A    
C24   N2    A    
C2    C4    S    
C10   C11   A    
C5    C6    A    
C32   H18   S    
C25   C27   S    
C22   N1    A    
C8    C14   A    
C12   C33   A    
C4    O3    A    
C7    H21   S    
C17   H25   S    
C22   C24   A    
C9    C10   A    
C19   C20   A    
C15   C17   A    
O6    Zn2   S    
O5    Zn1   S    
C13   C14   A    
C1    O2    A    
C32   N4    S    
