data_mof_unit_20878.cif
_audit_creation_date              2013-03-05T16:03:37-0500
_audit_creation_method            fapswitch 2.2
_symmetry_space_group_name_H-M    P1
_symmetry_Int_Tables_number       1
_space_group_crystal_system       triclinic
_cell_length_a                    18.315394
_cell_length_b                    18.557277
_cell_length_c                    26.088587
_cell_angle_alpha                 90.36087
_cell_angle_beta                  89.918288
_cell_angle_gamma                 90.15689
_cell_volume                      8866.87120658

loop_
_atom_site_label
_atom_site_type_symbol
_atom_site_description
_atom_site_fract_x
_atom_site_fract_y
_atom_site_fract_z
_atom_type_partial_charge
Zn1   Zn    Zn3+2 1.000000 0.913260 0.293350 1.145722
Zn2   Zn    Zn3+2 1.000000 0.913260 0.706650 1.148690
Zn3   Zn    Zn3+2 0.500000 0.413260 0.793350 1.148570
Zn4   Zn    Zn3+2 0.500000 0.413260 0.206650 1.143345
Zn5   Zn    Zn3+2 0.913230 0.000000 0.206580 1.143939
Zn6   Zn    Zn3+2 0.913230 1.000000 0.793420 1.136885
Zn7   Zn    Zn3+2 0.086770 0.000000 0.206580 1.135452
Zn8   Zn    Zn3+2 0.086770 1.000000 0.793420 1.144167
Zn9   Zn    Zn3+2 0.413230 0.500000 0.706580 1.141836
Zn10  Zn    Zn3+2 0.413230 0.500000 0.293420 1.136317
Zn11  Zn    Zn3+2 0.586770 0.500000 0.706580 1.137270
Zn12  Zn    Zn3+2 0.586770 0.500000 0.293420 1.139025
Zn13  Zn    Zn3+2 1.000000 0.086780 0.293330 1.117528
Zn14  Zn    Zn3+2 1.000000 0.086780 0.706670 1.160022
Zn15  Zn    Zn3+2 0.500000 0.586780 0.793330 1.147767
Zn16  Zn    Zn3+2 0.500000 0.586780 0.206670 1.141092
O1    O     O_3   1.000000 0.000010 0.249960 -0.592599
O2    O     O_3   0.000000 0.000010 0.750040 -0.596614
O3    O     O_3   0.500000 0.500010 0.749960 -0.597097
O4    O     O_3   0.500000 0.500010 0.250040 -0.596850
O5    O     O_R   0.914520 0.146190 0.280300 -0.562927
O6    O     O_R   0.914520 0.146190 0.719700 -0.580894
O7    O     O_R   0.085480 0.146190 0.280300 -0.622071
O8    O     O_R   0.085480 0.146190 0.719700 -0.578571
O9    O     O_R   0.414520 0.646190 0.780300 -0.577452
O10   O     O_R   0.414520 0.646190 0.219700 -0.576840
O11   O     O_R   0.585480 0.646190 0.780300 -0.578194
O12   O     O_R   0.585480 0.646190 0.219700 -0.574108
O13   O     O_R   0.085460 0.853840 0.280340 -0.582217
O14   O     O_R   0.085460 0.853840 0.719660 -0.586725
O15   O     O_R   0.914540 0.853840 0.280340 -0.585682
O16   O     O_R   0.914540 0.853840 0.719660 -0.586501
O17   O     O_R   0.585460 0.353840 0.780340 -0.586578
O18   O     O_R   0.585460 0.353840 0.219660 -0.584532
O19   O     O_R   0.414540 0.353840 0.780340 -0.583660
O20   O     O_R   0.414540 0.353840 0.219660 -0.584132
O21   O     O_R   0.853820 0.914550 0.219610 -0.587418
O22   O     O_R   0.853820 0.914550 0.780390 -0.585125
O23   O     O_R   0.146180 0.914550 0.219610 -0.587543
O24   O     O_R   0.146180 0.914550 0.780390 -0.588133
O25   O     O_R   0.353820 0.414550 0.719610 -0.594735
O26   O     O_R   0.353820 0.414550 0.280390 -0.586498
O27   O     O_R   0.646180 0.414550 0.719610 -0.584202
O28   O     O_R   0.646180 0.414550 0.280390 -0.589920
O29   O     O_R   0.146170 0.085440 0.219600 -0.572822
O30   O     O_R   0.146170 0.085440 0.780400 -0.591427
O31   O     O_R   0.853830 0.085440 0.219600 -0.579290
O32   O     O_R   0.853830 0.085440 0.780400 -0.583295
O33   O     O_R   0.646170 0.585440 0.719600 -0.582679
O34   O     O_R   0.646170 0.585440 0.280400 -0.579369
O35   O     O_R   0.353830 0.585440 0.719600 -0.580075
O36   O     O_R   0.353830 0.585440 0.280400 -0.580961
O37   O     O_R   0.939270 0.999980 0.134160 -0.575241
O38   O     O_R   0.939270 0.999980 0.865840 -0.587542
O39   O     O_R   0.060730 0.999980 0.134160 -0.588827
O40   O     O_R   0.060730 0.999980 0.865840 -0.573903
O41   O     O_R   0.439270 0.499980 0.634160 -0.576435
O42   O     O_R   0.439270 0.499980 0.365840 -0.588203
O43   O     O_R   0.560730 0.499980 0.634160 -0.587530
O44   O     O_R   0.560730 0.499980 0.365840 -0.574329
O45   O     O_R   0.000000 0.060760 0.365760 -0.583967
O46   O     O_R   0.000000 0.060760 0.634240 -0.562040
O47   O     O_R   0.500000 0.560760 0.865760 -0.569887
O48   O     O_R   0.500000 0.560760 0.134240 -0.568461
O49   O     O_R   0.000000 0.939310 0.365770 -0.576187
O50   O     O_R   1.000000 0.939310 0.634230 -0.589180
O51   O     O_R   0.500000 0.439310 0.865770 -0.583639
O52   O     O_R   0.500000 0.439310 0.134230 -0.586458
C1    C     C_R   0.862198 0.142254 0.247652 0.946746
C2    C     C_R   0.859192 0.139092 0.749660 0.978391
C3    C     C_R   0.140723 0.139274 0.250406 0.938409
C4    C     C_R   0.139351 0.140292 0.751056 0.995893
C5    C     C_R   0.362228 0.642376 0.747504 0.928105
C6    C     C_R   0.359045 0.639132 0.249596 0.938408
C7    C     C_R   0.640738 0.639300 0.750422 0.943033
C8    C     C_R   0.637357 0.642517 0.253021 0.920874
C9    C     C_R   0.139907 0.860012 0.249390 0.927153
C10   C     C_R   0.141638 0.861453 0.748492 0.908313
C11   C     C_R   0.858999 0.860856 0.250892 0.897274
C12   C     C_R   0.859855 0.860112 0.750324 0.923102
C13   C     C_R   0.640448 0.360327 0.749684 0.925168
C14   C     C_R   0.641344 0.361100 0.248871 0.905265
C15   C     C_R   0.359470 0.360434 0.750107 0.929363
C16   C     C_R   0.359730 0.360197 0.250234 0.927995
C17   C     C_R   0.000120 0.000174 0.109837 0.940709
C18   C     C_R   0.999893 0.000156 0.890231 0.917400
C19   C     C_R   0.500225 0.501028 0.609760 0.944437
C20   C     C_R   0.499951 0.500717 0.390157 0.940873
C21   C     C_R   0.001559 0.000369 0.389912 0.913247
C22   C     C_R   0.995771 0.999621 0.610236 0.917814
C23   C     C_R   0.504111 0.499867 0.889741 0.907055
C24   C     C_R   0.496066 0.499636 0.110303 0.899971
C25   C     C_R   0.991538 0.064219 0.474584 -0.122887
C26   C     C_R   0.988488 0.063578 0.527343 -0.095405
C27   C     C_R   0.505440 0.561322 0.974519 -0.097480
C28   C     C_R   0.499595 0.561209 0.026440 -0.097023
C29   C     C_R   0.004997 0.000891 0.446053 -0.175305
C30   C     C_R   0.990580 0.998474 0.554191 -0.183995
C31   C     C_R   0.508622 0.498034 0.945712 -0.184135
C32   C     C_R   0.492165 0.497997 0.054407 -0.184369
C33   C     C_R   0.018444 0.936521 0.473714 0.323869
C34   C     C_R   0.997695 0.933246 0.525708 0.329538
C35   C     C_R   0.508494 0.431697 0.973417 0.320817
C36   C     C_R   0.488675 0.432036 0.026075 0.319444
C37   C     C_3   0.938732 0.128480 0.530616 0.447562
C38   C     C_3   0.942395 0.129073 0.469581 0.485623
C39   C     C_3   0.492983 0.641623 0.030444 0.465907
C40   C     C_3   0.515960 0.641443 0.971860 0.465714
C41   C     C_R   0.269035 0.820357 0.242985 0.182887
C42   C     C_R   0.261133 0.814465 0.778132 0.193469
C43   C     C_R   0.739598 0.812542 0.221434 0.180877
C44   C     C_R   0.730478 0.820674 0.757591 0.181600
C45   C     C_R   0.770593 0.320671 0.743194 0.188046
C46   C     C_R   0.758023 0.310841 0.281391 0.184418
C47   C     C_R   0.277920 0.273746 0.705141 0.195796
C48   C     C_R   0.230039 0.320821 0.256324 0.183787
C49   C     C_R   0.823594 0.266927 0.746840 0.172424
C50   C     C_R   0.811835 0.258466 0.280749 0.186725
C51   C     C_R   0.227292 0.217292 0.705638 0.193468
C52   C     C_R   0.176785 0.267093 0.253445 0.183692
C53   C     C_R   0.321989 0.766792 0.246127 0.190790
C54   C     C_R   0.314207 0.761278 0.778108 0.177135
C55   C     C_R   0.683185 0.762637 0.224547 0.183643
C56   C     C_R   0.677189 0.767047 0.754905 0.191739
C57   C     C_R   0.802083 0.194264 0.748968 -0.334931
C58   C     C_R   0.811859 0.203954 0.242576 -0.322598
C59   C     C_R   0.195217 0.196512 0.752289 -0.309467
C60   C     C_R   0.197881 0.194433 0.251389 -0.341451
C61   C     C_R   0.301289 0.694001 0.248428 -0.331950
C62   C     C_R   0.312168 0.704432 0.741716 -0.319184
C63   C     C_R   0.687459 0.704682 0.259359 -0.312782
C64   C     C_R   0.698038 0.694393 0.751595 -0.333381
C65   C     C_R   0.726986 0.175832 0.747442 0.247548
C66   C     C_R   0.763875 0.210308 0.200079 0.305292
C67   C     C_R   0.215143 0.230905 0.798909 0.309397
C68   C     C_R   0.272825 0.175957 0.253066 0.226612
C69   C     C_R   0.226275 0.675356 0.246543 0.230138
C70   C     C_R   0.262879 0.709348 0.699845 0.308345
C71   C     C_R   0.739488 0.707925 0.299542 0.303691
C72   C     C_R   0.772978 0.675793 0.752175 0.227326
C73   C     C_R   0.173088 0.729974 0.248931 0.198630
C74   C     C_R   0.205506 0.759629 0.702643 0.172961
C75   C     C_R   0.797270 0.757658 0.295952 0.170320
C76   C     C_R   0.826149 0.730408 0.749548 0.200257
C77   C     C_R   0.674106 0.230600 0.749753 0.196839
C78   C     C_R   0.706326 0.260348 0.202834 0.174974
C79   C     C_R   0.271161 0.283357 0.798372 0.189692
C80   C     C_R   0.325997 0.230558 0.250378 0.201150
C81   C     C_R   0.194727 0.802669 0.246809 -0.318273
C82   C     C_R   0.202723 0.810353 0.743485 -0.326535
C83   C     C_R   0.798840 0.808556 0.255420 -0.328219
C84   C     C_R   0.804733 0.802974 0.752602 -0.320587
C85   C     C_R   0.695886 0.303200 0.747227 -0.315389
C86   C     C_R   0.701930 0.309351 0.244672 -0.326535
C87   C     C_R   0.301308 0.305718 0.751218 -0.309875
C88   C     C_R   0.304464 0.303119 0.252420 -0.318903
C89   C     C_R   0.065899 0.011768 0.025944 0.317847
C90   C     C_R   0.066058 0.993617 0.974018 0.193657
C91   C     C_R   0.934893 0.988009 0.026165 0.169507
C92   C     C_R   0.933454 0.006341 0.974447 0.319912
C93   C     C_R   0.567015 0.510361 0.525721 0.322144
C94   C     C_R   0.565763 0.491834 0.473833 0.165971
C95   C     C_R   0.434793 0.496495 0.525730 0.169684
C96   C     C_R   0.434774 0.514459 0.474105 0.325372
C97   C     C_R   0.999714 0.000427 0.946491 -0.376994
C98   C     C_R   0.000363 0.000342 0.053693 -0.383682
C99   C     C_R   0.500104 0.502843 0.446280 -0.377989
C100  C     C_R   0.500792 0.503582 0.553470 -0.374757
S1    S     S_3+6 0.071322 0.864629 0.447328 0.134842
O53   O     O_2   0.023227 0.813877 0.417413 -0.145194
O54   O     O_2   0.128942 0.894759 0.412311 -0.300522
O55   O     O_3   0.112817 0.818904 0.494439 -0.442926
H1    H     H_    0.138551 0.778865 0.476879 0.415822
S2    S     S_3+6 0.959544 0.850971 0.548791 0.164031
O56   O     O_2   0.015660 0.810311 0.578859 -0.144738
O57   O     O_2   0.895034 0.866962 0.582696 -0.263482
O58   O     O_3   0.930586 0.799195 0.499739 -0.430022
H2    H     H_    0.912467 0.754363 0.515835 0.417239
S3    S     S_3+6 0.549205 0.352122 0.947217 0.147310
O59   O     O_2   0.493722 0.310515 0.916517 -0.157326
O60   O     O_2   0.611979 0.372537 0.912983 -0.280130
O61   O     O_3   0.581655 0.299341 0.994058 -0.435034
H3    H     H_    0.600282 0.255812 0.976250 0.415917
S4    S     S_3+6 0.443536 0.354726 0.051716 0.150746
O62   O     O_2   0.496633 0.310176 0.081794 -0.145350
O63   O     O_2   0.382426 0.378416 0.086449 -0.281916
O64   O     O_3   0.407618 0.303876 0.004476 -0.432334
H4    H     H_    0.386340 0.261470 0.021942 0.415915
S5    S     S_3+6 0.851454 0.107776 0.561014 0.075749
O65   O     O_2   0.860902 0.099004 0.617738 -0.346193
O66   O     O_2   0.799348 0.168950 0.552603 -0.197625
O67   O     O_3   0.814961 0.030655 0.538760 -0.473597
H5    H     H_    0.767479 0.026086 0.556682 0.401135
S6    S     S_3+6 0.859084 0.106596 0.434654 0.121603
O68   O     O_2   0.796745 0.152837 0.452388 -0.158844
O69   O     O_2   0.869120 0.118998 0.378406 -0.260809
O70   O     O_3   0.837529 0.019073 0.441799 -0.523466
H6    H     H_    0.792803 0.011783 0.421090 0.398396
S7    S     S_3+6 0.983419 0.201994 0.565490 0.187541
O71   O     O_2   0.064818 0.196623 0.559965 -0.152628
O72   O     O_2   0.958785 0.274172 0.546620 -0.167533
O73   O     O_3   0.964575 0.199877 0.628434 -0.427873
H7    H     H_    0.919845 0.229210 0.632736 0.397951
S8    S     S_3+6 0.990185 0.204667 0.439862 0.176828
O74   O     O_2   0.948826 0.273172 0.449473 -0.115640
O75   O     O_2   0.066207 0.211905 0.460816 -0.232767
O76   O     O_3   0.997700 0.195453 0.376104 -0.433359
H8    H     H_    0.035798 0.230511 0.365868 0.406027
S9    S     S_3+6 0.397966 0.660692 0.046300 0.094283
O77   O     O_2   0.381677 0.635988 0.099857 -0.300067
O78   O     O_2   0.383293 0.740193 0.043645 -0.186945
O79   O     O_3   0.340909 0.616092 0.006851 -0.492750
H9    H     H_    0.291368 0.631719 0.017268 0.408976
S10   S     S_3+6 0.458201 0.690009 0.928401 0.182672
O80   O     O_2   0.390519 0.647703 0.915641 -0.208519
O81   O     O_2   0.437321 0.761210 0.951790 -0.160118
O82   O     O_3   0.503225 0.706640 0.873447 -0.419781
H10   H     H_    0.528843 0.753059 0.879143 0.414410
S11   S     S_3+6 0.553036 0.687199 0.074903 0.175215
O83   O     O_2   0.617667 0.641432 0.088366 -0.227373
O84   O     O_2   0.579144 0.756978 0.052399 -0.157545
O85   O     O_3   0.507220 0.706243 0.129279 -0.419320
H11   H     H_    0.482056 0.752480 0.122850 0.415375
S12   S     S_3+6 0.611454 0.656958 0.956019 0.093883
O86   O     O_2   0.626254 0.630498 0.902448 -0.306885
O87   O     O_2   0.629127 0.736017 0.958510 -0.185887
O88   O     O_3   0.666757 0.611452 0.995594 -0.495063
H12   H     H_    0.716872 0.624858 0.984909 0.408281
N1    N     N_R   0.291791 0.893183 0.236436 0.268279
O89   O     O_R   0.333684 0.922700 0.270932 -0.212693
O90   O     O_R   0.290882 0.919395 0.190332 -0.216282
N2    N     N_R   0.270333 0.875282 0.811700 0.271040
O91   O     O_R   0.248213 0.872087 0.858983 -0.191134
O92   O     O_R   0.304805 0.932275 0.795727 -0.258262
N3    N     N_R   0.733887 0.869676 0.184994 0.275757
O93   O     O_R   0.753823 0.858713 0.137751 -0.191037
O94   O     O_R   0.700934 0.929279 0.197521 -0.249092
N4    N     N_R   0.708095 0.893517 0.764753 0.267316
O95   O     O_R   0.664683 0.922232 0.731209 -0.227406
O96   O     O_R   0.710689 0.920324 0.810893 -0.213368
N5    N     N_R   0.793580 0.393141 0.735449 0.268090
O97   O     O_R   0.836759 0.423176 0.768915 -0.214422
O98   O     O_R   0.791592 0.418153 0.689028 -0.217471
N6    N     N_R   0.762860 0.367015 0.319154 0.271575
O99   O     O_R   0.739941 0.355440 0.365530 -0.186447
O100  O     O_R   0.799254 0.425547 0.309104 -0.241316
N7    N     N_R   0.308694 0.295755 0.657554 0.254037
O101  O     O_R   0.356417 0.254498 0.635022 -0.273325
O102  O     O_R   0.274961 0.344748 0.631285 -0.187212
N8    N     N_R   0.207568 0.393678 0.262953 0.268222
O103  O     O_R   0.164836 0.422166 0.228885 -0.213506
O104  O     O_R   0.209382 0.420808 0.309014 -0.216867
N9    N     N_R   0.899613 0.286605 0.748704 0.252245
O105  O     O_R   0.928681 0.324727 0.712256 -0.244897
O106  O     O_R   0.939638 0.267452 0.787451 -0.313018
N10   N     N_R   0.869865 0.265509 0.317068 0.276301
O107  O     O_R   0.855281 0.264471 0.365812 -0.195979
O108  O     O_R   0.931862 0.291969 0.301814 -0.237747
N11   N     N_R   0.210253 0.179515 0.658739 0.253443
O109  O     O_R   0.193943 0.214909 0.617469 -0.198780
O110  O     O_R   0.214638 0.109578 0.656495 -0.356343
N12   N     N_R   0.100969 0.286928 0.253369 0.256409
O111  O     O_R   0.075206 0.328703 0.289262 -0.227438
O112  O     O_R   0.058707 0.266939 0.215792 -0.322419
N13   N     N_R   0.397381 0.787153 0.246833 0.265305
O113  O     O_R   0.423420 0.828028 0.210779 -0.217938
O114  O     O_R   0.437068 0.772860 0.286813 -0.310969
N14   N     N_R   0.373795 0.770019 0.812771 0.267380
O115  O     O_R   0.436214 0.791278 0.794647 -0.230910
O116  O     O_R   0.360564 0.778124 0.861366 -0.211238
N15   N     N_R   0.616358 0.778470 0.198691 0.270771
O117  O     O_R   0.558474 0.788894 0.226363 -0.244823
O118  O     O_R   0.616693 0.800810 0.151588 -0.211751
N16   N     N_R   0.601552 0.787096 0.756336 0.265752
O119  O     O_R   0.577393 0.828302 0.793108 -0.222056
O120  O     O_R   0.558407 0.769495 0.718665 -0.320187
S13   S     S_3+6 0.697577 0.085354 0.740566 0.163456
O121  O     O_2   0.684855 0.056998 0.793551 -0.121138
O122  O     O_2   0.627162 0.080835 0.711113 -0.171519
O123  O     O_3   0.760049 0.034386 0.710005 -0.542854
H13   H     H_    0.751923 0.043363 0.673084 0.381431
S14   S     S_3+6 0.779512 0.162645 0.141181 0.162340
O124  O     O_2   0.743906 0.089792 0.144613 -0.145352
O125  O     O_2   0.748224 0.202102 0.096155 -0.174497
O126  O     O_3   0.869692 0.152912 0.130819 -0.538776
H14   H     H_    0.873464 0.128196 0.097153 0.397194
S15   S     S_3+6 0.167697 0.211888 0.857221 0.143897
O127  O     O_2   0.205038 0.150026 0.883126 -0.180488
O128  O     O_2   0.168515 0.276237 0.892501 -0.168944
O129  O     O_3   0.080021 0.189682 0.845801 -0.552452
H15   H     H_    0.062170 0.168207 0.878169 0.383447
S16   S     S_3+6 0.301698 0.085887 0.261509 0.163059
O130  O     O_2   0.316414 0.055695 0.209063 -0.111896
O131  O     O_2   0.370890 0.082909 0.292365 -0.167070
O132  O     O_3   0.238112 0.035733 0.291446 -0.539763
H16   H     H_    0.233688 0.057331 0.326129 0.347909
S17   S     S_3+6 0.197341 0.585128 0.238011 0.164714
O133  O     O_2   0.181674 0.556000 0.290383 -0.111575
O134  O     O_2   0.128632 0.581418 0.206616 -0.171126
O135  O     O_3   0.261271 0.534588 0.208617 -0.537973
H17   H     H_    0.266337 0.555552 0.173961 0.358001
S18   S     S_3+6 0.277106 0.660127 0.641402 0.162258
O136  O     O_2   0.242257 0.587100 0.646350 -0.163834
O137  O     O_2   0.244268 0.697985 0.596220 -0.170801
O138  O     O_3   0.367090 0.650884 0.629991 -0.538503
H18   H     H_    0.370255 0.626959 0.596015 0.397691
S19   S     S_3+6 0.727791 0.657921 0.357542 0.164865
O139  O     O_2   0.761069 0.584596 0.350500 -0.143235
O140  O     O_2   0.763766 0.694738 0.402384 -0.175023
O141  O     O_3   0.638336 0.649493 0.371256 -0.536991
H19   H     H_    0.636600 0.625934 0.405203 0.399642
S20   S     S_3+6 0.801728 0.585422 0.759136 0.163066
O142  O     O_2   0.812920 0.555797 0.706097 -0.119218
O143  O     O_2   0.872651 0.581340 0.787914 -0.166471
O144  O     O_3   0.739452 0.535499 0.790585 -0.539190
H20   H     H_    0.736443 0.557419 0.825242 0.359593
N17   N     N_R   0.096918 0.711681 0.251635 0.264245
O145  O     O_R   0.071490 0.677006 0.291031 -0.211660
O146  O     O_R   0.052461 0.731731 0.215595 -0.353045
N18   N     N_R   0.152467 0.761657 0.662382 0.275523
O147  O     O_R   0.107359 0.708116 0.655819 -0.212083
O148  O     O_R   0.152901 0.814728 0.630004 -0.277123
N19   N     N_R   0.853425 0.757009 0.334228 0.275757
O149  O     O_R   0.898127 0.702800 0.336887 -0.209379
O150  O     O_R   0.856141 0.807671 0.368934 -0.277440
N20   N     N_R   0.902148 0.712249 0.745575 0.264439
O151  O     O_R   0.926434 0.678420 0.705211 -0.219290
O152  O     O_R   0.947478 0.731154 0.781634 -0.351181
N21   N     N_R   0.597925 0.212515 0.752818 0.263355
O153  O     O_R   0.572434 0.179635 0.792972 -0.230123
O154  O     O_R   0.553556 0.230945 0.716278 -0.333015
N22   N     N_R   0.653672 0.262571 0.162239 0.275284
O155  O     O_R   0.609258 0.208633 0.155006 -0.208683
O156  O     O_R   0.653246 0.316422 0.130504 -0.288571
N23   N     N_R   0.296921 0.314704 0.845478 0.262408
O157  O     O_R   0.326066 0.274116 0.880366 -0.215635
O158  O     O_R   0.294446 0.384119 0.852628 -0.346434
N24   N     N_R   0.402113 0.212423 0.247559 0.263667
O159  O     O_R   0.427441 0.177659 0.207920 -0.216835
O160  O     O_R   0.446562 0.232449 0.283859 -0.348499
S21   S     S_3+6 0.144146 0.056132 0.052110 0.153624
O161  O     O_2   0.189871 0.003120 0.081211 -0.177050
O162  O     O_2   0.189407 0.088474 0.009965 -0.167714
O163  O     O_3   0.117371 0.122736 0.091925 -0.528008
H21   H     H_    0.162647 0.139378 0.109088 0.395254
S22   S     S_3+6 0.143200 0.946857 0.948972 0.176364
O164  O     O_2   0.189868 0.997523 0.918312 -0.096194
O165  O     O_2   0.188481 0.915724 0.991374 -0.175010
O166  O     O_3   0.114534 0.878858 0.911004 -0.498883
H22   H     H_    0.083030 0.848842 0.933244 0.346030
S23   S     S_3+6 0.861755 0.935345 0.051098 0.168722
O167  O     O_2   0.810241 0.982868 0.080594 -0.101993
O168  O     O_2   0.820370 0.898731 0.008540 -0.174284
O169  O     O_3   0.894927 0.871725 0.090326 -0.504008
H23   H     H_    0.929455 0.843651 0.068890 0.346610
S24   S     S_3+6 0.851642 0.044099 0.949062 0.149371
O170  O     O_2   0.810708 0.987728 0.918932 -0.173563
O171  O     O_2   0.803694 0.071511 0.991685 -0.181426
O172  O     O_3   0.872480 0.113712 0.910611 -0.532643
H24   H     H_    0.826051 0.126175 0.893409 0.398695
S25   S     S_3+6 0.648804 0.547715 0.551958 0.149534
O173  O     O_2   0.689441 0.490956 0.581195 -0.170282
O174  O     O_2   0.696954 0.575839 0.509840 -0.188377
O175  O     O_3   0.627974 0.616536 0.591626 -0.529506
H25   H     H_    0.674545 0.629358 0.608711 0.397478
S26   S     S_3+6 0.638205 0.438118 0.449202 0.172965
O176  O     O_2   0.689973 0.484407 0.419125 -0.108548
O177  O     O_2   0.679561 0.402617 0.491827 -0.164152
O178  O     O_3   0.603657 0.373399 0.410749 -0.497644
H26   H     H_    0.569539 0.345932 0.432769 0.351183
S27   S     S_3+6 0.363198 0.440427 0.547794 0.171581
O179  O     O_2   0.311962 0.482576 0.581401 -0.114295
O180  O     O_2   0.320862 0.408091 0.503987 -0.171617
O181  O     O_3   0.401402 0.373538 0.581387 -0.479427
H27   H     H_    0.432990 0.347751 0.556511 0.359165
S28   S     S_3+6 0.355218 0.555750 0.448307 0.145835
O182  O     O_2   0.311094 0.501123 0.418790 -0.170320
O183  O     O_2   0.309112 0.586224 0.490911 -0.194043
O184  O     O_3   0.379894 0.623194 0.409039 -0.530164
H28   H     H_    0.334049 0.638444 0.392227 0.395804

loop_
_geom_bond_atom_site_label_1
_geom_bond_atom_site_label_2
_geom_bond_distance
_ccdc_geom_bond_type
C31   C35   1.431444 A    
Zn4   O20   1.942883 S    
C89   C90   1.393874 A    
Zn5   O21   1.952012 S    
S17   O134  1.503653 D    
S6    O69   1.497780 D    
Zn7   O39   1.949262 S    
Zn8   O40   1.947948 S    
O49   C21   1.293162 A    
S14   O124  1.502533 D    
C44   C56   1.393515 A    
C40   S12   1.819181 S    
C8    C63   1.480687 S    
C27   C31   1.391639 A    
S6    O70   1.681870 S    
N8    O104  1.300392 A    
N15   O117  1.296053 A    
C32   C36   1.427255 A    
C65   S13   1.770013 S    
N6    O99   1.299022 A    
N16   O119  1.300848 A    
O61   H3    0.990510 S    
O141  H19   0.990539 S    
Zn9   O3    1.952323 S    
Zn10  O4    1.949695 S    
S15   O128  1.503151 D    
Zn3   O3    1.973813 S    
N20   O151  1.301062 A    
C80   N24   1.436705 S    
C79   C87   1.411978 A    
O30   C4    1.283965 A    
S28   O184  1.682833 S    
C75   C83   1.422476 A    
S7    O71   1.501130 D    
C18   C97   1.467715 S    
Zn6   O38   1.949267 S    
O11   C7    1.282731 A    
C66   C78   1.408109 A    
S25   O175  1.683007 S    
N4    O96   1.300464 A    
O73   H7    0.990696 S    
N19   O149  1.301029 A    
C37   S5    1.824472 S    
C53   N13   1.430706 S    
N23   O158  1.301334 A    
N11   O110  1.301487 A    
C30   C34   1.422543 A    
S24   O172  1.683240 S    
N1    O89   1.300803 A    
Zn11  O33   1.948771 S    
O34   C8    1.291873 A    
O16   C12   1.286021 A    
O40   C18   1.282373 A    
O88   H12   0.990451 S    
C78   C86   1.418592 A    
Zn16  O4    1.973816 S    
Zn12  O4    1.952323 S    
C52   C60   1.404321 A    
Zn13  O5    1.948803 S    
C71   C75   1.405703 A    
N22   O155  1.301078 A    
S2    O58   1.680997 S    
C39   S11   1.804601 S    
C67   C79   1.412441 A    
N14   O116  1.298270 A    
C1    C58   1.478729 S    
C44   N4    1.424724 S    
C3    C60   1.462270 S    
C65   C77   1.406795 A    
C62   C70   1.421624 A    
O135  H17   0.990665 S    
Zn4   O52   1.953151 S    
C5    C62   1.482561 S    
O32   C2    1.285844 A    
C42   C82   1.403119 A    
O42   C20   1.280508 A    
Zn9   O25   1.952012 S    
C74   N18   1.432456 S    
S16   O131  1.503644 D    
Zn12  O28   1.953374 S    
C16   C88   1.464403 S    
C41   C53   1.393558 A    
O52   C24   1.287423 A    
O43   C19   1.279017 A    
C48   C88   1.406430 A    
C27   C40   1.500770 S    
N23   O157  1.301119 A    
Zn4   O4    1.962149 S    
C48   C52   1.394639 A    
C37   S7    1.827321 S    
C61   C69   1.416742 A    
O79   H9    0.990463 S    
C58   C66   1.421405 A    
O47   C23   1.297497 A    
O172  H24   0.990683 S    
Zn3   O17   1.945318 S    
O37   C17   1.281711 A    
Zn8   O24   1.953374 S    
N5    O98   1.300278 A    
C46   C86   1.405798 A    
C90   C97   1.418686 A    
C46   N6    1.432439 S    
O166  H22   0.990541 S    
O29   C3    1.282232 A    
C69   S17   1.767684 S    
S23   O167  1.501331 D    
O44   C20   1.280546 A    
S23   O169  1.682635 S    
C54   N14   1.426608 S    
C38   S6    1.824346 S    
S20   O144  1.683305 S    
O14   C10   1.282380 A    
Zn10  O42   1.949267 S    
O36   C6    1.287260 A    
N9    O105  1.301186 A    
S10   O81   1.502115 D    
Zn15  O9    1.948803 S    
C15   C87   1.470009 S    
Zn14  O46   1.947369 S    
Zn1   O15   1.941235 S    
C13   C85   1.470991 S    
S4    O62   1.503228 D    
Zn13  O7    1.943164 S    
Zn2   O16   1.942883 S    
N5    O97   1.300698 A    
Zn14  O8    1.941515 S    
S5    O66   1.502434 D    
O181  H27   0.990671 S    
O31   C1    1.288552 A    
C49   N9    1.439266 S    
S4    O63   1.503954 D    
Zn7   O1    1.949693 S    
N10   O108  1.298824 A    
S7    O73   1.678197 S    
Zn1   O49   1.947251 S    
C39   C40   1.584668 S    
Zn6   O22   1.949072 S    
C90   S22   1.781316 S    
S13   O121  1.499843 D    
S1    O54   1.503791 D    
S28   O183  1.503428 D    
S21   O162  1.503112 D    
S18   O137  1.503157 D    
C4    C59   1.459552 S    
O123  H13   0.990078 S    
O38   C18   1.280520 A    
O82   H10   0.990271 S    
O41   C19   1.284519 A    
O5    C1    1.284638 A    
N19   O150  1.302045 A    
N18   O148  1.301520 A    
C25   C38   1.511257 S    
S22   O165  1.502858 D    
Zn3   O19   1.941235 S    
S27   O181  1.678892 S    
S24   O171  1.502990 D    
S9    O77   1.502511 D    
C10   C82   1.473725 S    
C77   N21   1.436432 S    
N13   O114  1.301289 A    
S26   O178  1.682746 S    
C68   C80   1.405444 A    
C45   C49   1.397428 A    
O138  H18   0.990560 S    
N24   O160  1.301464 A    
O27   C13   1.283835 A    
C25   C29   1.409222 A    
C76   N20   1.436490 S    
C7    C64   1.463354 S    
O8    C4    1.287906 A    
S22   O166  1.682624 S    
C55   N15   1.430475 S    
Zn7   O23   1.957386 S    
C92   S24   1.785849 S    
Zn2   O50   1.953151 S    
Zn12  O34   1.951709 S    
N12   O111  1.300793 A    
N18   O147  1.301084 A    
C47   C51   1.397258 A    
S4    O64   1.681166 S    
Zn13  O1    1.962154 S    
Zn2   O14   1.948518 S    
S19   O141  1.683595 S    
C75   N19   1.434652 S    
Zn14  O6    1.945599 S    
C95   C100  1.415154 A    
C76   C84   1.405380 A    
S11   O85   1.683249 S    
C79   N23   1.436086 S    
C28   C32   1.391576 A    
S17   O135  1.683178 S    
N6    O100  1.300789 A    
O9    C5    1.286676 A    
O70   H6    0.990457 S    
C94   S26   1.778666 S    
Zn8   O30   1.951709 S    
C63   C71   1.418604 A    
O13   C9    1.287551 A    
S8    O74   1.501176 D    
S14   O126  1.683296 S    
O169  H23   0.990542 S    
C6    C61   1.470748 S    
N20   O152  1.301463 A    
O18   C14   1.283239 A    
C23   C31   1.463277 S    
C49   C57   1.405178 A    
O6    C2    1.285863 A    
C40   S10   1.799548 S    
C51   C59   1.406294 A    
C51   N11   1.440473 S    
C26   C37   1.514211 S    
C33   C34   1.409777 A    
Zn10  O26   1.949072 S    
Zn9   O35   1.953073 S    
Zn10  O36   1.957082 S    
S12   O86   1.502935 D    
C93   C94   1.394780 A    
O184  H28   0.990677 S    
O50   C22   1.288371 A    
S28   O182  1.503709 D    
Zn15  O3    1.962154 S    
S25   O174  1.503126 D    
Zn11  O3    1.949693 S    
C66   S14   1.791208 S    
C59   C67   1.417753 A    
O28   C14   1.287360 A    
C60   C68   1.416526 A    
C96   S28   1.782884 S    
Zn5   O1    1.952323 S    
C26   C30   1.400969 A    
S27   O179  1.501374 D    
S9    O79   1.680431 S    
C12   C84   1.463499 S    
O129  H15   0.990715 S    
S1    O53   1.503393 D    
N17   O146  1.301443 A    
S26   O176  1.501504 D    
C41   N1    1.424424 S    
C95   C96   1.389485 A    
C43   N3    1.432634 S    
N3    O93   1.299904 A    
C44   C84   1.405652 A    
C33   S1    1.784758 S    
S3    O61   1.681153 S    
S6    O68   1.500962 D    
O144  H20   0.990631 S    
Zn11  O43   1.949262 S    
C47   N7    1.424391 S    
N7    O102  1.300027 A    
Zn16  O10   1.945599 S    
C43   C55   1.388278 A    
S19   O139  1.502608 D    
O7    C3    1.282817 A    
O26   C16   1.279986 A    
C70   C74   1.408699 A    
C9    C81   1.466214 S    
O132  H16   0.990597 S    
O19   C15   1.287854 A    
N8    O103  1.300821 A    
Zn8   O2    1.952323 S    
O76   H8    0.990268 S    
C43   C83   1.404605 A    
C70   S18   1.791518 S    
N21   O153  1.301056 A    
O126  H14   0.990689 S    
O21   C11   1.295699 A    
C91   C92   1.393846 A    
S8    O76   1.676557 S    
C20   C99   1.464454 S    
O51   C23   1.284686 A    
S20   O142  1.499711 D    
S15   O129  1.683271 S    
C92   C97   1.419130 A    
C50   N10   1.430049 S    
C2    C57   1.465879 S    
C36   S4    1.786968 S    
C28   C39   1.500465 S    
C52   N12   1.437533 S    
C68   S16   1.769669 S    
O24   C10   1.288305 A    
O48   C24   1.293274 A    
O12   C8    1.290962 A    
S12   O88   1.680382 S    
O23   C9    1.284563 A    
S11   O83   1.502133 D    
C93   S25   1.784460 S    
C69   C73   1.408755 A    
N4    O95   1.300819 A    
C55   C63   1.414412 A    
S14   O125  1.503142 D    
C96   C99   1.414969 A    
C72   C76   1.405542 A    
C53   C61   1.403617 A    
S23   O168  1.502985 D    
C39   S9    1.823292 S    
C64   C72   1.416335 A    
C37   C38   1.593746 S    
C74   C82   1.418264 A    
O64   H4    0.990511 S    
N1    O90   1.300418 A    
C42   C54   1.387210 A    
Zn1   O13   1.945318 S    
C72   S20   1.769653 S    
C48   N8    1.423785 S    
N2    O91   1.299496 A    
S20   O143  1.503607 D    
C35   S3    1.787652 S    
S5    O65   1.500106 D    
S2    O57   1.504027 D    
C38   S8    1.827611 S    
S3    O59   1.503502 D    
N14   O115  1.297886 A    
O58   H2    0.990506 S    
C35   C36   1.420409 A    
S7    O72   1.500740 D    
C78   N22   1.434245 S    
C80   C88   1.404808 A    
Zn16  O12   1.941515 S    
O39   C17   1.279467 A    
C25   C26   1.377581 A    
Zn2   O2    1.962149 S    
S17   O133  1.499556 D    
Zn14  O2    1.973816 S    
C27   C28   1.358644 A    
C73   C81   1.406383 A    
S21   O161  1.503734 D    
O175  H25   0.990693 S    
Zn5   O31   1.953073 S    
S18   O138  1.683374 S    
C56   C64   1.404387 A    
Zn6   O32   1.957082 S    
C91   S23   1.780743 S    
C17   C98   1.464720 S    
Zn7   O29   1.948771 S    
Zn5   O37   1.947944 S    
S16   O130  1.499579 D    
N22   O156  1.301786 A    
C71   S19   1.792263 S    
O25   C15   1.289623 A    
C73   N17   1.436625 S    
O10   C6    1.286907 A    
S2    O56   1.501652 D    
Zn15  O11   1.943164 S    
C19   C100  1.469618 S    
S27   O180  1.502939 D    
Zn11  O27   1.957386 S    
N13   O113  1.301248 A    
N16   O120  1.301447 A    
C77   C85   1.405930 A    
N3    O94   1.301151 A    
O85   H11   0.990452 S    
C56   N16   1.435773 S    
N2    O92   1.300774 A    
O45   C21   1.289548 A    
Zn6   O2    1.949695 S    
Zn4   O18   1.948518 S    
N9    O106  1.301379 A    
S10   O80   1.502129 D    
N12   O112  1.301465 A    
C21   C29   1.466052 S    
S19   O140  1.503046 D    
C14   C86   1.472997 S    
S5    O67   1.678495 S    
C41   C81   1.402684 A    
C95   S27   1.769552 S    
S11   O84   1.501838 D    
N10   O107  1.299284 A    
O33   C7    1.282842 A    
N21   O154  1.301498 A    
O163  H21   0.990685 S    
C46   C50   1.386105 A    
C42   N2    1.433855 S    
S8    O75   1.501930 D    
C45   N5    1.423659 S    
S13   O122  1.504044 D    
S15   O127  1.502589 D    
S1    O55   1.681524 S    
S13   O123  1.683245 S    
C67   S15   1.787532 S    
N11   O109  1.300298 A    
O55   H1    0.990520 S    
C24   C32   1.460220 S    
C11   C83   1.471453 S    
O178  H26   0.990559 S    
S21   O163  1.683082 S    
C57   C65   1.416972 A    
N15   O118  1.299351 A    
S18   O136  1.502602 D    
C47   C87   1.404151 A    
S16   O132  1.683199 S    
Zn3   O51   1.947251 S    
O35   C5    1.288301 A    
C45   C85   1.409250 A    
S10   O82   1.682696 S    
S12   O87   1.502566 D    
C89   C98   1.416975 A    
N7    O101  1.300856 A    
O15   C11   1.283045 A    
C89   S21   1.785183 S    
C34   S2    1.785098 S    
C50   C58   1.415080 A    
S25   O173  1.503728 D    
C91   C98   1.415947 A    
O67   H5    0.990469 S    
S22   O164  1.502524 D    
O22   C12   1.279994 A    
O20   C16   1.286503 A    
O46   C22   1.294648 A    
S24   O170  1.503748 D    
S9    O78   1.502372 D    
C22   C30   1.465364 S    
Zn9   O41   1.947944 S    
N17   O145  1.301003 A    
S26   O177  1.502899 D    
C93   C100  1.417335 A    
C94   C99   1.417832 A    
Zn12  O44   1.947948 S    
Zn13  O45   1.953262 S    
Zn1   O1    1.973813 S    
N24   O159  1.301028 A    
Zn15  O47   1.953262 S    
Zn16  O48   1.947369 S    
O17   C13   1.290991 A    
C54   C62   1.415230 A    
C29   C33   1.421718 A    
S3    O60   1.504000 D    
