data_mof_unit_44424.cif
_audit_creation_date              2012-12-11T17:08:28-0500
_audit_creation_method            fapswitch 2.2
_symmetry_space_group_name_H-M    P1
_symmetry_Int_Tables_number       1
_space_group_crystal_system       triclinic
_cell_length_a                    7.095857
_cell_length_b                    14.44727
_cell_length_c                    16.113351
_cell_angle_alpha                 89.974607
_cell_angle_beta                  90.332046
_cell_angle_gamma                 89.979809
_cell_volume                      1651.84444984

loop_
_atom_site_label
_atom_site_type_symbol
_atom_type_description
_atom_site_fract_x
_atom_site_fract_y
_atom_site_fract_z
_atom_type_partial_charge
O1    O     O_R   0.505700 0.583890 0.413310 -0.526421
O2    O     O_R   0.175960 0.594920 0.586080 -0.553409
O3    O     O_R   0.005660 0.416110 0.586690 -0.536944
C1    C     C_R   0.345239 0.618557 0.612868 0.704095
O4    O     O_R   0.175980 0.594920 0.413930 -0.529260
O5    O     O_R   0.005680 0.416110 0.413310 -0.531448
C2    C     C_R   0.344272 0.618423 0.386769 0.706264
O6    O     O_R   0.505680 0.583890 0.586690 -0.530262
O7    O     O_3   0.339200 0.441330 0.500000 -0.378136
V1    V     V_3+5 0.064350 0.510880 0.500000 1.465866
O8    O     O_R   0.675960 0.405080 0.413920 -0.533220
C3    C     C_R   0.844581 0.383507 0.385500 0.756971
O9    O     O_R   0.675940 0.405080 0.586070 -0.549713
C4    C     C_R   0.845057 0.382690 0.613929 0.717316
V2    V     V_3+5 0.564340 0.489120 0.500000 1.464547
O10   O     O_3   0.839360 0.558670 0.500000 -0.373817
C5    C     C_R   0.016363 0.308845 0.733897 -0.051124
C6    C     C_R   0.855053 0.315674 0.683643 -0.020985
C7    C     C_R   0.703803 0.256253 0.701776 -0.167451
C8    C     C_R   0.716294 0.191719 0.767080 -0.092680
C9    C     C_R   0.877487 0.185606 0.817488 -0.058757
C10   C     C_R   0.026477 0.245464 0.799727 -0.032416
C11   C     C_3   0.223535 0.219217 0.778429 0.646824
C12   C     C_3   0.213743 0.289153 0.707127 0.071623
C13   C     C_R   0.741291 0.180343 0.242021 0.054314
C14   C     C_R   0.882124 0.187464 0.181474 -0.236255
C15   C     C_R   0.020783 0.258007 0.192754 0.315615
C16   C     C_R   0.011002 0.317782 0.261825 -0.117048
C17   C     C_R   0.858450 0.314861 0.317471 -0.190120
C18   C     C_R   0.728747 0.242883 0.307640 -0.036547
C19   C     C_3   0.517768 0.244635 0.303329 0.193887
C20   C     C_3   0.531968 0.175518 0.231683 0.161223
C21   C     C_R   0.521281 0.732652 0.703286 0.004462
C22   C     C_R   0.354607 0.691262 0.677938 -0.254036
C23   C     C_R   0.192656 0.733292 0.710582 0.339897
C24   C     C_R   0.206680 0.772880 0.791160 0.429744
C25   C     C_R   0.376179 0.817559 0.814641 -0.286462
C26   C     C_R   0.527923 0.802331 0.762501 -0.026039
C27   C     C_3   0.722929 0.778509 0.784264 0.272018
C28   C     C_3   0.710570 0.697602 0.722164 0.211376
C29   C     C_R   0.500025 0.750484 0.311356 -0.051765
C30   C     C_R   0.351023 0.690169 0.320404 -0.323853
C31   C     C_R   0.189436 0.722892 0.279401 0.428625
C32   C     C_R   0.213773 0.761223 0.199017 0.314451
C33   C     C_R   0.378259 0.815276 0.183567 -0.221097
C34   C     C_R   0.510238 0.815745 0.248458 -0.037528
C35   C     C_3   0.719314 0.816798 0.253868 -0.297581
C36   C     C_3   0.701627 0.745762 0.325113 0.738888
O11   O     O_R   0.229000 0.916070 0.913330 -0.528734
O12   O     O_R   0.558770 0.905070 0.086080 -0.534982
O13   O     O_R   0.729000 0.083900 0.086690 -0.526387
C37   C     C_R   0.390216 0.881851 0.113378 0.723624
O14   O     O_R   0.558720 0.905070 0.913930 -0.556100
O15   O     O_R   0.728960 0.083900 0.913310 -0.540510
C38   C     C_R   0.389304 0.882279 0.886304 0.703042
O16   O     O_R   0.229050 0.916070 0.086710 -0.535260
O17   O     O_3   0.395460 0.058650 0.000020 -0.355530
V3    V     V_3+5 0.670340 0.989120 0.000000 1.473325
O18   O     O_R   0.058670 0.094960 0.913900 -0.510964
C39   C     C_R   0.889724 0.116228 0.885210 0.706352
O19   O     O_R   0.058720 0.094960 0.086050 -0.541631
C40   C     C_R   0.890175 0.118526 0.113004 0.702074
V4    V     V_3+5 0.170330 0.010930 0.999970 1.515647
O20   O     O_3   0.895340 0.941350 0.999980 -0.382172
H1    H     H_    0.580367 0.256024 0.662522 0.139574
O21   O     O_3   0.430821 0.209120 0.375042 -0.608009
H2    H     H_    0.506679 0.156343 0.396417 0.339914
H3    H     H_    0.483033 0.202076 0.170420 0.115762
O22   O     O_3   0.464191 0.087033 0.251059 -0.616212
H4    H     H_    0.326336 0.089324 0.240622 0.317419
O23   O     O_3   0.063711 0.771892 0.656639 -0.618901
H5    H     H_    0.101611 0.760880 0.598336 0.291832
O24   O     O_3   0.075015 0.748096 0.849396 -0.662543
H6    H     H_    0.129861 0.754308 0.905790 0.267451
H7    H     H_    0.738468 0.758181 0.850677 0.124861
O25   O     O_3   0.839000 0.851359 0.758542 -0.588402
H8    H     H_    0.843045 0.896348 0.805041 0.311379
O26   O     O_3   0.702177 0.611650 0.762220 -0.656107
H9    H     H_    0.835160 0.593212 0.771934 0.292749
H10   H     H_    0.791285 0.696022 0.664117 0.160608
O27   O     O_3   0.068070 0.772789 0.327562 -0.613262
H11   H     H_    0.096720 0.763746 0.387456 0.320326
H12   H     H_    0.604235 0.142841 0.776311 0.162643
O28   O     O_3   0.074822 0.747374 0.140371 -0.656796
H13   H     H_    0.130619 0.755030 0.084595 0.273803
H14   H     H_    0.773956 0.885435 0.273869 0.201570
H15   H     H_    0.780074 0.789413 0.195960 0.188146
O29   O     O_3   0.748780 0.781406 0.403618 -0.620303
H16   H     H_    0.719803 0.732319 0.444669 0.303107
O30   O     O_3   0.780005 0.657743 0.309308 -0.624657
H17   H     H_    0.741433 0.638140 0.252624 0.263889
O31   O     O_3   0.234472 0.125647 0.754435 -0.605679
H18   H     H_    0.336883 0.119783 0.713331 0.310568
O32   O     O_3   0.352169 0.241137 0.842252 -0.652239
H19   H     H_    0.335140 0.307230 0.857444 0.254215
O33   O     O_3   0.217274 0.246768 0.628612 -0.622422
H20   H     H_    0.282569 0.290176 0.590826 0.319961
H21   H     H_    0.308974 0.350114 0.714148 0.057321
O34   O     O_3   0.159374 0.276003 0.135345 -0.660752
H22   H     H_    0.112698 0.257795 0.079717 0.288891
H23   H     H_    0.116363 0.371644 0.268002 0.138580
H24   H     H_    0.460036 0.313120 0.284651 0.096291

loop_
_geom_bond_atom_site_label_1
_geom_bond_atom_site_label_2
_ccdc_geom_bond_type
C19   O21   S    
O11   V4    S    
C3    C17   S    
O24   H6    S    
C4    C6    S    
C7    C8    A    
C1    O6    A    
O27   H11   S    
O30   H17   S    
O15   C39   A    
C33   C34   A    
C15   O34   S    
C14   C15   A    
C17   C18   A    
C12   H21   S    
C16   C17   A    
C6    C7    A    
C12   O33   S    
O5    C3    A    
C18   C19   S    
V2    O10   S    
C5    C6    A    
C22   C23   A    
C29   C30   A    
C2    C30   S    
O19   V4    S    
O8    V2    S    
C16   H23   S    
C35   C36   S    
O12   C37   A    
C29   C34   A    
C36   O29   S    
O1    V2    S    
C27   H7    S    
O7    V1    S    
C11   O31   S    
C20   H3    S    
C13   C20   S    
O21   H2    S    
C23   O23   S    
O18   C39   A    
C36   O30   S    
O9    C4    A    
O22   H4    S    
O13   C40   A    
O17   V4    S    
O14   C38   A    
V3    O20   S    
C1    C22   S    
C5    C12   S    
C21   C28   S    
C19   H24   S    
O25   H8    S    
C9    C39   S    
C27   C28   S    
O4    C2    A    
O26   H9    S    
C33   C37   S    
C13   C14   A    
O11   C38   A    
C23   C24   A    
O12   V3    S    
O2    C1    A    
C31   C32   A    
C35   H14   S    
C25   C26   A    
O34   H22   S    
C11   C12   S    
O33   H20   S    
C8    C9    A    
C28   H10   S    
C21   C22   A    
O16   V4    S    
O32   H19   S    
O13   V3    S    
C27   O25   S    
O28   H13   S    
O3    C4    A    
O6    V2    S    
O9    V2    S    
C31   O27   S    
C28   O26   S    
C30   C31   A    
O2    V1    S    
C32   C33   A    
O15   V3    S    
C13   C18   A    
C34   C35   S    
C24   C25   A    
O1    C2    A    
C19   C20   S    
C5    C10   A    
C32   O28   S    
O5    V1    S    
O14   V3    S    
C20   O22   S    
O18   V4    S    
C21   C26   A    
C11   O32   S    
O7    V2    S    
O4    V1    S    
O3    V1    S    
V1    O10   S    
O17   V3    S    
C26   C27   S    
O31   H18   S    
C29   C36   S    
C7    H1    S    
C14   C40   S    
O19   C40   A    
C24   O24   S    
V4    O20   S    
C25   C38   S    
O23   H5    S    
O29   H16   S    
C8    H12   S    
C15   C16   A    
C10   C11   S    
C9    C10   A    
C37   O16   A    
O8    C3    A    
C35   H15   S    
