data_mof_unit_11091.cif
_audit_creation_date              2012-10-26T21:03:53-0400
_audit_creation_method            fapswitch 2.2
_symmetry_space_group_name_H-M    P1
_symmetry_Int_Tables_number       1
_space_group_crystal_system       triclinic
_cell_length_a                    15.116835
_cell_length_b                    13.974654
_cell_length_c                    10.80946
_cell_angle_alpha                 90.549097
_cell_angle_beta                  92.035174
_cell_angle_gamma                 89.834632
_cell_volume                      2281.97324745

loop_
_atom_site_label
_atom_site_type_symbol
_atom_type_description
_atom_site_fract_x
_atom_site_fract_y
_atom_site_fract_z
_atom_type_partial_charge
C1    C     C_R   0.330113 0.500142 0.499713 0.518893
C2    C     C_R   0.448057 0.104281 0.415802 -0.121589
C3    C     C_R   0.554354 0.206712 0.582244 0.157632
C4    C     C_R   0.444839 0.205528 0.419207 0.163656
C5    C     C_R   0.499104 0.052286 0.501308 -0.008641
C6    C     C_R   0.425102 0.890736 0.457744 -0.143772
C7    C     C_R   0.574235 0.891232 0.542877 -0.147681
C8    C     C_R   0.427073 0.790113 0.457039 0.042782
C9    C     C_R   0.572911 0.790590 0.542458 0.052905
C10   C     C_R   0.499436 0.943773 0.500824 0.019676
C11   C     C_R   0.497590 0.500039 0.262947 0.579469
C12   C     C_R   0.670020 0.499977 0.500228 0.555842
C13   C     C_R   0.498867 0.500643 0.737042 0.543777
C14   C     C_R   0.557417 0.543937 0.066179 -0.007419
C15   C     C_R   0.555461 0.548741 0.941788 -0.008215
C16   C     C_R   0.490692 0.501233 0.130025 0.019094
C17   C     C_R   0.490780 0.502993 0.869251 0.013395
C18   C     C_R   0.414302 0.468569 0.061289 -0.005484
C19   C     C_R   0.417300 0.462263 0.928944 0.007159
C20   C     C_3   0.642860 0.599958 0.937251 0.058700
C21   C     C_3   0.644680 0.594609 0.083659 0.055879
C22   C     C_R   0.093961 0.578404 0.451224 -0.116571
C23   C     C_R   0.188776 0.423523 0.551044 -0.141094
C24   C     C_R   0.905558 0.584231 0.533711 -0.105360
C25   C     C_R   0.185942 0.578232 0.450966 -0.132040
C26   C     C_R   0.813564 0.583946 0.533152 -0.123389
C27   C     C_R   0.233702 0.500551 0.500342 0.017322
C28   C     C_R   0.766741 0.500292 0.500980 0.027212
C29   C     C_3   0.327435 0.455024 0.125891 -0.281264
C30   C     C_3   0.267489 0.542561 0.108874 -0.435847
C31   C     C_3   0.343850 0.412403 0.852997 -0.259101
C32   C     C_3   0.358073 0.304203 0.851506 -0.422147
C33   C     C_3   0.714224 0.543987 0.864428 -0.262352
C34   C     C_R   0.813039 0.417236 0.468890 -0.126375
C35   C     C_3   0.718364 0.434903 0.878806 -0.435089
C36   C     C_3   0.639520 0.689979 0.160331 -0.251417
C37   C     C_3   0.555283 0.751377 0.144249 -0.409756
C38   C     C_2   0.633064 0.700299 0.886155 0.548888
C39   C     C_2   0.715890 0.530513 0.140313 0.548360
C40   C     C_3   0.622787 0.250793 0.671281 -0.245369
C41   C     C_3   0.716325 0.216192 0.643024 -0.454903
C42   C     C_3   0.377591 0.248728 0.329435 -0.245636
C43   C     C_3   0.282853 0.222243 0.360519 -0.458571
C44   C     C_R   0.096879 0.423823 0.551773 -0.124470
C45   C     C_R   0.904936 0.417541 0.469024 -0.115905
C46   C     C_R   0.048859 0.501158 0.501603 0.033751
C47   C     C_R   0.951813 0.501006 0.501580 0.040459
C48   C     C_R   0.549996 0.105432 0.586949 -0.125992
Cu1   Cu    Cu3+1 0.500000 0.596430 0.500000 0.945250
Cu2   Cu    Cu3+1 0.500000 0.403570 0.500000 0.915478
H1    H     H_    0.364907 0.926221 0.426073 0.085990
H2    H     H_    0.778232 0.352731 0.440825 0.123087
H3    H     H_    0.063361 0.364294 0.593016 0.103405
H4    H     H_    0.939334 0.353025 0.441769 0.103660
H5    H     H_    0.588318 0.067998 0.657852 0.102849
H6    H     H_    0.409060 0.066148 0.345475 0.096653
H7    H     H_    0.299293 0.606177 0.153838 0.148937
H8    H     H_    0.254006 0.558456 0.009694 0.156354
H9    H     H_    0.203505 0.529624 0.153209 0.145936
H10   H     H_    0.293124 0.388929 0.093259 0.140153
H11   H     H_    0.337817 0.447876 0.226698 0.137781
H12   H     H_    0.634197 0.927137 0.574846 0.097446
H13   H     H_    0.304617 0.269516 0.794178 0.128853
H14   H     H_    0.422662 0.285936 0.811420 0.178072
H15   H     H_    0.356780 0.275401 0.946796 0.139532
H16   H     H_    0.277602 0.428427 0.888392 0.136828
H17   H     H_    0.340364 0.438270 0.756431 0.162341
H18   H     H_    0.754335 0.413898 0.965168 0.193450
H19   H     H_    0.651869 0.401821 0.875116 0.149883
H20   H     H_    0.756374 0.404780 0.801679 0.124900
H21   H     H_    0.701526 0.557725 0.764191 0.139171
H22   H     H_    0.780632 0.574073 0.888647 0.189973
H23   H     H_    0.369549 0.751295 0.422220 0.115743
H24   H     H_    0.494084 0.707897 0.140169 0.171283
H25   H     H_    0.557286 0.796482 0.060921 0.181913
H26   H     H_    0.551197 0.801090 0.224662 0.138301
H27   H     H_    0.646140 0.671993 0.260271 0.174128
H28   H     H_    0.697773 0.734943 0.140703 0.179459
H29   H     H_    0.553634 0.801402 0.809147 0.327500
H30   H     H_    0.748088 0.404165 0.218703 0.329571
H31   H     H_    0.726505 0.141098 0.672945 0.141731
H32   H     H_    0.727489 0.220247 0.542356 0.158371
H33   H     H_    0.766529 0.260898 0.693322 0.133273
H34   H     H_    0.630712 0.752186 0.576813 0.138370
H35   H     H_    0.623952 0.328460 0.671254 0.211303
H36   H     H_    0.607617 0.230320 0.767362 0.110228
H37   H     H_    0.269897 0.145356 0.340870 0.135427
H38   H     H_    0.271348 0.237179 0.459651 0.162050
H39   H     H_    0.235274 0.265163 0.303183 0.137114
H40   H     H_    0.380645 0.325464 0.328556 0.208624
H41   H     H_    0.390933 0.224143 0.233735 0.111488
H42   H     H_    0.058042 0.638185 0.410607 0.114377
H43   H     H_    0.940585 0.649080 0.560613 0.109086
H44   H     H_    0.219641 0.638060 0.410653 0.110845
H45   H     H_    0.779233 0.648840 0.559069 0.119364
H46   H     H_    0.224704 0.364019 0.592186 0.114207
N1    N     N_R   0.500000 0.258690 0.500000 -0.211548
N2    N     N_R   0.500000 0.741330 0.500000 -0.217528
O1    O     O_R   0.371460 0.581430 0.500010 -0.511627
O2    O     O_R   0.551472 0.732508 0.837336 -0.689014
O3    O     O_2   0.792840 0.557506 0.144976 -0.531364
O4    O     O_R   0.694106 0.441249 0.188047 -0.704961
O5    O     O_R   0.628540 0.581430 0.499990 -0.523703
O6    O     O_R   0.371470 0.418560 0.500010 -0.529758
O7    O     O_R   0.628530 0.418560 0.499990 -0.503910
O8    O     O_R   0.499990 0.581450 0.319660 -0.515756
O9    O     O_R   0.500010 0.581450 0.680340 -0.441804
O10   O     O_R   0.500010 0.418580 0.319660 -0.497056
O11   O     O_R   0.499990 0.418580 0.680340 -0.541683
O12   O     O_2   0.697251 0.753444 0.887924 -0.549430

loop_
_geom_bond_atom_site_label_1
_geom_bond_atom_site_label_2
_ccdc_geom_bond_type
C31   H16   S    
C37   H24   S    
Cu2   O6    S    
C9    N2    A    
C48   H5    S    
C13   O9    A    
C19   C31   S    
C1    O1    A    
Cu1   O9    S    
C21   C36   S    
C31   H17   S    
C43   H39   S    
C12   C28   S    
C43   H38   S    
C14   C21   S    
C36   C37   S    
C24   C26   A    
C42   H41   S    
C36   H27   S    
C12   O7    A    
C41   H33   S    
C30   H7    S    
C3    C48   A    
C23   H46   S    
C15   C17   A    
C18   C19   A    
C7    C10   A    
C40   H36   S    
C8    N2    A    
C13   O11   A    
C33   H22   S    
C17   C19   A    
Cu1   N2    S    
C44   H3    S    
C35   H20   S    
C22   C25   A    
Cu2   O7    S    
C23   C27   A    
C6    H1    S    
C38   O12   D    
C37   H25   S    
C28   C34   A    
C25   H44   S    
C4    N1    A    
Cu2   O10   S    
C44   C46   A    
C39   O3    D    
C45   C47   A    
C15   C20   S    
C5    C48   A    
C29   H11   S    
H29   O2    S    
C32   H14   S    
C12   O5    A    
C38   O2    S    
C18   C29   S    
C6    C8    A    
Cu2   O11   S    
C23   C44   A    
H30   O4    S    
C42   H40   S    
C40   H35   S    
C2    C4    A    
C7    H12   S    
C6    C10   A    
C29   C30   S    
Cu1   O1    S    
C20   C38   S    
C11   C16   S    
C3    N1    A    
C31   C32   S    
C21   C39   S    
C29   H10   S    
C41   H31   S    
C30   H9    S    
C11   O8    A    
C34   C45   A    
C1    O6    A    
C20   C33   S    
C40   C41   S    
C22   C46   A    
C37   H26   S    
C45   H4    S    
C14   C16   A    
C2    C5    A    
C42   C43   S    
C39   O4    S    
C26   H45   S    
C7    C9    A    
C46   C47   S    
Cu2   N1    S    
C3    C40   S    
C24   C47   A    
C26   C28   A    
C32   H13   S    
Cu1   O5    S    
Cu1   O8    S    
C25   C27   A    
C34   H2    S    
C13   C17   S    
C43   H37   S    
C5    C10   S    
C36   H28   S    
C24   H43   S    
C4    C42   S    
C35   H18   S    
C41   H32   S    
C30   H8    S    
C8    H23   S    
C33   C35   S    
C33   H21   S    
C9    H34   S    
C20   C21   S    
C35   H19   S    
C16   C18   A    
Cu1   Cu2   S    
C11   O10   A    
C1    C27   S    
C22   H42   S    
C14   C15   A    
C2    H6    S    
C32   H15   S    
