data_mof_unit_63871.cif
_audit_creation_date              2012-12-10T16:57:24-0500
_audit_creation_method            fapswitch 2.2
_symmetry_space_group_name_H-M    P1
_symmetry_Int_Tables_number       1
_space_group_crystal_system       triclinic
_cell_length_a                    21.808444
_cell_length_b                    21.771943
_cell_length_c                    22.34274
_cell_angle_alpha                 61.1682
_cell_angle_beta                  120.751583
_cell_angle_gamma                 90.041474
_cell_volume                      7548.9465921

loop_
_atom_site_label
_atom_site_type_symbol
_atom_type_description
_atom_site_fract_x
_atom_site_fract_y
_atom_site_fract_z
_atom_type_partial_charge
C1    C     C_R   0.621386 0.497260 0.504544 0.852570
C2    C     C_3   0.293452 0.708052 0.082821 -0.021613
C3    C     C_3   0.188091 0.791464 0.968576 0.487820
C4    C     C_3   0.213577 0.788697 0.917092 -0.010718
C5    C     C_3   0.265592 0.793670 0.026870 -0.116650
C6    C     C_3   0.291450 0.790475 0.975432 -0.183631
C7    C     C_1   0.337909 0.662797 0.173633 0.002040
C8    C     C_1   0.167438 0.834413 0.826239 0.098317
C9    C     C_2   0.742523 0.551415 0.427453 -0.220021
C10   C     C_2   0.814734 0.531593 0.493781 -0.337365
C11   C     C_2   0.680283 0.556704 0.436606 0.351914
C12   C     C_R   0.418836 0.581133 0.337386 0.917887
C13   C     C_2   0.686461 0.496006 0.501682 0.287414
C14   C     C_3   0.705225 0.215755 0.026046 -0.357476
C15   C     C_3   0.683552 0.301273 0.970127 0.476479
C16   C     C_1   0.623591 0.375708 0.751258 -0.130183
C17   C     C_1   0.871479 0.127526 0.248660 -0.157055
C18   C     C_3   0.726719 0.209332 0.972511 -0.156724
C19   C     C_3   0.704348 0.294635 0.916883 -0.061215
C20   C     C_3   0.807826 0.206176 0.029721 0.398663
C21   C     C_3   0.786950 0.213145 0.083006 -0.063788
C22   C     C_3   0.785446 0.291164 0.974956 0.306397
C23   C     C_R   0.379107 0.501696 0.495807 0.841803
C24   C     C_3   0.764186 0.298768 0.027638 -0.197045
C25   C     C_1   0.659786 0.339436 0.826122 0.135282
C26   C     C_1   0.832934 0.166460 0.173737 0.111861
C27   C     C_2   0.256521 0.469957 0.569914 -0.210424
C28   C     C_2   0.186209 0.519844 0.507331 0.262013
C29   C     C_2   0.318650 0.486920 0.562853 0.384854
C30   C     C_2   0.312271 0.499876 0.494368 0.311267
C31   C     C_R   0.001863 0.879333 0.503139 0.916693
C32   C     C_R   0.082175 0.918308 0.662542 0.883130
C33   C     C_R   0.003282 0.115946 0.505320 0.885076
C34   C     C_R   0.580878 0.419013 0.662574 0.915445
C35   C     C_R   0.917828 0.081540 0.337443 0.930162
C36   C     C_R   0.993926 0.619060 0.499854 0.807563
C37   C     C_R   0.879997 0.505887 0.498339 0.906348
C38   C     C_R   0.993820 0.381644 0.499148 0.909420
C39   C     C_R   0.120035 0.502120 0.501850 0.805583
C40   C     C_2   0.994652 0.686980 0.563535 -0.141784
C41   C     C_2   0.976414 0.686258 0.495867 0.206240
C42   C     C_2   0.985586 0.758665 0.553838 -0.155667
C43   C     C_2   0.009798 0.808235 0.514364 -0.257132
C44   C     C_2   0.958572 0.314112 0.432874 0.323064
C45   C     C_3   0.241555 0.703342 0.973194 -0.048159
C46   C     C_2   0.970924 0.320012 0.495611 -0.259087
C47   C     C_2   0.949296 0.245073 0.437160 0.350169
C48   C     C_2   0.006359 0.181835 0.505975 0.221585
C49   C     C_3   0.319876 0.704735 0.032045 -0.191474
C50   C     C_1   0.375000 0.625270 0.248582 -0.162887
C51   C     C_1   0.128610 0.872663 0.751294 -0.119233
C52   C     C_3   0.215004 0.705600 0.024819 -0.327275
H1    H     H_    0.673405 0.184320 0.048739 0.179060
H2    H     H_    0.961986 0.769326 0.581889 0.174004
H3    H     H_    0.041060 0.794026 0.494883 0.179993
H4    H     H_    0.185025 0.670018 0.046923 0.161811
O1    O     O_R   0.590490 0.448940 0.499990 -0.629474
O2    O     O_R   0.948920 0.909510 0.500030 -0.618853
O3    O     O_R   0.112670 0.938280 0.623210 -0.617726
O4    O     O_R   0.010540 0.938370 0.623230 -0.618148
O5    O     O_R   0.051080 0.090340 0.499970 -0.639114
O6    O     O_R   0.948950 0.090430 0.499990 -0.593314
O7    O     O_R   0.989460 0.061480 0.376770 -0.606484
O8    O     O_R   0.887330 0.061570 0.376790 -0.614086
O9    O     O_R   0.965150 0.625240 0.430430 -0.608977
O10   O     O_R   0.034710 0.555670 0.569560 -0.610860
O11   O     O_R   0.874770 0.534770 0.430450 -0.607756
O12   O     O_R   0.590420 0.551070 0.499980 -0.587952
O13   O     O_R   0.944330 0.465210 0.569580 -0.554964
O14   O     O_R   0.965290 0.444330 0.430440 -0.577164
O15   O     O_R   0.034850 0.374760 0.569570 -0.578498
O16   O     O_R   0.055670 0.534790 0.430420 -0.603728
O17   O     O_R   0.125230 0.465230 0.569550 -0.604875
O18   O     O_R   0.438430 0.510550 0.376780 -0.611270
O19   O     O_R   0.438360 0.612680 0.376770 -0.608089
O20   O     O_R   0.409580 0.448930 0.500020 -0.611326
O21   O     O_R   0.409510 0.551060 0.500010 -0.624124
O22   O     O_R   0.561640 0.387320 0.623230 -0.606533
O23   O     O_R   0.561570 0.489450 0.623220 -0.615271
O24   O     O_R   0.051050 0.909420 0.500010 -0.618549
Zn1   Zn    Zn3+2 0.500050 0.431810 0.500010 1.009997
Zn2   Zn    Zn3+2 0.499950 0.568190 0.499990 1.003300
Zn3   Zn    Zn3+2 0.068190 0.999870 0.499990 0.988465
Zn4   Zn    Zn3+2 0.931810 0.999990 0.500010 0.994742
Zn5   Zn    Zn3+2 0.953560 0.546450 0.407100 1.021751
Zn6   Zn    Zn3+2 0.046440 0.453550 0.592900 1.079238
C53   C     C_2   0.396070 0.656769 0.070465 1.030019
O25   O     O_2   0.400425 0.610899 0.055122 -0.531370
O26   O     O_R   0.462279 0.664256 0.123469 -0.759373
H5    H     H_    0.452027 0.704293 0.131242 0.304909
O27   O     O_3   0.748743 0.431492 0.553913 -0.658552
C54   C     C_3   0.755359 0.371651 0.625041 0.094586
H6    H     H_    0.802277 0.323649 0.653751 0.194815
H7    H     H_    0.705442 0.352764 0.607949 0.161711
C55   C     C_3   0.776145 0.386947 0.692306 -0.371525
H8    H     H_    0.828056 0.402701 0.710082 0.284577
H9    H     H_    0.730152 0.433094 0.668086 0.202741
C56   C     C_3   0.790630 0.318150 0.771053 -0.952028
H10   H     H_    0.739969 0.300141 0.755482 0.272815
H11   H     H_    0.803865 0.331082 0.817801 0.304180
H12   H     H_    0.839314 0.272023 0.799594 0.265750
O28   O     O_3   0.616679 0.354698 0.932369 -0.632252
C57   C     C_3   0.604453 0.343409 0.992740 0.100034
H13   H     H_    0.591533 0.397710 0.983897 0.182408
H14   H     H_    0.654270 0.304346 0.059435 0.124955
C58   C     C_3   0.536481 0.316321 0.977643 -0.356788
H15   H     H_    0.486386 0.356942 0.912150 0.241298
H16   H     H_    0.548308 0.262316 0.985561 0.228145
C59   C     C_3   0.518638 0.306889 0.038696 -0.923021
H17   H     H_    0.567492 0.265294 0.104594 0.262917
H18   H     H_    0.469059 0.287341 0.025989 0.278861
H19   H     H_    0.505184 0.360652 0.030730 0.273321
C60   C     C_2   0.783011 0.349597 0.057000 0.900729
O29   O     O_2   0.752903 0.416624 0.005721 -0.605957
O30   O     O_R   0.835250 0.320321 0.142394 -0.831142
H20   H     H_    0.843494 0.360232 0.154136 0.340190
O31   O     O_3   0.823159 0.332915 0.942766 -0.649401
C61   C     C_3   0.896526 0.320291 0.008610 0.103935
H21   H     H_    0.938273 0.288868 0.010558 0.149108
H22   H     H_    0.908501 0.287714 0.072370 0.154346
C62   C     C_3   0.908492 0.394878 0.989848 -0.308295
H23   H     H_    0.901851 0.425438 0.929055 0.238549
H24   H     H_    0.865261 0.428669 0.984108 0.257765
C63   C     C_3   0.986793 0.384685 0.059176 -0.937777
H25   H     H_    0.993854 0.355955 0.120146 0.269889
H26   H     H_    0.993817 0.439776 0.043302 0.273561
H27   H     H_    0.031115 0.351725 0.065461 0.269768
O32   O     O_3   0.874655 0.153362 0.066212 -0.633407
C64   C     C_3   0.880803 0.160324 0.003294 0.096247
H28   H     H_    0.923150 0.188171 0.002128 0.152534
H29   H     H_    0.827122 0.193228 0.938620 0.142046
C65   C     C_3   0.908311 0.083070 0.025284 -0.313492
H30   H     H_    0.963921 0.050820 0.087696 0.230191
H31   H     H_    0.867522 0.053557 0.029013 0.255131
C66   C     C_3   0.916242 0.087351 0.959454 -0.951446
H32   H     H_    0.860778 0.117815 0.896906 0.272067
H33   H     H_    0.936746 0.030438 0.977477 0.271163
H34   H     H_    0.957396 0.116044 0.955189 0.268531
C67   C     C_2   0.705769 0.158551 0.943316 0.942659
O33   O     O_2   0.725242 0.092137 0.994946 -0.617467
O34   O     O_R   0.664446 0.187099 0.857662 -0.812994
H35   H     H_    0.654261 0.147208 0.846109 0.348430
C68   C     C_2   0.273964 0.394148 0.639251 0.902610
O35   O     O_2   0.299184 0.340439 0.644252 -0.599249
O36   O     O_R   0.265726 0.384093 0.701137 -0.793843
H36   H     H_    0.280726 0.329796 0.745671 0.348074
O37   O     O_3   0.176297 0.589687 0.445784 -0.646628
C69   C     C_3   0.151983 0.643420 0.454113 0.060666
H37   H     H_    0.190170 0.628271 0.519943 0.122419
H38   H     H_    0.093362 0.649238 0.436102 0.174653
C70   C     C_3   0.152743 0.718201 0.395551 -0.335648
H39   H     H_    0.211224 0.713781 0.413543 0.221051
H40   H     H_    0.115964 0.733519 0.329788 0.230513
C71   C     C_3   0.124561 0.778914 0.400127 -0.926100
H41   H     H_    0.065609 0.785118 0.380881 0.282987
H42   H     H_    0.125835 0.832507 0.357050 0.267280
H43   H     H_    0.161217 0.765282 0.465141 0.262230
O38   O     O_3   0.387977 0.475450 0.630938 -0.662861
C72   C     C_3   0.378051 0.505739 0.670001 0.050021
H44   H     H_    0.356153 0.471407 0.705670 0.179878
H45   H     H_    0.338646 0.564006 0.622693 0.138648
C73   C     C_3   0.454653 0.505530 0.731792 -0.287803
H46   H     H_    0.494941 0.448021 0.777531 0.271156
H47   H     H_    0.476812 0.540786 0.696971 0.235189
C74   C     C_3   0.449043 0.534469 0.779479 -0.911778
H48   H     H_    0.410277 0.592616 0.734937 0.264649
H49   H     H_    0.505768 0.532927 0.824171 0.284371
H50   H     H_    0.427948 0.499375 0.815682 0.264296
C75   C     C_2   0.227311 0.652612 0.943571 0.984434
O39   O     O_2   0.249581 0.585672 0.994748 -0.581869
O40   O     O_R   0.188513 0.681853 0.857957 -0.791340
H51   H     H_    0.182409 0.642006 0.846035 0.374776
O41   O     O_3   0.249678 0.493454 0.435114 -0.649243
C76   C     C_3   0.234439 0.534655 0.354059 0.088746
H52   H     H_    0.193017 0.516076 0.316552 0.171776
H53   H     H_    0.284587 0.522938 0.354973 0.128678
C77   C     C_3   0.198768 0.618115 0.308925 -0.322892
H54   H     H_    0.143470 0.628559 0.299041 0.265015
H55   H     H_    0.235858 0.637919 0.347720 0.222825
C78   C     C_3   0.186258 0.662340 0.223785 -1.013173
H56   H     H_    0.241211 0.657330 0.232481 0.270254
H57   H     H_    0.156269 0.721807 0.190553 0.270609
H58   H     H_    0.151950 0.641801 0.184616 0.267887
C79   C     C_2   0.021069 0.620368 0.646855 0.917321
O42   O     O_2   0.069671 0.616052 0.710805 -0.610102
O43   O     O_R   0.987841 0.564811 0.652603 -0.763245
H59   H     H_    0.010470 0.522971 0.712986 0.367554
O44   O     O_3   0.939015 0.752413 0.416922 -0.639506
C80   C     C_3   0.860422 0.768122 0.377535 0.102589
H60   H     H_    0.844639 0.774748 0.414827 0.144911
H61   H     H_    0.842056 0.722942 0.370164 0.154542
C81   C     C_3   0.819054 0.840510 0.290485 -0.294609
H62   H     H_    0.835531 0.886384 0.297112 0.227833
H63   H     H_    0.835565 0.835335 0.253152 0.239807
C82   C     C_3   0.733644 0.859180 0.243709 -0.952173
H64   H     H_    0.715915 0.814712 0.234734 0.270784
H65   H     H_    0.705218 0.912184 0.180983 0.287499
H66   H     H_    0.715710 0.865378 0.279490 0.259662
O45   O     O_3   0.959484 0.370264 0.367375 -0.641501
C83   C     C_3   0.022157 0.346245 0.370680 0.103332
H67   H     H_    0.007810 0.381868 0.306264 0.166474
H68   H     H_    0.034321 0.288245 0.387940 0.142221
C84   C     C_3   0.092505 0.356083 0.430188 -0.350690
H69   H     H_    0.079148 0.414216 0.411970 0.244245
H70   H     H_    0.109944 0.318492 0.495736 0.236838
C85   C     C_3   0.158259 0.338807 0.427173 -0.873348
H71   H     H_    0.173497 0.280545 0.446344 0.264487
H72   H     H_    0.208065 0.346334 0.471062 0.301967
H73   H     H_    0.143080 0.376905 0.362673 0.252636
C86   C     C_2   0.955433 0.269569 0.557685 0.868726
O46   O     O_2   0.985328 0.263245 0.624846 -0.593458
O47   O     O_R   0.904204 0.231909 0.537980 -0.820533
H74   H     H_    0.898602 0.200031 0.584990 0.349655
O48   O     O_3   0.890619 0.243857 0.370141 -0.659715
C87   C     C_3   0.826913 0.308461 0.312314 0.154248
H75   H     H_    0.838107 0.354860 0.272083 0.180842
H76   H     H_    0.812015 0.324135 0.345116 0.163893
C88   C     C_3   0.759719 0.293445 0.256334 -0.342642
H77   H     H_    0.775184 0.271633 0.228303 0.256105
H78   H     H_    0.744814 0.250660 0.295207 0.234465
C89   C     C_3   0.691166 0.363708 0.185753 -0.928883
H79   H     H_    0.674733 0.386793 0.212209 0.289806
H80   H     H_    0.642957 0.350449 0.147833 0.261961
H81   H     H_    0.703902 0.405966 0.143874 0.275185
O49   O     O_3   0.071605 0.185258 0.566001 -0.700680
C90   C     C_3   0.122574 0.115970 0.642787 0.071345
H82   H     H_    0.174766 0.126455 0.678741 0.200149
H83   H     H_    0.140646 0.075389 0.633741 0.151510
C91   C     C_3   0.092014 0.083335 0.696043 -0.414563
H84   H     H_    0.068923 0.126814 0.698443 0.277172
H85   H     H_    0.045968 0.062868 0.667458 0.212050
C92   C     C_3   0.154230 0.019286 0.785904 -0.833943
H86   H     H_    0.183409 0.977778 0.785680 0.250428
H87   H     H_    0.129485 0.991837 0.820704 0.296435
H88   H     H_    0.196375 0.040273 0.819141 0.281098
C93   C     C_2   0.332528 0.836858 0.944815 0.915771
O50   O     O_2   0.349752 0.883223 0.960629 -0.609624
O51   O     O_R   0.350653 0.826677 0.897926 -0.780446
H89   H     H_    0.378106 0.861084 0.880499 0.349308
C94   C     C_2   0.279586 0.842436 0.059022 0.966694
O52   O     O_2   0.344256 0.834732 0.110304 -0.631716
O53   O     O_R   0.218875 0.896490 0.030125 -0.805834
H90   H     H_    0.235609 0.925813 0.056403 0.343642
O54   O     O_3   0.117896 0.842299 0.927373 -0.630335
C95   C     C_3   0.093045 0.820881 0.979621 0.136636
H91   H     H_    0.071995 0.871292 0.973800 0.191951
H92   H     H_    0.138317 0.779811 0.047806 0.128183
C96   C     C_3   0.027761 0.791253 0.948760 -0.370707
H93   H     H_    0.984651 0.831782 0.880119 0.248338
H94   H     H_    0.048923 0.738145 0.959253 0.220025
C97   C     C_3   0.990454 0.778768 0.993909 -0.942763
H95   H     H_    0.031722 0.737478 0.062499 0.267852
H96   H     H_    0.943374 0.757540 0.969709 0.276319
H97   H     H_    0.967351 0.831678 0.982575 0.267584
C98   C     C_2   0.723963 0.548704 0.355090 0.969840
O55   O     O_2   0.696607 0.502364 0.345606 -0.583255
O56   O     O_R   0.733811 0.601568 0.295563 -0.803568
H98   H     H_    0.717859 0.594642 0.248512 0.348826
C99   C     C_2   0.830944 0.537787 0.564025 1.002420
O57   O     O_2   0.880058 0.487640 0.636678 -0.545834
O58   O     O_R   0.791849 0.600447 0.548628 -0.775107
H99   H     H_    0.757848 0.642119 0.486891 0.290467
O59   O     O_3   0.613136 0.617067 0.377701 -0.651593
C100  C     C_3   0.613399 0.678775 0.314110 0.077207
H100  H     H_    0.607747 0.666969 0.268710 0.197113
H101  H     H_    0.665414 0.693615 0.340730 0.125707
C101  C     C_3   0.545095 0.744972 0.266695 -0.302490
H102  H     H_    0.492889 0.729818 0.243215 0.258169
H103  H     H_    0.550639 0.759327 0.310322 0.230396
C102  C     C_3   0.538029 0.812513 0.192353 -0.859642
H104  H     H_    0.588808 0.829768 0.214636 0.250077
H105  H     H_    0.487746 0.859307 0.159212 0.303326
H106  H     H_    0.531318 0.799706 0.147263 0.279346

loop_
_geom_bond_atom_site_label_1
_geom_bond_atom_site_label_2
_ccdc_geom_bond_type
C22   O31   S    
O40   H51   S    
C38   O14   A    
C74   H48   S    
C82   H65   S    
C5    C94   S    
C12   O18   A    
C27   C29   S    
C67   O34   S    
C75   O39   D    
C14   C18   S    
C55   H8    S    
C85   H73   S    
C69   C70   S    
C23   O20   A    
C21   C26   S    
C33   O5    A    
O32   C64   S    
C98   O56   S    
O16   Zn5   S    
C88   H77   S    
C55   C56   S    
O59   C100  S    
O41   C76   S    
C79   O42   D    
C15   C19   S    
C96   H94   S    
C39   O17   A    
C73   H46   S    
C38   O15   A    
C31   C43   S    
C10   C37   S    
C17   C26   T    
C93   O51   S    
C31   O2    A    
C85   H72   S    
C69   H38   S    
C18   C19   S    
C89   H81   S    
C1    O1    A    
C83   C84   S    
O58   H99   S    
C3    C52   S    
C36   O10   A    
C97   H96   S    
C11   C13   D    
C58   H15   S    
C68   O35   D    
C73   C74   S    
C47   O48   S    
C37   O11   A    
C98   O55   D    
C16   C25   T    
C1    O12   A    
C93   O50   D    
C18   C20   S    
C66   H33   S    
O56   H98   S    
C70   C71   S    
C80   H61   S    
C49   C53   S    
C76   H52   S    
C92   H86   S    
C62   C63   S    
C6    C93   S    
C2    C7    S    
C16   C34   S    
C61   H21   S    
O34   H35   S    
C86   O46   D    
O8    Zn4   S    
O37   C69   S    
C78   H57   S    
C83   H67   S    
C77   H55   S    
C47   C48   D    
C27   C68   S    
C39   O16   A    
C72   H45   S    
C35   O8    A    
C11   O59   S    
C85   H71   S    
C29   C30   D    
C9    C10   D    
C95   C96   S    
C30   O41   S    
C71   H42   S    
C87   H76   S    
C78   H58   S    
C4    C8    S    
C64   C65   S    
C40   C79   S    
C40   C42   S    
C24   C60   S    
C74   H49   S    
C95   H91   S    
C13   O27   S    
C75   O40   S    
C102  H106  S    
C36   C41   S    
C9    C98   S    
C18   C67   S    
O24   Zn3   S    
C54   H7    S    
C44   C46   D    
O36   H36   S    
C73   H47   S    
C4    C45   S    
O54   C95   S    
C84   C85   S    
O11   Zn5   S    
C62   H23   S    
C23   C30   S    
C65   C66   S    
C66   H32   S    
C19   C22   S    
C69   H37   S    
C71   H43   S    
C4    C6    S    
O5    Zn3   S    
C87   C88   S    
O26   H5    S    
O27   C54   S    
O48   C87   S    
C100  H100  S    
C97   H97   S    
C45   C52   S    
C3    C5    S    
C46   C86   S    
C33   O6    A    
C54   C55   S    
C41   O44   S    
O7    Zn3   S    
O44   C80   S    
C61   C62   S    
C81   H63   S    
C80   C81   S    
C87   H75   S    
C81   C82   S    
C32   C51   S    
O10   Zn6   S    
C91   H84   S    
C2    C49   S    
O2    Zn4   S    
C34   O23   A    
O15   Zn6   S    
C84   H70   S    
C37   O13   A    
C92   H88   S    
C88   H78   S    
C72   H44   S    
C76   C77   S    
C45   C49   S    
C70   H39   S    
C77   C78   S    
C94   O53   S    
O49   C90   S    
C97   H95   S    
C72   C73   S    
C57   H14   S    
C55   H9    S    
C23   O21   A    
C9    C11   S    
C8    C51   T    
C71   H41   S    
C66   H34   S    
C2    C52   S    
C44   O45   S    
C63   H27   S    
C86   O47   S    
C43   H3    S    
C15   C24   S    
C20   C22   S    
C90   H82   S    
C74   H50   S    
C90   H83   S    
C95   H92   S    
C84   H69   S    
O38   C72   S    
C91   H85   S    
C22   C24   S    
C59   H19   S    
C2    C5    S    
C1    C13   S    
C42   C43   D    
C32   O4    A    
O18   Zn1   S    
C99   O57   D    
C90   C91   S    
C57   H13   S    
C101  H103  S    
C96   H93   S    
C14   C21   S    
C88   C89   S    
C63   H26   S    
C60   O29   D    
C80   H60   S    
C68   O36   S    
O6    Zn4   S    
O51   H89   S    
C40   C41   D    
C28   O37   S    
O53   H90   S    
C92   H87   S    
C102  H104  S    
C77   H54   S    
C15   O28   S    
C14   C15   S    
C7    C50   T    
O3    Zn3   S    
C99   O58   S    
C45   C75   S    
O20   Zn1   S    
C89   H79   S    
O23   Zn2   S    
C12   C50   S    
C67   O33   D    
C44   C47   S    
O19   Zn2   S    
O9    Zn5   S    
C29   O38   S    
C91   C92   S    
C56   H12   S    
C31   O24   A    
C56   H11   S    
C28   C39   S    
C20   O32   S    
C101  H102  S    
O12   Zn2   S    
C81   H62   S    
C36   O9    A    
C53   O26   S    
C64   H28   S    
C89   H80   S    
O31   C61   S    
C34   O22   A    
C38   C46   S    
C94   O52   D    
C48   O49   S    
O4    Zn4   S    
O22   Zn1   S    
O30   H20   S    
C5    C6    S    
C58   H16   S    
O21   Zn2   S    
O13   Zn6   S    
C100  C101  S    
C65   H31   S    
C59   H18   S    
C54   H6    S    
C101  C102  S    
C76   H53   S    
C79   O43   S    
C65   H30   S    
C57   C58   S    
C102  H105  S    
C3    O54   S    
C70   H40   S    
C6    C49   S    
O28   C57   S    
C19   C25   S    
O1    Zn1   S    
C61   H22   S    
O17   Zn6   S    
C62   H24   S    
C96   C97   S    
C12   O19   A    
C82   H64   S    
C82   H66   S    
C52   H4    S    
O45   C83   S    
C14   H1    S    
C20   C21   S    
C53   O25   D    
C100  H101  S    
C56   H10   S    
C21   C24   S    
C27   C28   D    
C33   C48   S    
C10   C99   S    
C35   O7    A    
C17   C35   S    
C32   O3    A    
C60   O30   S    
O43   H59   S    
C59   H17   S    
O14   Zn5   S    
C83   H68   S    
C42   H2    S    
C78   H56   S    
C3    C4    S    
O47   H74   S    
C63   H25   S    
C64   H29   S    
C58   C59   S    
