data_mof_unit_11903.cif
_audit_creation_date              2013-03-05T16:12:25-0500
_audit_creation_method            fapswitch 2.2
_symmetry_space_group_name_H-M    P1
_symmetry_Int_Tables_number       1
_space_group_crystal_system       triclinic
_cell_length_a                    10.708379
_cell_length_b                    9.811034
_cell_length_c                    23.424614
_cell_angle_alpha                 90.170001
_cell_angle_beta                  89.988131
_cell_angle_gamma                 90.05905
_cell_volume                      2460.98409113

loop_
_atom_site_label
_atom_site_type_symbol
_atom_site_description
_atom_site_fract_x
_atom_site_fract_y
_atom_site_fract_z
_atom_type_partial_charge
O1    O     O_R   0.316770 0.614620 0.500000 -0.612424
O2    O     O_R   0.683230 0.385380 0.500000 -0.635687
O3    O     O_R   0.683230 0.614620 0.500000 -0.615583
O4    O     O_R   0.316770 0.385380 0.500000 -0.640148
C1    C     C_R   0.259795 0.499954 0.499865 0.905061
C2    C     C_R   0.740207 0.500056 0.500122 0.897897
O5    O     O_R   0.499970 0.614690 0.416160 -0.564121
O6    O     O_R   0.500030 0.385310 0.583840 -0.628079
O7    O     O_R   0.500030 0.614690 0.583840 -0.567266
O8    O     O_R   0.499970 0.385310 0.416160 -0.628141
C3    C     C_R   0.504245 0.499859 0.389196 0.965557
C4    C     C_R   0.496184 0.500282 0.610733 0.972703
Zn1   Zn    Zn3+2 0.500000 0.653120 0.500000 1.055341
Zn2   Zn    Zn3+2 0.500000 0.346880 0.500000 0.979450
C5    C     C_R   0.619515 0.481880 0.881303 0.623850
C6    C     C_R   0.389254 0.454253 0.118429 0.623040
N1    N     N_R   0.509361 0.477643 0.852169 -0.337939
N2    N     N_R   0.499082 0.465792 0.147504 -0.338631
C7    C     C_R   0.397610 0.456485 0.878929 0.624677
C8    C     C_R   0.612330 0.461865 0.120588 0.628401
C9    C     C_R   0.391413 0.453305 0.938873 -0.145605
C10   C     C_R   0.618618 0.456445 0.060622 -0.145298
C11   C     C_R   0.505255 0.458280 0.969719 -0.032993
C12   C     C_R   0.504700 0.453323 0.029796 -0.033475
C13   C     C_R   0.619892 0.469849 0.940599 -0.074824
C14   C     C_R   0.389825 0.447252 0.058984 -0.072507
C15   C     C_R   0.276779 0.443951 0.969034 0.318451
C16   C     C_R   0.733385 0.460216 0.030333 0.323453
C17   C     C_R   0.277684 0.439831 0.028479 -0.144581
C18   C     C_R   0.732352 0.470024 0.970999 -0.149441
O9    O     O_2   0.727954 0.499134 0.852790 -0.489461
O10   O     O_2   0.279862 0.453521 0.147111 -0.492821
O11   O     O_2   0.294097 0.437067 0.847126 -0.444531
O12   O     O_2   0.717479 0.466427 0.152207 -0.451459
H1    H     H_    0.189104 0.435483 0.050787 0.250316
H2    H     H_    0.820853 0.475482 0.948658 0.249303
C19   C     C_R   0.536387 0.605124 0.233907 0.365445
C20   C     C_R   0.457494 0.608137 0.765400 0.384307
C21   C     C_R   0.556074 0.607306 0.293675 0.251040
C22   C     C_R   0.437138 0.605595 0.705668 0.311636
C23   C     C_R   0.507828 0.497701 0.326685 -0.224154
C24   C     C_R   0.494021 0.499974 0.673111 -0.238365
C25   C     C_R   0.460037 0.381250 0.299617 -0.229896
C26   C     C_R   0.553120 0.390914 0.700377 -0.238615
H3    H     H_    0.424864 0.295594 0.323920 0.201036
H4    H     H_    0.595213 0.308652 0.676145 0.195032
C27   C     C_R   0.459198 0.371676 0.240959 -0.108044
C28   C     C_R   0.557185 0.384891 0.759083 -0.111831
H5    H     H_    0.427708 0.278329 0.220740 0.200801
H6    H     H_    0.598066 0.296827 0.779648 0.195465
C29   C     C_R   0.496078 0.482381 0.208039 0.114096
C30   C     C_R   0.510520 0.492266 0.791608 0.105254
C31   C     C_R   0.063813 0.378171 0.510308 -0.163366
C32   C     C_R   0.936199 0.622023 0.489984 -0.132004
C33   C     C_R   0.935966 0.378255 0.510438 -0.173648
C34   C     C_R   0.064046 0.621941 0.489863 -0.149838
H7    H     H_    0.112426 0.283439 0.518569 0.166516
H8    H     H_    0.887594 0.716767 0.481733 0.181901
H9    H     H_    0.887169 0.283566 0.518797 0.161717
H10   H     H_    0.112845 0.716648 0.481541 0.161114
C35   C     C_R   0.872594 0.500143 0.500205 -0.018010
C36   C     C_R   0.127413 0.499985 0.499979 -0.004335
C37   C     C_R   0.580668 0.072375 0.534053 -0.044591
C38   C     C_R   0.419187 0.927610 0.466025 0.015565
C39   C     C_R   0.419289 0.071715 0.465970 -0.045635
C40   C     C_R   0.580721 0.928266 0.534022 0.009335
H11   H     H_    0.645019 0.127456 0.561259 0.126373
H12   H     H_    0.354770 0.872513 0.438861 0.131416
H13   H     H_    0.354939 0.126266 0.438767 0.131656
H14   H     H_    0.645079 0.873693 0.561210 0.131953
N3    N     N_R   0.500000 0.857200 0.500000 -0.081807
N4    N     N_R   0.500000 0.142800 0.500000 -0.090663
N5    N     N_R   0.157994 0.446550 0.940854 0.256986
O13   O     O_R   0.122145 0.557119 0.915099 -0.258908
O14   O     O_R   0.075737 0.352688 0.952075 -0.326377
N6    N     N_R   0.852086 0.453170 0.058433 0.260591
O15   O     O_R   0.884731 0.341142 0.083978 -0.284243
O16   O     O_R   0.936718 0.544899 0.047813 -0.313252
S1    S     S_3+6 0.550637 0.754796 0.191263 0.096659
O17   O     O_2   0.456485 0.751294 0.143693 -0.290638
O18   O     O_2   0.527970 0.880637 0.226487 -0.206092
O19   O     O_3   0.694565 0.761935 0.162702 -0.482218
H15   H     H_    0.693025 0.842034 0.137077 0.400222
S2    S     S_3+6 0.426291 0.755654 0.807777 0.108008
O20   O     O_2   0.517801 0.764825 0.856289 -0.297962
O21   O     O_2   0.437431 0.883062 0.772676 -0.221769
O22   O     O_3   0.281194 0.744609 0.834817 -0.434171
H16   H     H_    0.273158 0.824288 0.860615 0.397190
S3    S     S_3+6 0.655379 0.733015 0.325420 0.099953
O23   O     O_2   0.576771 0.847855 0.348069 -0.235793
O24   O     O_2   0.728512 0.672443 0.373875 -0.329665
O25   O     O_3   0.758379 0.796068 0.278204 -0.424805
H17   H     H_    0.814156 0.718607 0.268894 0.382444
S4    S     S_3+6 0.328940 0.720136 0.673039 0.093292
O26   O     O_2   0.398953 0.841145 0.650191 -0.280584
O27   O     O_2   0.262032 0.650100 0.624769 -0.319499
O28   O     O_3   0.220219 0.773773 0.719722 -0.434895
H18   H     H_    0.171273 0.843155 0.698789 0.386188

loop_
_geom_bond_atom_site_label_1
_geom_bond_atom_site_label_2
_geom_bond_distance
_ccdc_geom_bond_type
O22   H16   0.990462 S    
C33   H9    1.083728 S    
C15   C17   1.393204 A    
N5    O14   1.301013 A    
N5    O13   1.301144 A    
S2    O22   1.681278 S    
O3    C2    1.279475 A    
O28   H18   0.990621 S    
C27   H5    1.083349 S    
O5    C3    1.290794 A    
C19   S1    1.784830 S    
O1    C1    1.279220 A    
C38   H12   1.081793 S    
C2    C35   1.417647 S    
C7    C9    1.406153 A    
C12   C14   1.408526 A    
C19   C29   1.413634 A    
C5    C13   1.394343 A    
C20   C30   1.413246 A    
C38   N3    1.365373 A    
O7    Zn1   2.000883 S    
C4    C24   1.461388 S    
C11   C12   1.408278 A    
S3    O24   1.503351 D    
O3    Zn1   1.998505 S    
C34   C36   1.397019 A    
C8    O12   1.348494 S    
C28   H6    1.083294 S    
C9    C15   1.419236 A    
C37   C40   1.413856 A    
C10   C16   1.419439 A    
C23   C25   1.401388 A    
O2    C2    1.279326 A    
C24   C26   1.399612 A    
N1    C30   1.426332 S    
C26   H4    1.083816 S    
N2    C29   1.427199 S    
C32   C34   1.369032 A    
C31   C33   1.369042 A    
C6    C14   1.393992 A    
C37   H11   1.081839 S    
S2    O20   1.503121 D    
C21   C23   1.422945 A    
O8    Zn2   2.000885 S    
C22   S4    1.788183 S    
S1    O18   1.502832 D    
C31   H7    1.083678 S    
C27   C29   1.390776 A    
Zn1   N3    2.002236 S    
S4    O28   1.680904 S    
C34   H10   1.083724 S    
C31   C36   1.396659 A    
C40   N3    1.365350 A    
O5    Zn1   1.998688 S    
O6    C4    1.291036 A    
N6    O15   1.301189 A    
S3    O25   1.680667 S    
S4    O27   1.502888 D    
C25   H3    1.083642 S    
C8    C10   1.407134 A    
C9    C11   1.417967 A    
C7    O11   1.348706 S    
C10   C12   1.417947 A    
O1    Zn1   1.997741 S    
C16   N6    1.433357 S    
C32   H8    1.083700 S    
C13   C18   1.399171 A    
C5    N1    1.363425 A    
O6    Zn2   1.998686 S    
C20   S2    1.784390 S    
Zn2   N4    2.002236 S    
N6    O16   1.301032 A    
O4    C1    1.279556 A    
S1    O19   1.681531 S    
C5    O9    1.350214 S    
C32   C35   1.396802 A    
C6    O10   1.350311 S    
C39   N4    1.365489 A    
C17   H1    1.083739 S    
C18   H2    1.083851 S    
C38   C39   1.413821 A    
C16   C18   1.393554 A    
C19   C21   1.415974 A    
C20   C22   1.416257 A    
C40   H14   1.081763 S    
C39   H13   1.081806 S    
C33   C35   1.396945 A    
C22   C24   1.422279 A    
O25   H17   0.990831 S    
N1    C7    1.366754 A    
C1    C36   1.417605 S    
C3    C23   1.464900 S    
N2    C8    1.367234 A    
C11   C13   1.408886 A    
O4    Zn2   1.998506 S    
S4    O26   1.503267 D    
O2    Zn2   1.997740 S    
O7    C4    1.289391 A    
O8    C3    1.291566 A    
S1    O17   1.503164 D    
C28   C30   1.391440 A    
C37   N4    1.365529 A    
C14   C17   1.399219 A    
C6    N2    1.363607 A    
O19   H15   0.990443 S    
S2    O21   1.502856 D    
S3    O23   1.502581 D    
C15   N5    1.433493 S    
C25   C27   1.376988 A    
C21   S3    1.788034 S    
C26   C28   1.377318 A    
