data_mof_unit_12137.cif
_audit_creation_date              2012-10-26T19:45:52-0400
_audit_creation_method            fapswitch 2.2
_symmetry_space_group_name_H-M    P1
_symmetry_Int_Tables_number       1
_space_group_crystal_system       triclinic
_cell_length_a                    10.819451
_cell_length_b                    9.586522
_cell_length_c                    15.892241
_cell_angle_alpha                 87.685648
_cell_angle_beta                  91.263842
_cell_angle_gamma                 89.973984
_cell_volume                      1646.61090805

loop_
_atom_site_label
_atom_site_type_symbol
_atom_type_description
_atom_site_fract_x
_atom_site_fract_y
_atom_site_fract_z
_atom_type_partial_charge
C1    C     C_R   0.262275 0.500045 0.501049 0.543772
C2    C     C_R   0.935092 0.622799 0.479948 -0.143380
C3    C     C_R   0.871528 0.500052 0.502013 0.021193
C4    C     C_R   0.128277 0.500507 0.503065 0.014396
C5    C     C_R   0.421689 0.078407 0.446869 0.278682
C6    C     C_R   0.422569 0.928553 0.446507 0.258553
C7    C     C_R   0.501244 0.502715 0.340180 0.542569
C8    C     C_R   0.577067 0.922435 0.552906 -0.027535
C9    C     C_R   0.576955 0.070554 0.552983 -0.031588
C10   C     C_R   0.737666 0.499938 0.500602 0.538268
C11   C     C_R   0.500752 0.497142 0.659748 0.543432
C12   C     C_3   0.644944 0.542478 0.945555 -0.184735
C13   C     C_3   0.432450 0.611568 0.041758 0.080505
C14   C     C_3   0.483410 0.357525 0.056157 0.100804
C15   C     C_3   0.495996 0.342898 0.959600 -0.192661
C16   C     C_3   0.416493 0.589115 0.946133 -0.235331
C17   C     C_1   0.504985 0.489442 0.749491 -0.023429
C18   C     C_3   0.531026 0.506017 0.083213 0.089212
C19   C     C_3   0.516514 0.488381 0.917202 -0.046758
C20   C     C_3   0.762244 0.706186 0.150934 -0.217616
C21   C     C_3   0.807875 0.394530 0.148819 -0.223545
C22   C     C_3   0.213188 0.148380 0.396984 -0.304433
C23   C     C_3   0.665688 0.534673 0.045009 0.294360
C24   C     C_3   0.370310 0.864765 0.303479 -0.211558
C25   C     C_1   0.509864 0.484717 0.825081 -0.065594
C26   C     C_1   0.521604 0.511238 0.175296 0.013289
C27   C     C_1   0.510696 0.509271 0.250603 -0.014517
C28   C     C_R   0.064698 0.378816 0.527519 -0.151739
C29   C     C_R   0.062914 0.622914 0.480476 -0.137512
C30   C     C_R   0.936655 0.378115 0.526208 -0.139002
Cu1   Cu    Cu3+1 0.500020 0.640660 0.500000 0.963305
Cu2   Cu    Cu3+1 0.500020 0.359340 0.500000 0.979530
H1    H     H_    0.323325 0.544435 0.933093 0.090961
H2    H     H_    0.717784 0.484994 0.912793 0.090938
H3    H     H_    0.113779 0.284639 0.547962 0.124989
H4    H     H_    0.110101 0.718308 0.462423 0.119882
H5    H     H_    0.888844 0.282935 0.544904 0.124644
H6    H     H_    0.886213 0.718147 0.461289 0.128489
H7    H     H_    0.359224 0.144395 0.162572 0.309140
H8    H     H_    0.296737 0.872911 0.986884 0.330618
H9    H     H_    0.783690 0.708004 0.023439 0.242342
H10   H     H_    0.758000 0.821430 0.154918 0.206872
H11   H     H_    0.860111 0.675836 0.162721 0.096893
H12   H     H_    0.410886 0.294003 0.933455 0.125260
H13   H     H_    0.704474 0.661619 0.201133 0.153169
H14   H     H_    0.814600 0.396258 0.020081 0.235420
H15   H     H_    0.826823 0.281293 0.159213 0.194559
H16   H     H_    0.747690 0.427074 0.199553 0.174300
H17   H     H_    0.898205 0.448722 0.152864 0.098304
H18   H     H_    0.375491 0.159409 0.327022 0.256698
H19   H     H_    0.172177 0.082148 0.348007 0.108196
H20   H     H_    0.172548 0.254100 0.387218 0.166298
H21   H     H_    0.188215 0.105300 0.460327 0.132544
H22   H     H_    0.249182 0.868882 0.403555 0.219585
H23   H     H_    0.639269 0.864279 0.595451 0.123477
H24   H     H_    0.314418 0.947269 0.269839 0.141565
H25   H     H_    0.346536 0.764046 0.275205 0.179958
H26   H     H_    0.470220 0.886370 0.294567 0.209483
H27   H     H_    0.639065 0.123101 0.595526 0.116165
H28   H     H_    0.341450 0.587765 0.070552 0.091327
H29   H     H_    0.382271 0.354933 0.067860 0.070368
H30   H     H_    0.574998 0.274655 0.944926 0.192035
H31   H     H_    0.420363 0.689275 0.908382 0.167131
H32   H     H_    0.652987 0.651929 0.920036 0.154581
N1    N     N_R   0.500030 0.852070 0.500020 -0.219899
N2    N     N_R   0.500030 0.147930 0.500020 -0.220053
N3    N     N_2   0.721666 0.669433 0.066994 -0.428702
N4    N     N_2   0.751999 0.418311 0.065700 -0.465381
N5    N     N_2   0.345927 0.157473 0.388245 -0.457752
N6    N     N_2   0.341529 0.856505 0.391903 -0.489937
O1    O     O_R   0.319660 0.618740 0.500000 -0.483224
O2    O     O_2   0.586093 0.231063 0.202256 -0.326891
O3    O     O_3   0.416294 0.095912 0.125562 -0.409823
O4    O     O_2   0.504442 0.814536 0.146855 -0.248864
O5    O     O_2   0.542347 0.859860 0.997249 -0.244381
O6    O     O_3   0.316385 0.872586 0.048053 -0.490201
O7    O     O_R   0.319660 0.381260 0.500000 -0.485184
O8    O     O_R   0.500020 0.618840 0.379440 -0.484027
O9    O     O_R   0.500020 0.381160 0.379440 -0.453195
O10   O     O_R   0.680370 0.618830 0.500010 -0.513355
O11   O     O_R   0.680370 0.381170 0.500010 -0.509000
O12   O     O_R   0.500010 0.618730 0.620560 -0.499036
O13   O     O_R   0.500010 0.381270 0.620560 -0.502011
O14   O     O_2   0.637447 0.129502 0.069149 -0.209700
S1    S     S_3+6 0.538162 0.202669 0.115269 0.022475
S2    S     S_3+6 0.455066 0.793927 0.059484 0.031010

loop_
_geom_bond_atom_site_label_1
_geom_bond_atom_site_label_2
_ccdc_geom_bond_type
C1    O7    A    
C14   C18   S    
C20   N3    S    
C18   C26   S    
C21   H17   S    
O2    S1    D    
C24   N6    S    
Cu1   O10   S    
H9    N3    S    
C13   H28   S    
C15   C19   S    
Cu2   O11   S    
C29   H4    S    
C26   C27   T    
C1    O1    A    
Cu1   O12   S    
C13   C18   S    
C2    C29   A    
Cu2   N2    S    
H18   N5    S    
C15   H12   S    
C5    C6    A    
C12   H32   S    
C7    C27   S    
C6    N6    S    
C23   N3    S    
C9    N2    A    
C5    N5    S    
Cu2   O7    S    
C6    N1    A    
C28   H3    S    
C8    C9    A    
H22   N6    S    
C13   S2    S    
C16   H31   S    
C22   N5    S    
C4    C29   A    
C21   H16   S    
Cu1   O1    S    
C8    N1    A    
C8    H23   S    
C4    C28   A    
C22   H21   S    
C11   O12   A    
C18   C23   S    
O14   S1    D    
C10   O10   A    
C24   H25   S    
C11   O13   A    
C14   H29   S    
H8    O6    S    
C30   H5    S    
C9    H27   S    
C23   N4    S    
C3    C30   A    
H14   N4    S    
C16   H1    S    
C2    H6    S    
O5    S2    D    
Cu1   Cu2   S    
C12   C23   S    
O4    S2    D    
O3    S1    S    
C7    O8    A    
C21   N4    S    
C12   H2    S    
O6    S2    S    
C20   H11   S    
Cu1   O8    S    
C7    O9    A    
Cu1   N1    S    
Cu2   O13   S    
C11   C17   S    
C20   H13   S    
C14   S1    S    
C5    N2    A    
C20   H10   S    
C24   H24   S    
C10   O11   A    
C1    C4    S    
C17   C25   T    
C28   C30   A    
C2    C3    A    
C3    C10   S    
Cu2   O9    S    
C16   C19   S    
C12   C19   S    
C15   H30   S    
C22   H20   S    
H7    O3    S    
C19   C25   S    
C24   H26   S    
C13   C16   S    
C14   C15   S    
C22   H19   S    
C21   H15   S    
