data_mof_unit_7959.cif
_audit_creation_date              2012-12-10T20:41:49-0500
_audit_creation_method            fapswitch 2.2
_symmetry_space_group_name_H-M    P1
_symmetry_Int_Tables_number       1
_space_group_crystal_system       triclinic
_cell_length_a                    15.203024
_cell_length_b                    15.058673
_cell_length_c                    9.908685
_cell_angle_alpha                 91.077626
_cell_angle_beta                  89.569155
_cell_angle_gamma                 90.216365
_cell_volume                      2267.98792347

loop_
_atom_site_label
_atom_site_type_symbol
_atom_type_description
_atom_site_fract_x
_atom_site_fract_y
_atom_site_fract_z
_atom_type_partial_charge
C1    C     C_R   0.384587 0.875731 0.499293 0.932405
C2    C     C_R   0.380403 0.120373 0.500628 0.948940
C3    C     C_R   0.884587 0.375731 0.499293 0.932405
C4    C     C_R   0.880403 0.620373 0.500628 0.948940
C5    C     C_3   0.365930 0.304680 0.673035 -0.552198
C6    C     C_3   0.235629 0.844204 0.711392 -0.464263
C7    C     C_3   0.865930 0.804680 0.673036 -0.552198
C8    C     C_3   0.735629 0.344203 0.711392 -0.464262
C9    C     C_R   0.423978 0.984523 0.072233 0.124513
C10   C     C_R   0.923978 0.484522 0.072233 0.124513
C11   C     C_R   0.576153 0.006720 0.071813 -0.277489
C12   C     C_R   0.076153 0.506721 0.071813 -0.277489
C13   C     C_R   0.576764 0.009149 0.926514 0.568184
C14   C     C_R   0.076764 0.509149 0.926514 0.568184
C15   C     C_R   0.423666 0.989568 0.930215 0.023296
C16   C     C_R   0.923666 0.489567 0.930216 0.023296
C17   C     C_3   0.346670 0.052263 0.938460 0.944817
C18   C     C_3   0.846669 0.552262 0.938460 0.944817
C19   C     C_3   0.341332 0.036235 0.089461 -0.552383
C20   C     C_3   0.841331 0.536234 0.089461 -0.552381
C21   C     C_R   0.622464 0.117154 0.500224 0.930256
C22   C     C_R   0.617604 0.878406 0.498701 0.865245
C23   C     C_R   0.122464 0.617154 0.500224 0.930256
C24   C     C_R   0.117604 0.378406 0.498701 0.865245
C25   C     C_R   0.331968 0.272594 0.540080 -0.025712
C26   C     C_R   0.284220 0.781131 0.619332 -0.030051
C27   C     C_R   0.831968 0.772594 0.540080 -0.025712
C28   C     C_R   0.784221 0.281130 0.619333 -0.030051
C29   C     C_R   0.312956 0.185569 0.498296 -0.094860
C30   C     C_R   0.330275 0.798289 0.500609 -0.142532
C31   C     C_R   0.812956 0.685569 0.498296 -0.094860
C32   C     C_R   0.830275 0.298289 0.500609 -0.142533
C33   C     C_R   0.231636 0.165226 0.437392 0.223559
C34   C     C_R   0.322142 0.739260 0.388501 0.265635
C35   C     C_R   0.731636 0.665226 0.437391 0.223559
C36   C     C_R   0.822142 0.239260 0.388501 0.265635
C37   C     C_R   0.667526 0.730600 0.432238 -0.231280
C38   C     C_R   0.755153 0.176016 0.390083 -0.272211
C39   C     C_R   0.167526 0.230600 0.432239 -0.231281
C40   C     C_R   0.255153 0.676016 0.390083 -0.272211
C41   C     C_R   0.683395 0.812910 0.494532 -0.072691
C42   C     C_R   0.698481 0.172093 0.502031 -0.127134
C43   C     C_R   0.183395 0.312910 0.494532 -0.072691
C44   C     C_R   0.198481 0.672093 0.502031 -0.127134
C45   C     C_R   0.765270 0.833866 0.545888 0.002986
C46   C     C_R   0.718023 0.219679 0.618911 0.018743
C47   C     C_R   0.265270 0.333867 0.545888 0.002986
C48   C     C_R   0.218023 0.719680 0.618911 0.018743
C49   C     C_3   0.788524 0.867358 0.683826 0.391937
C50   C     C_3   0.660278 0.277158 0.706707 0.372851
C51   C     C_3   0.288524 0.367359 0.683826 0.391936
C52   C     C_3   0.160278 0.777159 0.706706 0.372851
H1    H     H_    0.346936 0.097188 0.153246 0.223815
H2    H     H_    0.285960 0.992003 0.118563 0.235189
H3    H     H_    0.846935 0.597187 0.153247 0.223816
H4    H     H_    0.785960 0.492002 0.118562 0.235188
H5    H     H_    0.603866 0.715468 0.388774 0.199401
H6    H     H_    0.744838 0.133529 0.302086 0.182603
H7    H     H_    0.103866 0.215467 0.388775 0.199401
H8    H     H_    0.244838 0.633529 0.302086 0.182602
H9    H     H_    0.805106 0.939458 0.686698 0.091495
H10   H     H_    0.647688 0.247049 0.806253 0.093231
H11   H     H_    0.305106 0.439459 0.686696 0.091494
H12   H     H_    0.147687 0.747049 0.806252 0.093231
H13   H     H_    0.428309 0.341790 0.665006 0.223011
H14   H     H_    0.267157 0.848052 0.812172 0.215806
H15   H     H_    0.928309 0.841789 0.665008 0.223011
H16   H     H_    0.767157 0.348051 0.812172 0.215806
H17   H     H_    0.365349 0.251875 0.746436 0.291353
H18   H     H_    0.224063 0.909785 0.665822 0.241334
H19   H     H_    0.865348 0.751875 0.746436 0.291353
H20   H     H_    0.724064 0.409785 0.665823 0.241334
H21   H     H_    0.636499 0.012090 0.128275 0.157603
H22   H     H_    0.136499 0.512091 0.128275 0.157603
N1    N     N_R   0.499140 1.000000 0.142800 -0.106684
N2    N     N_R   0.999140 0.500000 0.142800 -0.106684
N3    N     N_R   0.499160 0.000000 0.857150 -0.160117
N4    N     N_R   0.999160 0.500000 0.857150 -0.160117
O1    O     O_R   0.408400 0.908380 0.614690 -0.612631
O2    O     O_R   0.408400 0.091620 0.614690 -0.573722
O3    O     O_R   0.908400 0.408380 0.614690 -0.612631
O4    O     O_R   0.908400 0.591620 0.614690 -0.573722
O5    O     O_R   0.408370 0.908370 0.385350 -0.555973
O6    O     O_R   0.408370 0.091630 0.385350 -0.619617
O7    O     O_R   0.908370 0.408370 0.385350 -0.555974
O8    O     O_R   0.908370 0.591630 0.385350 -0.619618
O9    O     O_R   0.591610 0.091610 0.614650 -0.576909
O10   O     O_R   0.591610 0.908390 0.614650 -0.546991
O11   O     O_R   0.091610 0.591610 0.614650 -0.576909
O12   O     O_R   0.091610 0.408390 0.614650 -0.546992
O13   O     O_R   0.591590 0.091600 0.385310 -0.645822
O14   O     O_R   0.591590 0.908400 0.385310 -0.625220
O15   O     O_R   0.091590 0.591600 0.385310 -0.645822
O16   O     O_R   0.091590 0.408400 0.385310 -0.625219
Zn1   Zn    Zn3+2 0.500010 0.000000 0.653130 1.050402
Zn2   Zn    Zn3+2 0.000010 0.500000 0.653130 1.050402
Zn3   Zn    Zn3+2 0.499980 0.000000 0.346870 0.982325
Zn4   Zn    Zn3+2 0.999980 0.500000 0.346870 0.982325
Br1   Br    Br    0.201330 0.047521 0.376322 -0.621738
Br2   Br    Br    0.395794 0.742756 0.230009 -0.541193
Br3   Br    Br    0.701330 0.547521 0.376321 -0.621739
Br4   Br    Br    0.895793 0.242756 0.230009 -0.541193
O17   O     O_3   0.724546 0.840933 0.779925 -0.540357
C53   C     C_3   0.756884 0.851277 0.912663 -0.209625
H23   H     H_    0.810490 0.901540 0.923208 0.128884
H24   H     H_    0.779962 0.786467 0.948899 0.194099
H25   H     H_    0.702003 0.871538 0.980439 0.189694
O18   O     O_3   0.579809 0.301518 0.644688 -0.626271
C54   C     C_3   0.587978 0.359160 0.533976 -0.275836
H26   H     H_    0.645697 0.344959 0.468074 0.199884
H27   H     H_    0.589097 0.429217 0.570794 0.200822
H28   H     H_    0.528984 0.350877 0.469727 0.183395
O19   O     O_3   0.224547 0.340933 0.779925 -0.540357
C55   C     C_3   0.256885 0.351278 0.912663 -0.209625
H29   H     H_    0.310491 0.401542 0.923207 0.128884
H30   H     H_    0.279963 0.286469 0.948899 0.194099
H31   H     H_    0.202005 0.371539 0.980439 0.189694
O20   O     O_3   0.079808 0.801518 0.644688 -0.626271
C56   C     C_3   0.087978 0.859160 0.533976 -0.275836
H32   H     H_    0.145697 0.844959 0.468073 0.199884
H33   H     H_    0.089097 0.929217 0.570794 0.200823
H34   H     H_    0.028984 0.850877 0.469727 0.183395
O21   O     O_3   0.653554 0.020051 0.851480 -0.558483
C57   C     C_3   0.713391 0.079108 0.915098 -0.366882
H35   H     H_    0.760334 0.103496 0.837943 0.198797
H36   H     H_    0.680167 0.137993 0.961718 0.148252
H37   H     H_    0.752560 0.044325 0.991809 0.166481
O22   O     O_3   0.153554 0.520051 0.851481 -0.558483
C58   C     C_3   0.213391 0.579109 0.915098 -0.366881
H38   H     H_    0.260334 0.603497 0.837943 0.198797
H39   H     H_    0.180167 0.637993 0.961718 0.148252
H40   H     H_    0.252559 0.544326 0.991809 0.166481
O23   O     O_3   0.364139 0.142281 0.903229 -0.641217
C59   C     C_3   0.443323 0.180661 0.953049 -0.441418
H41   H     H_    0.497232 0.170511 0.878496 0.215905
H42   H     H_    0.463129 0.158316 0.053877 0.167645
H43   H     H_    0.434235 0.253457 0.963513 0.191875
O24   O     O_3   0.274191 0.016006 0.867324 -0.651215
C60   C     C_3   0.200908 0.073278 0.875615 -0.218653
H44   H     H_    0.142184 0.036452 0.838886 0.173353
H45   H     H_    0.210649 0.131192 0.809065 0.224961
H46   H     H_    0.186865 0.096077 0.981062 0.174401
O25   O     O_3   0.864138 0.642280 0.903230 -0.641218
C61   C     C_3   0.943322 0.680660 0.953050 -0.441418
H47   H     H_    0.997231 0.670511 0.878497 0.215904
H48   H     H_    0.963128 0.658316 0.053878 0.167645
H49   H     H_    0.934234 0.753457 0.963514 0.191875
O26   O     O_3   0.774191 0.516005 0.867323 -0.651216
C62   C     C_3   0.700908 0.573277 0.875614 -0.218655
H50   H     H_    0.710649 0.631192 0.809068 0.224961
H51   H     H_    0.686863 0.596074 0.981062 0.174402
H52   H     H_    0.642185 0.536452 0.838882 0.173354

loop_
_geom_bond_atom_site_label_1
_geom_bond_atom_site_label_2
_ccdc_geom_bond_type
C21   O9    A    
C6    H18   S    
C37   C41   A    
C40   H8    S    
C12   H22   S    
C3    O7    A    
C60   H45   S    
C2    O6    A    
C20   H4    S    
O22   C58   S    
C59   H43   S    
C53   H24   S    
C55   H29   S    
C7    C27   S    
O21   C57   S    
C6    C26   S    
C28   C46   A    
C51   O19   S    
C2    C29   S    
C34   C40   A    
O6    Zn3   S    
C32   C36   A    
C18   O25   S    
C35   C37   A    
C38   C42   A    
C48   C52   S    
C18   O26   S    
C62   H51   S    
C7    H19   S    
C13   O21   S    
C60   H46   S    
C22   C41   S    
C4    O8    A    
O16   Zn4   S    
N2    Zn4   S    
O25   C61   S    
C29   C33   A    
N1    Zn3   S    
C14   O22   S    
O18   C54   S    
C36   Br4   S    
C42   C46   A    
O20   C56   S    
C5    H17   S    
O7    Zn4   S    
C38   H6    S    
C10   N2    A    
C9    C19   S    
C10   C20   S    
O9    Zn1   S    
C3    O3    A    
C34   Br2   S    
C23   O11   A    
C17   O24   S    
C22   O10   A    
C25   C47   A    
C18   C20   S    
C26   C48   A    
C58   H40   S    
C27   C45   A    
O10   Zn1   S    
C50   O18   S    
C61   H49   S    
C20   H3    S    
C53   H23   S    
O14   Zn3   S    
C56   H33   S    
C25   C29   A    
C13   N3    A    
C8    H20   S    
C49   H9    S    
C30   C34   A    
C27   C31   A    
C55   H31   S    
C28   C32   A    
O4    Zn2   S    
O26   C62   S    
C7    C49   S    
C61   H48   S    
C52   H12   S    
C62   H52   S    
N4    Zn2   S    
O3    Zn2   S    
C47   C51   S    
N3    Zn1   S    
C23   C44   S    
C23   O15   A    
C33   Br1   S    
O1    Zn1   S    
C24   O16   A    
C55   H30   S    
C6    H14   S    
C56   H32   S    
C39   H7    S    
C45   C49   S    
C51   H11   S    
C33   C39   A    
O13   Zn3   S    
O2    Zn1   S    
C57   H37   S    
C5    C25   S    
C19   H2    S    
C5    H13   S    
C12   C14   A    
C8    H16   S    
C12   N2    A    
C17   O23   S    
O23   C59   S    
C50   H10   S    
C31   C35   A    
C54   H28   S    
C8    C50   S    
C57   H36   S    
O19   C55   S    
C21   O13   A    
C56   H34   S    
C15   C17   S    
C22   O14   A    
C61   H47   S    
C35   Br3   S    
C24   O12   A    
C49   O17   S    
C59   H42   S    
C60   H44   S    
O12   Zn2   S    
C59   H41   S    
C1    O5    A    
C46   C50   S    
O11   Zn2   S    
C54   H27   S    
C58   H38   S    
C10   C16   A    
C62   H50   S    
C11   C13   A    
C19   H1    S    
C15   N3    A    
C1    O1    A    
C36   C38   A    
C1    C30   S    
C17   C19   S    
C16   N4    A    
C14   N4    A    
C9    C15   A    
C3    C32   S    
O8    Zn4   S    
C11   H21   S    
C4    C31   S    
C2    O2    A    
O24   C60   S    
C7    H15   S    
C21   C42   S    
C40   C44   A    
C4    O4    A    
C39   C43   A    
C8    C28   S    
C16   C18   S    
O5    Zn3   S    
O17   C53   S    
C24   C43   S    
C41   C45   A    
C5    C51   S    
C11   N1    A    
C9    N1    A    
C6    C52   S    
C54   H26   S    
C43   C47   A    
O15   Zn4   S    
C53   H25   S    
C37   H5    S    
C44   C48   A    
C57   H35   S    
C58   H39   S    
C26   C30   A    
C52   O20   S    
