data_mof_unit_34406.cif
_audit_creation_date              2012-12-11T15:57:47-0500
_audit_creation_method            fapswitch 2.2
_symmetry_space_group_name_H-M    P1
_symmetry_Int_Tables_number       1
_space_group_crystal_system       triclinic
_cell_length_a                    10.751519
_cell_length_b                    10.745232
_cell_length_c                    17.043109
_cell_angle_alpha                 99.781202
_cell_angle_beta                  100.100993
_cell_angle_gamma                 60.859603
_cell_volume                      1684.89035836

loop_
_atom_site_label
_atom_site_type_symbol
_atom_type_description
_atom_site_fract_x
_atom_site_fract_y
_atom_site_fract_z
_atom_type_partial_charge
C1    C     C_R   0.354638 0.774292 0.400946 0.549232
C2    C     C_2   0.833043 0.327849 0.159365 -0.088517
C3    C     C_2   0.874476 0.212309 0.197691 -0.116913
C4    C     C_2   0.837644 0.227234 0.277905 0.091000
C5    C     C_2   0.330280 0.846258 0.330652 -0.106882
C6    C     C_2   0.343978 0.826942 0.159131 -0.113153
C7    C     C_2   0.425858 0.864754 0.216223 -0.166381
C8    C     C_2   0.441576 0.834862 0.298817 -0.156187
C9    C     C_2   0.301099 0.297316 0.626117 -0.126087
C10   C     C_2   0.279287 0.277980 0.798412 0.085852
C11   C     C_2   0.363988 0.169153 0.746795 -0.055664
C12   C     C_R   0.397475 0.367706 0.353528 0.555714
C13   C     C_2   0.390625 0.190510 0.670631 -0.151425
C14   C     C_1   0.767768 0.368682 0.714609 -0.030314
C15   C     C_1   0.813061 0.329460 0.780477 -0.030439
C16   C     C_1   0.339654 0.806984 0.709522 -0.021730
C17   C     C_1   0.313116 0.834948 0.777417 -0.020115
C18   C     C_R   0.894500 0.307971 0.086618 0.548892
C19   C     C_R   0.296416 0.267611 0.124033 0.557655
C20   C     C_R   0.294235 0.892009 0.084297 0.550600
C21   C     C_R   0.879599 0.300112 0.859811 0.543223
C22   C     C_R   0.275749 0.251436 0.878412 0.599902
C23   C     C_R   0.776836 0.375931 0.404879 0.572341
C24   C     C_R   0.278754 0.883748 0.856873 0.547793
C25   C     C_R   0.358847 0.768113 0.627552 0.548651
C26   C     C_R   0.362406 0.340532 0.574032 0.554562
C27   C     C_R   0.717360 0.412310 0.635599 0.556096
C28   C     C_1   0.353262 0.341043 0.272986 -0.032051
C29   C     C_1   0.323134 0.310692 0.204728 -0.032614
C30   C     C_2   0.856214 0.323180 0.334880 0.122759
Cr1   Cr    Cr6+3 0.608020 0.610770 0.522990 1.027123
Cr2   Cr    Cr6+3 0.289390 0.599570 0.488050 1.029014
Cr3   Cr    Cr6+3 0.602610 0.289690 0.489020 1.042502
Cr4   Cr    Cr6+3 0.053780 0.052210 0.965970 1.040165
Cr5   Cr    Cr6+3 0.060060 0.372530 0.992430 1.056324
Cr6   Cr    Cr6+3 0.372600 0.061970 0.991430 1.040126
H1    H     H_    0.935392 0.104080 0.170206 0.147303
H2    H     H_    0.499896 0.121477 0.655808 0.168172
H3    H     H_    0.188406 0.360868 0.632550 0.111857
H4    H     H_    0.770057 0.435682 0.186694 0.117152
H5    H     H_    0.478145 0.922587 0.203330 0.159836
H6    H     H_    0.547491 0.796453 0.331825 0.159647
H7    H     H_    0.294533 0.766683 0.172528 0.114027
H8    H     H_    0.223846 0.889619 0.297943 0.112509
O1    O     O_R   0.749250 0.499990 0.439200 -0.527701
O2    O     O_R   0.299400 0.468710 0.556310 -0.495907
O3    O     O_R   0.489240 0.256450 0.560730 -0.518906
O4    O     O_R   0.723350 0.306730 0.584410 -0.492986
O5    O     O_3   0.500010 0.500010 0.500020 -0.289988
O6    O     O_R   0.170650 0.915100 0.051290 -0.508862
O7    O     O_R   0.941960 0.184500 0.049060 -0.500248
O8    O     O_R   0.922640 0.402670 0.071640 -0.509905
O9    O     O_R   0.196880 0.368740 0.083740 -0.483472
O10   O     O_R   0.411120 0.181190 0.091480 -0.511075
O11   O     O_R   0.364220 0.944920 0.062310 -0.509371
O12   O     O_R   0.477870 0.725740 0.440280 -0.497545
O13   O     O_R   0.158740 0.906940 0.874970 -0.494171
O14   O     O_R   0.930920 0.176940 0.885610 -0.489164
O15   O     O_R   0.910730 0.394510 0.895320 -0.507541
O16   O     O_R   0.185840 0.361180 0.920280 -0.452116
O17   O     O_R   0.399210 0.173040 0.915160 -0.497534
O18   O     O_R   0.353170 0.937370 0.898860 -0.502392
O19   O     O_3   0.162150 0.162240 0.983280 -0.307109
O20   O     O_R   0.260770 0.742210 0.412610 -0.512513
O21   O     O_R   0.297990 0.466320 0.394220 -0.495933
O22   O     O_R   0.487720 0.253870 0.385870 -0.498503
O23   O     O_R   0.721940 0.304340 0.422320 -0.468095
O24   O     O_R   0.750770 0.502570 0.614050 -0.498057
O25   O     O_R   0.479280 0.728140 0.602370 -0.497589
O26   O     O_R   0.262290 0.744790 0.587460 -0.506335
N1    N     N_3   0.195086 0.424683 0.780608 -0.610807
H9    H     H_    0.256227 0.460408 0.759097 0.244223
H10   H     H_    0.102186 0.438650 0.743198 0.237739
N2    N     N_3   0.775592 0.142349 0.292331 -0.590974
H11   H     H_    0.684298 0.164625 0.251480 0.235695
H12   H     H_    0.849082 0.034483 0.280473 0.222438
N3    N     N_3   0.941975 0.386261 0.322957 -0.646993
H13   H     H_    0.019820 0.369243 0.372120 0.240810
H14   H     H_    0.876602 0.496756 0.322134 0.234706
C31   C     C_1   0.467082 0.029102 0.772273 0.212501
N4    N     N_1   0.552676 0.918347 0.792258 -0.267875

loop_
_geom_bond_atom_site_label_1
_geom_bond_atom_site_label_2
_ccdc_geom_bond_type
C27   O4    A    
C23   O1    A    
C2    C18   S    
C18   O8    A    
C7    C8    S    
N3    H13   S    
C10   C22   S    
Cr4   O7    S    
N2    H12   S    
C12   C28   S    
C1    C5    S    
C28   C29   T    
C1    O12   A    
C8    H6    S    
C21   O15   A    
C22   O16   A    
Cr5   O9    S    
Cr3   O5    S    
C9    H3    S    
Cr5   O15   S    
C23   O23   A    
C9    C13   D    
C20   O6    A    
C27   O24   A    
C30   N3    S    
C16   C17   T    
C18   O7    A    
Cr4   O13   S    
Cr1   O12   S    
Cr6   O19   S    
C14   C27   S    
C4    N2    S    
C10   N1    S    
C19   O9    A    
Cr1   O5    S    
C20   O11   A    
Cr6   O18   S    
C9    C26   S    
N3    H14   S    
Cr1   O24   S    
Cr4   O6    S    
C17   C24   S    
N2    H11   S    
C23   C30   S    
Cr2   O20   S    
C11   C31   S    
N1    H10   S    
C24   O13   A    
Cr2   O26   S    
C12   O22   A    
Cr5   O16   S    
C15   C21   S    
Cr3   O22   S    
C13   H2    S    
C26   O3    A    
C19   O10   A    
C5    H8    S    
C6    H7    S    
Cr3   O3    S    
C25   O25   A    
Cr6   O17   S    
C19   C29   S    
C1    O20   A    
Cr3   O23   S    
C16   C25   S    
C24   O18   A    
Cr2   O2    S    
C31   N4    T    
C5    C8    D    
C6    C7    D    
C6    C20   S    
C12   O21   A    
C2    C3    D    
C21   O14   A    
Cr6   O11   S    
C22   O17   A    
C11   C13   S    
Cr4   O19   S    
C7    H5    S    
Cr2   O5    S    
Cr6   O10   S    
C10   C11   D    
C26   O2    A    
C2    H4    S    
Cr1   O25   S    
N1    H9    S    
C3    H1    S    
Cr1   O1    S    
Cr5   O8    S    
Cr4   O14   S    
Cr3   O4    S    
C14   C15   T    
Cr5   O19   S    
C25   O26   A    
C4    C30   D    
C3    C4    S    
Cr2   O21   S    
