data_mof_unit_53930.cif
_audit_creation_date              2012-12-11T17:02:21-0500
_audit_creation_method            fapswitch 2.2
_symmetry_space_group_name_H-M    P1
_symmetry_Int_Tables_number       1
_space_group_crystal_system       triclinic
_cell_length_a                    21.659024
_cell_length_b                    7.080153
_cell_length_c                    14.803404
_cell_angle_alpha                 89.999926
_cell_angle_beta                  106.408321
_cell_angle_gamma                 89.999921
_cell_volume                      2177.63616183

loop_
_atom_site_label
_atom_site_type_symbol
_atom_type_description
_atom_site_fract_x
_atom_site_fract_y
_atom_site_fract_z
_atom_type_partial_charge
O1    O     O_R   0.585850 0.505770 0.002130 -0.546816
O2    O     O_R   0.414150 0.005770 0.997870 -0.546815
O3    O     O_R   0.467530 0.173560 0.861970 -0.532198
O4    O     O_R   0.532470 0.673560 0.138030 -0.532199
C1    C     C_R   0.456375 0.344938 0.825133 0.757599
C2    C     C_R   0.543625 0.844938 0.174867 0.757601
O5    O     O_R   0.588690 0.175900 0.993250 -0.541984
O6    O     O_R   0.411310 0.675900 0.006750 -0.541983
O7    O     O_R   0.536170 0.007950 0.130090 -0.526846
O8    O     O_R   0.463830 0.507950 0.869910 -0.526847
C3    C     C_R   0.615128 0.344567 0.998031 0.742747
C4    C     C_R   0.384872 0.844567 0.001969 0.742753
O9    O     O_3   0.482630 0.339970 0.044740 -0.380083
O10   O     O_3   0.517370 0.839970 0.955260 -0.380080
V1    V     V_3+5 0.503220 0.064200 0.991700 1.499090
V2    V     V_3+5 0.496780 0.564200 0.008300 1.499088
C5    C     C_R   0.292438 0.005221 0.043465 0.164207
C6    C     C_R   0.707562 0.505222 0.956537 0.164212
C7    C     C_R   0.316733 0.852283 0.004128 -0.119536
C8    C     C_R   0.683266 0.352282 0.995871 -0.119539
C9    C     C_R   0.273912 0.701841 0.969320 -0.134065
C10   C     C_R   0.726089 0.201840 0.030679 -0.134063
H1    H     H_    0.290331 0.578747 0.939644 0.161590
H2    H     H_    0.709669 0.078746 0.060355 0.161589
C11   C     C_R   0.208451 0.713250 0.967442 -0.150432
C12   C     C_R   0.791549 0.213250 0.032558 -0.150427
H3    H     H_    0.176653 0.597736 0.937139 0.137294
H4    H     H_    0.823348 0.097736 0.062860 0.137294
C13   C     C_R   0.183595 0.876854 0.999057 -0.114697
C14   C     C_R   0.816405 0.376856 0.000944 -0.114699
C15   C     C_R   0.227727 0.017910 0.040100 0.081685
C16   C     C_R   0.772273 0.517913 0.959902 0.081687
C17   C     C_3   0.225967 0.225904 0.023975 -0.416697
C18   C     C_3   0.774032 0.725906 0.976032 -0.416700
C19   C     C_3   0.297460 0.212800 0.030107 -0.126180
C20   C     C_3   0.702539 0.712800 0.969897 -0.126187
H5    H     H_    0.214979 0.305413 0.082392 0.175903
H6    H     H_    0.785021 0.805421 0.917616 0.175902
H7    H     H_    0.195484 0.263615 0.952365 0.162622
H8    H     H_    0.804515 0.763611 0.047642 0.162623
H9    H     H_    0.308924 0.249322 0.963578 0.155543
H10   H     H_    0.691074 0.749316 0.036425 0.155545
C21   C     C_R   0.925125 0.887157 0.721463 -0.078726
C22   C     C_R   0.074876 0.387156 0.278537 -0.078726
C23   C     C_R   0.569151 0.858036 0.277123 -0.103012
C24   C     C_R   0.430848 0.358037 0.722877 -0.103011
C25   C     C_R   0.936890 0.929432 0.563860 0.194372
C26   C     C_R   0.063110 0.429429 0.436140 0.194373
C27   C     C_R   0.963649 0.913272 0.661739 -0.172221
C28   C     C_R   0.036351 0.413265 0.338262 -0.172221
C29   C     C_R   0.858435 0.879558 0.684067 -0.181471
C30   C     C_R   0.141566 0.379566 0.315933 -0.181470
C31   C     C_R   0.828430 0.900263 0.586045 0.032516
C32   C     C_R   0.171571 0.400269 0.413954 0.032516
C33   C     C_R   0.868450 0.914376 0.523637 0.061627
C34   C     C_R   0.131551 0.414378 0.476363 0.061626
C35   C     C_R   0.759647 0.907085 0.548785 -0.018058
C36   C     C_R   0.240353 0.407093 0.451214 -0.018057
C37   C     C_R   0.731629 0.917440 0.449940 -0.009838
C38   C     C_R   0.268371 0.417446 0.550060 -0.009837
C39   C     C_R   0.771628 0.955514 0.391935 0.232988
C40   C     C_R   0.228372 0.455519 0.608065 0.232987
C41   C     C_R   0.837970 0.925863 0.424596 0.115975
C42   C     C_R   0.162031 0.425867 0.575404 0.115976
C43   C     C_R   0.717603 0.916761 0.606848 -0.171389
C44   C     C_R   0.282397 0.416770 0.393152 -0.171391
C45   C     C_R   0.650839 0.929435 0.568794 0.301220
C46   C     C_R   0.349161 0.429444 0.431206 0.301220
C47   C     C_R   0.623197 0.916359 0.471182 0.006315
C48   C     C_R   0.376803 0.416365 0.528818 0.006315
C49   C     C_R   0.663846 0.897337 0.411935 0.082868
C50   C     C_R   0.336155 0.397341 0.588064 0.082869
C51   C     C_R   0.555878 0.921741 0.430933 -0.096618
C52   C     C_R   0.444122 0.421745 0.569067 -0.096617
C53   C     C_R   0.529127 0.900394 0.333973 0.278001
C54   C     C_R   0.470872 0.400396 0.666027 0.277998
C55   C     C_R   0.635611 0.850013 0.316709 -0.176209
C56   C     C_R   0.364389 0.350014 0.683290 -0.176208
H11   H     H_    0.665044 0.808365 0.271955 0.154675
H12   H     H_    0.334956 0.308365 0.728044 0.154675
H13   H     H_    0.015155 0.928111 0.692666 0.110212
H14   H     H_    0.984845 0.428099 0.307335 0.110212
H15   H     H_    0.831304 0.858951 0.734070 0.100931
H16   H     H_    0.168696 0.358967 0.265930 0.100930
H17   H     H_    0.734971 0.924598 0.682414 0.142627
H18   H     H_    0.265029 0.424607 0.317586 0.142629
H19   H     H_    0.523464 0.945643 0.473495 0.204254
H20   H     H_    0.476537 0.445647 0.526505 0.204254
O11   O     O_R   0.036080 0.231270 0.130120 -0.536743
O12   O     O_R   0.963920 0.731270 0.869880 -0.536744
O13   O     O_R   0.911300 0.558970 0.006750 -0.540852
O14   O     O_R   0.088700 0.058970 0.993250 -0.540852
C57   C     C_R   0.885125 0.389762 0.002885 0.699300
C58   C     C_R   0.114875 0.889762 0.997115 0.699300
O15   O     O_R   0.032450 0.561140 0.138040 -0.536656
O16   O     O_R   0.967550 0.061140 0.861960 -0.536656
O17   O     O_R   0.085870 0.728910 0.002130 -0.541191
O18   O     O_R   0.914130 0.228910 0.997870 -0.541191
C59   C     C_R   0.046022 0.392788 0.175565 0.697745
C60   C     C_R   0.953978 0.892788 0.824435 0.697746
O19   O     O_3   0.017320 0.394650 0.955270 -0.374032
O20   O     O_3   0.982680 0.894650 0.044730 -0.374032
V3    V     V_3+5 0.996780 0.670490 0.008300 1.422544
V4    V     V_3+5 0.003220 0.170490 0.991700 1.422544
Br1   Br    Br    0.599157 0.958042 0.654039 -0.526738
Br2   Br    Br    0.400844 0.458052 0.345961 -0.526742
C61   C     C_3   0.982351 0.992081 0.508744 -0.799079
H21   H     H_    0.031063 0.024132 0.555134 0.203514
H22   H     H_    0.989513 0.882769 0.459779 0.220661
H23   H     H_    0.963632 0.122176 0.469181 0.226182
C62   C     C_3   0.017648 0.492076 0.491256 -0.799081
H24   H     H_    0.968936 0.524121 0.444866 0.203514
H25   H     H_    0.010489 0.382765 0.540222 0.220662
H26   H     H_    0.036366 0.622174 0.530817 0.226181
Br3   Br    Br    0.741190 0.109600 0.279435 -0.636625
Br4   Br    Br    0.258811 0.609606 0.720564 -0.636624
C63   C     C_3   0.341180 0.306087 0.118036 -0.569677
H27   H     H_    0.391988 0.266718 0.126179 0.246276
H28   H     H_    0.336675 0.461818 0.112565 0.217839
H29   H     H_    0.327942 0.259144 0.181707 0.247339
C64   C     C_3   0.658819 0.806089 0.881969 -0.569659
H30   H     H_    0.663311 0.961820 0.887451 0.217835
H31   H     H_    0.672069 0.759186 0.818300 0.247326
H32   H     H_    0.608013 0.766678 0.873812 0.246279
C65   C     C_3   0.871549 0.885962 0.349659 -0.710862
H33   H     H_    0.902376 0.759527 0.368564 0.191217
H34   H     H_    0.836738 0.847437 0.281376 0.227287
H35   H     H_    0.898342 0.010946 0.336016 0.222354
C66   C     C_3   0.128452 0.385967 0.650341 -0.710861
H36   H     H_    0.097626 0.259528 0.631438 0.191216
H37   H     H_    0.163263 0.347447 0.718626 0.227287
H38   H     H_    0.101657 0.510950 0.663983 0.222353
Br5   Br    Br    0.437974 0.931018 0.281635 -0.509596
Br6   Br    Br    0.562026 0.431015 0.718364 -0.509593

loop_
_geom_bond_atom_site_label_1
_geom_bond_atom_site_label_2
_ccdc_geom_bond_type
C44   C46   A    
C2    C23   S    
C61   H22   S    
C20   H10   S    
C62   H24   S    
O1    C3    A    
O2    C4    A    
C2    O7    A    
C24   C54   A    
C25   C27   A    
C40   Br4   S    
C45   C47   A    
C17   H7    S    
C52   C54   A    
O11   C59   A    
C18   H8    S    
C7    C9    A    
C26   C28   A    
C14   C57   S    
C63   H28   S    
C13   C58   S    
C22   C59   S    
O15   C59   A    
C35   C37   A    
C38   C50   A    
C36   C38   A    
C30   H16   S    
C38   C40   A    
C27   H13   S    
C47   C49   A    
C51   H19   S    
C64   H32   S    
C40   C42   A    
C17   C19   S    
C36   C44   A    
O15   V3    S    
C43   C45   A    
C33   C41   A    
C48   C52   A    
C65   H35   S    
C50   C56   A    
C61   H21   S    
C34   C42   A    
C47   C51   A    
C18   C20   S    
C66   H38   S    
C22   C30   A    
C31   C33   A    
O6    V2    S    
C51   C53   A    
C46   Br2   S    
O12   C60   A    
C30   C32   A    
C55   H11   S    
C11   C13   A    
C32   C34   A    
C3    C8    S    
C37   C39   A    
C15   C17   S    
C21   C60   S    
O4    C2    A    
C63   H29   S    
O13   V3    S    
C24   C56   A    
C31   C35   A    
C45   Br1   S    
C58   O17   A    
C17   H5    S    
C29   C31   A    
C16   C18   S    
O4    V2    S    
O5    C3    A    
C39   Br3   S    
O13   C57   A    
O6    C4    A    
O14   C58   A    
C56   H12   S    
C62   H25   S    
O1    V2    S    
O17   V3    S    
O20   V4    S    
O2    V1    S    
C64   H30   S    
C41   C65   S    
C46   C48   A    
C8    C10   A    
C12   C14   A    
O19   V4    S    
C25   C61   S    
C9    H1    S    
O11   V4    S    
C65   H33   S    
C5    C15   A    
C61   H23   S    
C10   H2    S    
C19   C63   S    
C6    C16   A    
C29   H15   S    
C49   C55   A    
O3    V1    S    
C28   H14   S    
C25   C33   A    
C66   H36   S    
C32   C36   A    
C22   C28   A    
C26   C34   A    
C9    C11   A    
C54   Br6   S    
C18   H6    S    
C39   C41   A    
C21   C27   A    
C35   C43   A    
O3    C1    A    
C44   H18   S    
C48   C50   A    
C53   Br5   S    
C43   H17   S    
C11   H3    S    
C1    C24   S    
C12   H4    S    
C23   C53   A    
O16   V4    S    
C20   C64   S    
O7    V1    S    
C1    O8    A    
C13   C15   A    
O8    V2    S    
C63   H27   S    
C14   C16   A    
C21   C29   A    
O18   V4    S    
O16   C60   A    
C4    C7    S    
O5    V1    S    
C5    C7    A    
C62   H26   S    
C6    C8    A    
O20   V3    S    
C19   H9    S    
O12   V3    S    
C64   H31   S    
O14   V4    S    
C26   C62   S    
C42   C66   S    
O19   V3    S    
C10   C12   A    
O9    V2    S    
C65   H34   S    
O10   V1    S    
C23   C55   A    
C5    C19   S    
C52   H20   S    
C6    C20   S    
C57   O18   A    
C37   C49   A    
C66   H37   S    
