data_mof_unit_42142.cif
_audit_creation_date              2012-12-10T17:28:30-0500
_audit_creation_method            fapswitch 2.2
_symmetry_space_group_name_H-M    P1
_symmetry_Int_Tables_number       1
_space_group_crystal_system       triclinic
_cell_length_a                    10.642301
_cell_length_b                    12.008555
_cell_length_c                    12.818563
_cell_angle_alpha                 93.964263
_cell_angle_beta                  90.089921
_cell_angle_gamma                 86.409675
_cell_volume                      1631.06170093

loop_
_atom_site_label
_atom_site_type_symbol
_atom_type_description
_atom_site_fract_x
_atom_site_fract_y
_atom_site_fract_z
_atom_type_partial_charge
C1    C     C_R   0.499589 0.522768 0.700396 0.868318
C2    C     C_R   0.549208 0.543214 0.132498 -0.329480
C3    C     C_R   0.466334 0.457528 0.974040 0.167206
C4    C     C_R   0.533694 0.542407 0.025969 0.165990
C5    C     C_R   0.384451 0.952872 0.399584 0.007093
C6    C     C_R   0.615015 0.047765 0.600917 -0.002173
C7    C     C_R   0.396290 0.836587 0.409942 -0.011554
C8    C     C_R   0.603593 0.163456 0.590178 0.032710
C9    C     C_R   0.548633 0.858770 0.543544 -0.059160
C10   C     C_R   0.451340 0.141065 0.456598 -0.051528
C11   C     C_R   0.541524 0.976210 0.536922 -0.003673
C12   C     C_R   0.500387 0.477231 0.299608 0.867952
C13   C     C_R   0.458191 0.023693 0.463675 0.046740
C14   C     C_R   0.739071 0.500351 0.500039 0.875348
C15   C     C_R   0.260928 0.499651 0.499957 0.875458
C16   C     C_R   0.868599 0.506262 0.307183 -0.144205
C17   C     C_R   0.131393 0.493804 0.692821 -0.144720
C18   C     C_R   0.933627 0.508088 0.213066 -0.144464
C19   C     C_R   0.066354 0.492141 0.786950 -0.144926
C20   C     C_R   0.064291 0.507174 0.213004 -0.151654
C21   C     C_R   0.935682 0.493210 0.787010 -0.147985
C22   C     C_R   0.129939 0.504522 0.307062 -0.156352
C23   C     C_R   0.496043 0.462198 0.188009 -0.049008
C24   C     C_R   0.870045 0.495788 0.692946 -0.154038
C25   C     C_R   0.065216 0.502692 0.403547 0.068288
C26   C     C_R   0.934779 0.497435 0.596452 0.067770
C27   C     C_R   0.933982 0.503662 0.403618 0.072057
C28   C     C_R   0.066015 0.496395 0.596380 0.072218
C29   C     C_R   0.128631 0.499025 0.499920 -0.187479
C30   C     C_R   0.871368 0.501002 0.500074 -0.187449
C31   C     C_R   0.503919 0.537784 0.812004 -0.050219
C32   C     C_R   0.583598 0.625887 0.970920 -0.270150
C33   C     C_R   0.416345 0.374095 0.029102 -0.268611
C34   C     C_R   0.569370 0.623997 0.863023 0.090273
C35   C     C_R   0.430481 0.376035 0.137011 0.084048
C36   C     C_R   0.450841 0.456715 0.867505 -0.328788
H1    H     H_    0.884937 0.492257 0.860063 0.137593
H2    H     H_    0.399631 0.391262 0.827103 0.162508
H3    H     H_    0.635131 0.691108 0.011071 0.142469
H4    H     H_    0.364747 0.308914 0.988960 0.142600
H5    H     H_    0.388864 0.180086 0.401259 0.165236
H6    H     H_    0.611246 0.819305 0.598428 0.145220
H7    H     H_    0.659385 0.218595 0.638876 0.150336
H8    H     H_    0.340727 0.780982 0.361563 0.135038
H9    H     H_    0.259417 0.934419 0.278570 0.181812
H10   H     H_    0.224621 0.042082 0.366073 0.187013
H11   H     H_    0.767498 0.949490 0.638686 0.191677
H12   H     H_    0.115020 0.508273 0.139958 0.137202
H13   H     H_    0.651084 0.963525 0.730138 0.182818
H14   H     H_    0.410497 0.215039 0.166625 0.196959
H15   H     H_    0.277015 0.298866 0.179510 0.181365
H16   H     H_    0.588886 0.785054 0.833618 0.181845
H17   H     H_    0.722556 0.701518 0.820490 0.178848
H18   H     H_    0.767124 0.506599 0.303490 0.124484
H19   H     H_    0.232870 0.493376 0.696517 0.124317
H20   H     H_    0.882451 0.510023 0.140067 0.134863
H21   H     H_    0.117520 0.490238 0.859957 0.134459
H22   H     H_    0.231421 0.503572 0.303272 0.132544
H23   H     H_    0.768556 0.496847 0.696734 0.132565
H24   H     H_    0.600458 0.608649 0.172892 0.162596
N1    N     N_R   0.523130 0.207800 0.519340 -0.126784
N2    N     N_R   0.476870 0.792200 0.480660 -0.108159
N3    N     N_3   0.298887 0.998602 0.324449 -0.475269
N4    N     N_3   0.701274 0.005974 0.676979 -0.471547
N5    N     N_3   0.373690 0.294196 0.194703 -0.447329
N6    N     N_3   0.625864 0.706018 0.805371 -0.455558
O1    O     O_R   0.506170 0.421700 0.658830 -0.636461
O2    O     O_R   0.493830 0.578300 0.341170 -0.635263
O3    O     O_R   0.491330 0.609310 0.646410 -0.594726
O4    O     O_R   0.508670 0.390690 0.353590 -0.593741
O5    O     O_R   0.690650 0.406190 0.506220 -0.618257
O6    O     O_R   0.309350 0.593810 0.493780 -0.618836
O7    O     O_R   0.675800 0.593810 0.493800 -0.616382
O8    O     O_R   0.324200 0.406190 0.506200 -0.616377
Zn1   Zn    Zn3+2 0.509910 0.374730 0.508290 0.947645
Zn2   Zn    Zn3+2 0.490090 0.625270 0.491710 0.946823

loop_
_geom_bond_atom_site_label_1
_geom_bond_atom_site_label_2
_ccdc_geom_bond_type
C14   O5    A    
C8    H7    S    
O6    Zn2   S    
C34   N6    S    
O1    Zn1   S    
N1    Zn1   S    
C15   O6    A    
C12   O2    A    
C12   C23   S    
C9    H6    S    
C28   C29   A    
C19   C21   A    
C24   C26   A    
C2    H24   S    
C3    C33   A    
C1    C31   S    
C5    N3    S    
O3    Zn2   S    
H15   N5    S    
C32   H3    S    
C6    N4    S    
C17   C19   A    
C19   H21   S    
C22   C25   A    
C17   H19   S    
C5    C13   A    
C18   H20   S    
C8    N1    A    
C16   C27   A    
H13   N4    S    
C10   H5    S    
N2    Zn2   S    
C14   C30   S    
C15   C29   S    
C25   C29   A    
C33   H4    S    
O8    Zn1   S    
C9    N2    A    
C14   O7    A    
C6    C11   A    
C5    C7    A    
C6    C8    A    
H9    N3    S    
C1    O3    A    
C32   C34   A    
C2    C4    A    
C7    N2    A    
C31   C34   A    
C4    C32   A    
C7    H8    S    
H17   N6    S    
C9    C11   A    
C20   H12   S    
C20   C22   A    
C26   C30   A    
C23   C35   A    
O7    Zn2   S    
C10   N1    A    
C25   C27   A    
C3    C4    A    
H11   N4    S    
H16   N6    S    
C12   O4    A    
C17   C28   A    
C10   C13   A    
C22   H22   S    
C1    O1    A    
O2    Zn2   S    
C26   C28   A    
H10   N3    S    
C36   H2    S    
O5    Zn1   S    
C11   C13   A    
C3    C36   A    
C24   H23   S    
C33   C35   A    
C18   C20   A    
H14   N5    S    
C16   H18   S    
C15   O8    A    
C21   H1    S    
O4    Zn1   S    
C16   C18   A    
C21   C24   A    
C2    C23   A    
C35   N5    S    
C31   C36   A    
C27   C30   A    
