data_mof_unit_7756.cif
_audit_creation_date              2012-10-26T21:21:33-0400
_audit_creation_method            fapswitch 2.2
_symmetry_space_group_name_H-M    P1
_symmetry_Int_Tables_number       1
_space_group_crystal_system       triclinic
_cell_length_a                    14.342251
_cell_length_b                    10.790827
_cell_length_c                    9.607364
_cell_angle_alpha                 90.038267
_cell_angle_beta                  90.011449
_cell_angle_gamma                 92.47422
_cell_volume                      1485.49476116

loop_
_atom_site_label
_atom_site_type_symbol
_atom_type_description
_atom_site_fract_x
_atom_site_fract_y
_atom_site_fract_z
_atom_type_partial_charge
C1    C     C_R   0.496430 0.262538 0.499997 0.539003
C2    C     C_R   0.552547 0.066956 0.416644 -0.147339
C3    C     C_R   0.552557 0.939165 0.416749 -0.154905
C4    C     C_R   0.331190 0.499550 0.500035 0.529041
C5    C     C_R   0.489751 0.870569 0.500206 0.006703
C6    C     C_R   0.624888 0.664063 0.143766 -0.065905
C7    C     C_R   0.686770 0.744096 0.071731 -0.029883
C8    C     C_R   0.685445 0.744228 0.927883 -0.149585
C9    C     C_R   0.624068 0.664590 0.856160 -0.094900
C10   C     C_R   0.560900 0.581022 0.925262 0.152588
C11   C     C_R   0.561059 0.580908 0.074693 0.142770
C12   C     C_1   0.771165 0.500686 0.500011 -0.047555
C13   C     C_R   0.442014 0.422891 0.073770 0.001966
C14   C     C_R   0.442054 0.422894 0.925975 0.001097
C15   C     C_R   0.496754 0.737145 0.500096 0.524769
C16   C     C_R   0.668803 0.500408 0.499986 0.531111
C17   C     C_1   0.228843 0.499794 0.500121 -0.051994
C18   C     C_1   0.143415 0.500068 0.500204 -0.048103
C19   C     C_1   0.042733 0.500405 0.500208 -0.006345
C20   C     C_1   0.957295 0.500634 0.500150 -0.005961
C21   C     C_1   0.856605 0.500762 0.500061 -0.046019
C22   C     C_3   0.211107 0.116727 0.813393 -0.409197
C23   C     C_R   0.351557 0.121058 0.654977 -0.089653
C24   C     C_3   0.755020 0.829661 0.147418 -0.408841
C25   C     C_R   0.284557 0.052759 0.732415 0.009683
C26   C     C_R   0.285370 0.923501 0.732588 -0.104258
C27   C     C_R   0.352252 0.862597 0.656408 -0.115565
C28   C     C_R   0.421819 0.930097 0.580301 0.023555
C29   C     C_R   0.421552 0.061171 0.579819 0.011269
C30   C     C_R   0.489495 0.128355 0.499790 -0.000382
Cu1   Cu    Cu3+1 0.499990 0.499990 0.640660 0.905789
Cu2   Cu    Cu3+1 0.500010 0.500010 0.359340 0.918015
H1    H     H_    0.603622 0.118454 0.353795 0.130305
H2    H     H_    0.629850 0.670928 0.253436 0.177798
H3    H     H_    0.218979 0.219219 0.803445 0.122960
H4    H     H_    0.140860 0.086397 0.774515 0.137171
H5    H     H_    0.216486 0.092338 0.925287 0.134419
H6    H     H_    0.751333 0.816437 0.261937 0.112970
H7    H     H_    0.827145 0.811497 0.113349 0.142764
H8    H     H_    0.740025 0.927468 0.123463 0.138484
H9    H     H_    0.732821 0.806147 0.870335 0.120320
H10   H     H_    0.630010 0.672705 0.746508 0.181023
H11   H     H_    0.394557 0.359615 0.870847 0.110201
H12   H     H_    0.346843 0.220686 0.651953 0.125182
H13   H     H_    0.233063 0.869477 0.790381 0.116180
H14   H     H_    0.347259 0.762445 0.656032 0.145017
H15   H     H_    0.603461 0.893524 0.353849 0.115369
H16   H     H_    0.394506 0.359604 0.128757 0.117537
N1    N     N_R   0.500820 0.501210 0.147910 -0.236864
N2    N     N_R   0.500850 0.501290 0.852040 -0.233975
O1    O     O_R   0.499990 0.319640 0.618810 -0.494608
O2    O     O_R   0.500000 0.319660 0.381240 -0.492500
O3    O     O_R   0.376050 0.499990 0.618810 -0.495376
O4    O     O_R   0.376060 0.500010 0.381240 -0.474072
O5    O     O_R   0.500000 0.680340 0.618760 -0.521273
O6    O     O_R   0.500010 0.680360 0.381190 -0.510404
O7    O     O_R   0.623940 0.499990 0.618760 -0.491723
O8    O     O_R   0.623950 0.500010 0.381190 -0.497875

loop_
_geom_bond_atom_site_label_1
_geom_bond_atom_site_label_2
_ccdc_geom_bond_type
C8    C9    A    
C13   H16   S    
C24   H6    S    
C6    C7    A    
C11   N1    A    
C4    O3    A    
C5    C28   A    
C22   H4    S    
C9    C10   A    
Cu1   Cu2   S    
Cu2   O8    S    
C2    C30   A    
Cu1   O5    S    
C15   O6    A    
Cu1   O7    S    
C19   C20   T    
C17   C18   T    
C26   C27   A    
C7    C8    A    
C16   O8    A    
C13   C14   A    
Cu1   O3    S    
C8    H9    S    
C22   H3    S    
C1    O1    A    
C9    H10   S    
C29   C30   A    
C13   N1    A    
C4    C17   S    
C23   C29   A    
C27   H14   S    
C3    H15   S    
C1    C30   S    
C24   H8    S    
C2    C3    A    
C16   O7    A    
C23   C25   A    
C1    O2    A    
Cu2   N1    S    
C5    C15   S    
C10   C11   A    
C14   N2    A    
Cu1   N2    S    
C7    C24   S    
C10   N2    A    
C6    H2    S    
C27   C28   A    
C24   H7    S    
C20   C21   S    
C2    H1    S    
C18   C19   S    
Cu2   O4    S    
C6    C11   A    
C28   C29   A    
C26   H13   S    
C4    O4    A    
C25   C26   A    
C22   H5    S    
C12   C21   T    
Cu2   O6    S    
Cu2   O2    S    
C23   H12   S    
C12   C16   S    
Cu1   O1    S    
C14   H11   S    
C3    C5    A    
C22   C25   S    
C15   O5    A    
