data_mof_unit_26280.cif
_audit_creation_date              2013-03-05T16:00:25-0500
_audit_creation_method            fapswitch 2.2
_symmetry_space_group_name_H-M    P1
_symmetry_Int_Tables_number       1
_space_group_crystal_system       triclinic
_cell_length_a                    8.374672
_cell_length_b                    12.869843
_cell_length_c                    27.083185
_cell_angle_alpha                 97.996478
_cell_angle_beta                  92.756645
_cell_angle_gamma                 81.44972
_cell_volume                      2857.4144807

loop_
_atom_site_label
_atom_site_type_symbol
_atom_site_description
_atom_site_fract_x
_atom_site_fract_y
_atom_site_fract_z
_atom_type_partial_charge
P1    P     P_3+3 0.072810 0.589830 0.610360 0.554075
O1    O     O_2   0.907040 0.557650 0.617910 -0.321015
O2    O     O_3   0.139040 0.557570 0.557730 -0.405442
O3    O     O_3   0.684960 0.360550 0.588460 -0.418446
O4    O     O_2   0.840485 0.423325 0.673067 -0.361758
O5    O     O_3   0.027117 0.727850 0.622751 -0.524749
O6    O     O_3   0.678919 0.270013 0.678670 -0.578840
H1    H     H_    0.586266 0.202245 0.610842 0.047074
C1    C     C_3   0.593408 0.099127 0.666184 -0.961956
H2    H     H_    0.516827 0.048407 0.641932 0.250972
H3    H     H_    0.722040 0.064649 0.661696 0.228725
P2    P     P_3+3 0.661990 0.251250 0.462170 0.516044
P3    P     P_3+3 0.145774 0.166231 0.558821 0.481463
O7    O     O_2   0.841490 0.235060 0.476710 -0.374330
O8    O     O_3   0.099640 0.305100 0.564190 -0.342564
O9    O     O_2   0.000469 0.114952 0.534464 -0.419420
O10   O     O_3   0.661515 0.212184 0.397039 -0.600911
O11   O     O_3   0.168355 0.125523 0.618088 -0.549461
C2    C     C_3   0.057805 0.189274 0.650556 0.445008
H4    H     H_    0.932766 0.185526 0.635581 0.093957
H5    H     H_    0.083886 0.272372 0.655755 0.148710
C3    C     C_3   0.077473 0.146378 0.700800 -0.790546
H6    H     H_    0.037549 0.066909 0.696343 0.208047
C4    C     C_3   0.189050 0.213473 0.408534 0.978500
H7    H     H_    0.153565 0.255800 0.445792 0.060770
C5    C     C_3   0.107194 0.114317 0.399736 -1.003453
H8    H     H_    0.144166 0.066025 0.363959 0.245357
H9    H     H_    0.139769 0.066469 0.430683 0.258190
H10   H     H_    0.975028 0.136565 0.397449 0.258352
Ba1   Ba    Ba6+2 0.859560 0.448380 0.523550 1.621152
C6    C     C_3   0.974319 0.770138 0.578946 0.434737
H11   H     H_    0.866535 0.736069 0.562959 0.100173
H12   H     H_    0.070667 0.754118 0.551096 0.135369
C7    C     C_3   0.931298 0.889528 0.592031 -1.001170
H13   H     H_    0.829283 0.906669 0.617855 0.273056
H14   H     H_    0.895888 0.927479 0.558200 0.246263
H15   H     H_    0.036530 0.924091 0.610309 0.269354
C8    C     C_3   0.657802 0.296547 0.369227 0.867516
H16   H     H_    0.583852 0.370216 0.386362 0.110190
C9    C     C_3   0.588587 0.265546 0.316134 -0.173307
H17   H     H_    0.634720 0.181095 0.302778 0.144328
H18   H     H_    0.629619 0.315183 0.290101 0.106719
P4    P     P_3+3 0.116900 0.410080 0.389630 0.558458
O12   O     O_2   0.282660 0.442310 0.382060 -0.340322
O13   O     O_3   0.050670 0.442340 0.442260 -0.403978
O14   O     O_3   0.504750 0.639360 0.411530 -0.405042
O15   O     O_3   0.143539 0.273496 0.369699 -0.547098
P5    P     P_3+3 0.045083 0.830665 0.431781 0.423720
O16   O     O_3   0.618400 0.630290 0.524520 -0.350507
O17   O     O_3   0.090070 0.694820 0.435810 -0.412364
O18   O     O_2   0.179409 0.883022 0.462424 -0.413279
O19   O     O_3   0.069615 0.852212 0.370092 -0.601845
Ba2   Ba    Ba6+2 0.330270 0.551530 0.476440 1.609675
P6    P     P_3+3 0.675213 0.390179 0.654969 0.501579
C10   C     C_3   0.567074 0.210718 0.651612 0.958814
H19   H     H_    0.562421 0.100952 0.705751 0.284112
O20   O     O_3   0.571310 0.369620 0.475470 -0.431480
C11   C     C_3   0.515509 0.762917 0.634450 1.443762
C12   C     C_3   0.520273 0.830286 0.686057 -1.111802
H20   H     H_    0.431084 0.903599 0.686931 0.256854
H21   H     H_    0.490209 0.785070 0.715611 0.254927
H22   H     H_    0.642585 0.853149 0.694272 0.271991
P7    P     P_3+3 0.533157 0.766335 0.536582 0.492625
O21   O     O_2   0.348200 0.764910 0.523260 -0.359654
O22   O     O_3   0.545831 0.826632 0.598952 -0.659455
H23   H     H_    0.207028 0.136793 0.712835 0.225857
C13   C     C_3   0.036937 0.762590 0.336930 0.916549
H24   H     H_    0.104660 0.688601 0.348164 0.111836
C14   C     C_3   0.093761 0.769635 0.284859 -0.951511
H25   H     H_    0.226802 0.765057 0.285297 0.278345
H26   H     H_    0.060743 0.702056 0.258287 0.254921
H27   H     H_    0.037673 0.845078 0.271747 0.251338
P8    P     P_3+3 0.524622 0.612332 0.346708 0.471913
C15   C     C_3   0.488344 0.815720 0.362113 0.375979
H28   H     H_    0.583258 0.810139 0.391835 0.031510
O23   O     O_2   0.366481 0.573506 0.324993 -0.430363
O24   O     O_3   0.523220 0.732665 0.323029 -0.474721
H29   H     H_    0.369695 0.812698 0.377870 0.114654
H30   H     H_    0.607451 0.941268 0.340560 0.141939
C16   C     C_3   0.483726 0.923149 0.344178 -0.009055
H31   H     H_    0.425214 0.983858 0.373284 0.083451
C17   C     C_R   0.038424 0.415721 0.179730 0.526400
O25   O     O_2   0.091724 0.339508 0.200944 -0.595504
N1    N     N_R   0.939896 0.500673 0.205071 -0.167763
C18   C     C_R   0.877475 0.586098 0.180352 0.511540
C19   C     C_2   0.743632 0.517833 0.271595 -0.130057
C20   C     C_3   0.703590 0.515383 0.325639 0.163772
C21   C     C_1   0.989863 0.481312 0.344145 0.313259
C22   C     C_2   0.029620 0.478653 0.296779 -0.248564
C23   C     C_2   0.899871 0.499549 0.257186 0.122906
C24   C     C_R   0.012435 0.501383 0.103700 -0.065851
C25   C     C_R   0.075968 0.415247 0.129075 -0.056561
C26   C     C_R   0.175426 0.329919 0.103208 -0.088802
C27   C     C_R   0.912130 0.587117 0.129656 -0.059595
C28   C     C_2   0.848739 0.531283 0.359488 -0.248265
H32   H     H_    0.155071 0.460866 0.286429 0.203867
H33   H     H_    0.227341 0.262638 0.121604 0.169954
C29   C     C_2   0.353656 0.486899 0.646831 -0.313676
C30   C     C_R   0.181777 0.413664 0.974846 -0.050446
C31   C     C_R   0.029736 0.592770 0.977139 0.058753
C32   C     C_R   0.125459 0.504043 0.950613 0.091869
C33   C     C_R   0.272526 0.326022 0.946744 -0.248678
C34   C     C_R   0.313883 0.327192 0.897638 0.580552
C35   C     C_R   0.256655 0.415774 0.872550 -0.228803
C36   C     C_R   0.165077 0.505588 0.899509 -0.079205
C37   C     C_R   0.113375 0.596775 0.875482 -0.105643
C38   C     C_R   0.151013 0.594327 0.824287 0.630525
N2    N     N_R   0.240686 0.506318 0.798522 -0.148593
C39   C     C_R   0.286318 0.416262 0.821259 0.648311
C40   C     C_2   0.452378 0.494306 0.735977 -0.196389
C41   C     C_3   0.498509 0.492948 0.681596 0.071288
C42   C     C_1   0.206575 0.530164 0.659829 0.190575
C43   C     C_2   0.165118 0.529605 0.706669 -0.135024
C44   C     C_2   0.291364 0.509009 0.747552 0.107824
O26   O     O_2   0.350870 0.335911 0.796368 -0.592482
C45   C     C_R   0.147853 0.413781 0.026363 0.080749
C46   C     C_R   0.049114 0.501803 0.052378 0.084535
C47   C     C_R   0.986749 0.590318 0.027646 0.044272
C48   C     C_R   0.210611 0.329003 0.053303 -0.198506
H34   H     H_    0.317177 0.254070 0.962011 0.164928
H35   H     H_    0.289976 0.260358 0.037300 0.133565
O27   O     O_2   0.792775 0.662113 0.202602 -0.556710
C49   C     C_R   0.847263 0.672180 0.104311 -0.073289
H36   H     H_    0.645767 0.528765 0.244187 0.157469
H37   H     H_    0.767412 0.738657 0.122866 0.174172
C50   C     C_R   0.983439 0.682899 0.952671 -0.236062
C51   C     C_R   0.025617 0.686996 0.903677 -0.065611
O28   O     O_2   0.103602 0.670326 0.802424 -0.567092
C52   C     C_R   0.882537 0.673644 0.054640 -0.198757
H38   H     H_    0.919544 0.754948 0.971759 0.139640
H39   H     H_    0.038631 0.545073 0.716018 0.194840
H40   H     H_    0.822977 0.741304 0.038372 0.137710
H41   H     H_    0.836290 0.576267 0.396467 0.134999
C53   C     C_R   0.755001 0.818477 0.475235 -0.509509
C54   C     C_R   0.421514 0.181322 0.508663 -0.368151
C55   C     C_R   0.402042 0.007094 0.527325 -0.205834
C56   C     C_R   0.335626 0.112794 0.527514 0.244242
C57   C     C_R   0.575076 0.148814 0.490104 0.336284
C58   C     C_R   0.637994 0.037956 0.484481 -0.078667
C59   C     C_R   0.549597 0.966512 0.503906 -0.067221
C60   C     C_R   0.611141 0.856669 0.499566 0.258899
C61   C     C_R   0.844148 0.886858 0.456786 0.278823
C62   C     C_R   0.784588 0.995611 0.460433 -0.225353
H42   H     H_    0.334350 0.957680 0.544652 0.195454
H43   H     H_    0.854849 0.045878 0.445224 0.185832
H44   H     H_    0.802828 0.735157 0.473215 0.157948
H45   H     H_    0.362236 0.259295 0.504065 0.196735
O29   O     O_3   0.815366 0.315727 0.365804 -0.835391
H46   H     H_    0.871310 0.255827 0.342913 0.309248
O30   O     O_3   0.419970 0.280462 0.315310 -0.680758
H47   H     H_    0.385128 0.259312 0.280267 0.358826
O31   O     O_3   0.407936 0.258089 0.661548 -0.773721
H48   H     H_    0.398505 0.271860 0.698332 0.348333
O32   O     O_3   0.363230 0.730605 0.625901 -0.753121
H49   H     H_    0.285844 0.796141 0.623572 0.304023
O33   O     O_3   0.635182 0.674364 0.632282 -0.685348
H50   H     H_    0.640699 0.646197 0.664624 0.285771
O34   O     O_3   0.871503 0.755066 0.335123 -0.775136
H51   H     H_    0.816088 0.817936 0.320770 0.338927
O35   O     O_3   0.401215 0.926801 0.298042 -0.659722
H52   H     H_    0.284555 0.943838 0.305095 0.336362
C63   C     C_2   0.580403 0.500262 0.776135 1.036689
O36   O     O_2   0.719068 0.459350 0.767665 -0.587384
O37   O     O_R   0.544114 0.555951 0.823328 -0.813620
H53   H     H_    0.641629 0.554799 0.847046 0.331637
O38   O     O_3   0.414319 0.240062 0.875831 -0.697140
H54   H     H_    0.506035 0.266886 0.862357 0.339980
C64   C     C_2   0.978931 0.790410 0.884939 1.105022
O39   O     O_2   0.082540 0.837565 0.871725 -0.571466
O40   O     O_R   0.816837 0.836353 0.885060 -0.784053
H55   H     H_    0.799817 0.907571 0.872157 0.343945
C65   C     C_2   0.390736 0.459921 0.595612 1.129279
O41   O     O_2   0.362735 0.376543 0.573102 -0.660744
O42   O     O_R   0.473266 0.526398 0.574609 -0.702136
H56   H     H_    0.526983 0.487155 0.544127 0.390533
C66   C     C_2   0.982470 0.218502 0.740708 1.226981
O43   O     O_2   0.015085 0.307883 0.753724 -0.598828
O44   O     O_R   0.859107 0.182290 0.763579 -0.757882
H57   H     H_    0.803533 0.238043 0.789845 0.339713
O45   O     O_3   0.355499 0.183324 0.407842 -0.804064
H58   H     H_    0.383659 0.154856 0.372968 0.364350

loop_
_geom_bond_atom_site_label_1
_geom_bond_atom_site_label_2
_geom_bond_distance
_ccdc_geom_bond_type
C54   C57   1.387529 A    
P7    O22   1.763345 S    
C50   C51   1.399407 A    
O16   P7    1.781443 S    
C14   H27   1.110743 S    
C7    H15   1.110362 S    
Ba1   O13   2.769278 S    
C2    H4    1.109993 S    
O6    C10   1.409849 S    
C55   C59   1.411876 A    
O44   H57   1.013924 S    
C40   C63   1.492442 S    
C10   O31   1.402689 S    
C65   O41   1.207135 D    
C5    H8    1.106844 S    
P3    O11   1.749866 S    
C31   C50   1.410799 A    
P4    C21   1.840622 S    
P1    Ba1   3.376851 S    
O37   H53   1.014092 S    
C2    H5    1.111701 S    
C4    C5    1.521519 S    
C38   O28   1.219835 D    
C7    H13   1.107362 S    
P1    C42   1.877681 S    
C35   C39   1.423929 A    
Ba2   O21   2.882248 S    
O16   Ba2   2.933160 S    
C49   H37   1.083650 S    
C37   C38   1.431668 A    
C50   H38   1.076620 S    
Ba1   O20   2.934018 S    
C28   H41   1.086216 S    
C17   C25   1.421123 A    
N2    C39   1.383031 Am   
C54   C56   1.380238 A    
P1    O1    1.537028 D    
N2    C44   1.470019 S    
C14   H26   1.108617 S    
O42   H56   0.995574 S    
C42   C43   1.332490 D    
C17   N1    1.387332 Am   
C11   O32   1.398357 S    
C40   C41   1.537628 S    
C58   C62   1.416888 A    
O12   Ba2   2.781633 S    
P4    Ba2   3.377430 S    
P5    O18   1.545400 D    
P8    C20   1.859269 S    
C51   C64   1.481838 S    
C15   O24   1.403717 S    
C20   C28   1.508129 S    
P2    O10   1.765659 S    
C4    O45   1.390570 S    
C38   N2    1.382536 Am   
C6    H12   1.108297 S    
C66   O43   1.222071 D    
C1    C10   1.523847 S    
P6    C41   1.927322 S    
C1    H2    1.110632 S    
C40   C44   1.378640 D    
C15   H29   1.108087 S    
C52   H40   1.075919 S    
C29   C65   1.420079 S    
C27   C49   1.400395 A    
C64   O40   1.397713 S    
O5    C6    1.398865 S    
C21   C28   1.315275 D    
O13   Ba2   2.953404 S    
C12   H20   1.111141 S    
C15   C16   1.522563 S    
C49   C52   1.394367 A    
C33   C34   1.392969 A    
N1    C23   1.468802 S    
O7    Ba1   2.881920 S    
H1    C10   1.111440 S    
C35   C36   1.418737 A    
C65   O42   1.371954 S    
C63   O37   1.399063 S    
C48   H35   1.075485 S    
C32   C36   1.442182 A    
C53   H44   1.082281 S    
Ba1   Ba2   4.630447 S    
C12   H21   1.111408 S    
O17   Ba2   2.811896 S    
C29   C42   1.316968 D    
C15   H28   1.105667 S    
P5    C61   1.850622 S    
C13   H24   1.106521 S    
O4    P6    1.545998 D    
C2    C3    1.531014 S    
C4    H7    1.109520 S    
C43   C44   1.516496 S    
C19   C23   1.360781 D    
C30   C45   1.436964 A    
Ba2   O20   2.852940 S    
C19   C20   1.522841 S    
C55   C56   1.390420 A    
C11   C12   1.540984 S    
P7    O21   1.575631 D    
P2    Ba1   3.427518 S    
C37   C51   1.423030 A    
P1    O5    1.748901 S    
P1    O2    1.534490 S    
P3    C56   1.833605 S    
O34   H51   0.989779 S    
O2    Ba1   2.952552 S    
P4    O12   1.537335 D    
C53   C61   1.391092 A    
P4    O13   1.534495 S    
C18   C27   1.419160 A    
C11   O22   1.402112 S    
C6    H11   1.105340 S    
C24   C46   1.438748 A    
P7    C60   1.842870 S    
C6    C7    1.520687 S    
C9    O30   1.396049 S    
C18   O27   1.222342 D    
C1    H19   1.110950 S    
N1    C18   1.389373 Am   
P5    O17   1.750333 S    
C1    H3    1.107962 S    
C8    O29   1.387704 S    
O32   H49   0.991818 S    
O19   C13   1.412064 S    
C11   O33   1.397903 S    
C5    H10   1.102286 S    
P2    O20   1.599015 S    
C9    H17   1.113820 S    
C30   C32   1.423246 A    
Ba1   O16   2.853532 S    
P2    O7    1.526764 D    
C54   H45   1.072224 S    
P3    O8    1.758508 S    
C19   H36   1.085718 S    
O38   H54   0.991542 S    
P8    O23   1.545848 D    
P2    C57   1.859030 S    
C31   C47   1.436833 A    
C26   H33   1.083643 S    
C24   C25   1.409151 A    
C33   H34   1.075624 S    
O45   H58   0.990668 S    
O8    Ba1   2.811337 S    
C63   O36   1.220085 D    
C62   H43   1.070079 S    
C64   O39   1.223176 D    
C12   H22   1.111218 S    
C29   C41   1.503991 S    
C43   H39   1.083927 S    
O3    P6    1.791764 S    
O30   H47   0.992520 S    
C4    O15   1.395776 S    
C16   H31   1.106303 S    
C3    C66   1.498926 S    
C58   C59   1.429927 A    
C3    H23   1.111763 S    
C36   C37   1.422135 A    
C5    H9    1.108017 S    
C45   C48   1.418840 A    
O1    Ba1   2.781247 S    
O35   H52   0.990790 S    
C22   H32   1.083391 S    
C55   H42   1.077892 S    
C47   C52   1.418140 A    
C46   C47   1.421574 A    
C53   C60   1.391940 A    
C8    C9    1.546534 S    
O2    Ba2   2.769896 S    
C8    H16   1.108355 S    
C59   C60   1.421559 A    
O14   Ba2   2.791848 S    
C9    H18   1.112285 S    
C25   C26   1.400213 A    
C45   C46   1.420885 A    
C13   O34   1.401183 S    
C7    H14   1.105131 S    
O10   C8    1.400857 S    
C14   H25   1.106526 S    
C16   O35   1.401636 S    
C57   C58   1.435308 A    
C39   O26   1.221032 D    
H30   C16   1.107055 S    
P5    O19   1.757675 S    
C30   C33   1.411021 A    
O33   H50   0.990080 S    
C21   C22   1.335355 D    
C34   O38   1.377238 S    
C17   O25   1.222027 D    
O40   H55   1.013903 S    
P3    O9    1.546597 D    
C34   C35   1.418716 A    
C61   C62   1.405776 A    
O11   C2    1.398308 S    
P8    O24   1.754962 S    
C3    H6    1.111684 S    
C31   C32   1.420436 A    
O31   H48   0.992173 S    
C26   C48   1.395195 A    
O6    P6    1.750642 S    
C13   C14   1.528524 S    
C22   C23   1.511335 S    
P4    O15   1.749871 S    
O29   H46   0.992830 S    
O14   P8    1.752652 S    
O3    Ba1   2.792462 S    
C66   O44   1.397594 S    
C24   C27   1.408067 A    
