data_mof_unit_10855.cif
_audit_creation_date              2012-12-10T18:04:02-0500
_audit_creation_method            fapswitch 2.2
_symmetry_space_group_name_H-M    P1
_symmetry_Int_Tables_number       1
_space_group_crystal_system       triclinic
_cell_length_a                    10.882726
_cell_length_b                    9.539654
_cell_length_c                    10.780204
_cell_angle_alpha                 89.943278
_cell_angle_beta                  89.731116
_cell_angle_gamma                 89.410848
_cell_volume                      1119.10120287

loop_
_atom_site_label
_atom_site_type_symbol
_atom_type_description
_atom_site_fract_x
_atom_site_fract_y
_atom_site_fract_z
_atom_type_partial_charge
C1    C     C_R   0.261940 0.500606 0.503101 0.848145
C2    C     C_R   0.737791 0.498802 0.502750 0.895429
C3    C     C_R   0.552823 0.073571 0.405017 -0.003622
C4    C     C_R   0.448660 0.074786 0.595997 0.001730
C5    C     C_R   0.552833 0.925120 0.404921 -0.037510
C6    C     C_R   0.448681 0.926226 0.595988 -0.054886
C7    C     C_R   0.505558 0.500224 0.262461 0.871730
C8    C     C_R   0.504589 0.500143 0.737428 0.873057
C9    C     C_R   0.462820 0.611033 0.063448 0.071940
C10   C     C_R   0.462078 0.610824 0.936514 0.069685
C11   C     C_R   0.519808 0.503239 0.129166 -0.242386
C12   C     C_R   0.518579 0.502841 0.870319 -0.234988
C13   C     C_R   0.598230 0.409078 0.064486 0.304777
C14   C     C_R   0.597381 0.408683 0.933661 0.298732
C15   C     C_3   0.333830 0.667546 0.930776 -0.446956
C16   C     C_3   0.335064 0.668416 0.071767 -0.427553
C17   C     C_R   0.064488 0.373874 0.527800 0.335610
C18   C     C_R   0.940051 0.370861 0.501814 0.377248
C19   C     C_R   0.871695 0.496732 0.510744 -0.238380
C20   C     C_R   0.127642 0.501342 0.512351 -0.243410
C21   C     C_R   0.933836 0.623051 0.532224 -0.089395
C22   C     C_R   0.058864 0.628043 0.504832 -0.077980
Cu1   Cu    Cu3+1 0.500000 0.640660 0.500000 0.952759
Cu2   Cu    Cu3+1 0.500000 0.359340 0.500000 1.028696
H1    H     H_    0.329937 0.774399 0.889699 0.195566
H2    H     H_    0.269563 0.593521 0.114454 0.195879
H3    H     H_    0.268076 0.591451 0.890994 0.200877
H4    H     H_    0.333448 0.775743 0.111607 0.207213
H5    H     H_    0.595830 0.128285 0.329164 0.207681
H6    H     H_    0.406428 0.130638 0.672564 0.171008
H7    H     H_    0.595944 0.869193 0.328865 0.145136
H8    H     H_    0.406500 0.871166 0.672547 0.129336
N1    N     N_R   0.500000 0.852070 0.500000 -0.165050
N2    N     N_R   0.500000 0.147940 0.500000 -0.174967
O1    O     O_R   0.319640 0.618740 0.499990 -0.595057
O2    O     O_R   0.680360 0.618740 0.500010 -0.593867
O3    O     O_R   0.319620 0.381170 0.499990 -0.540562
O4    O     O_R   0.680380 0.381170 0.500010 -0.510165
O5    O     O_R   0.499990 0.618810 0.319660 -0.594382
O6    O     O_R   0.500010 0.618810 0.680340 -0.595023
O7    O     O_R   0.499960 0.381240 0.319650 -0.563402
O8    O     O_R   0.500040 0.381240 0.680350 -0.553589
Cl1   Cl    Cl    0.699728 0.295884 0.144721 -0.558425
Cl2   Cl    Cl    0.696261 0.293550 0.851121 -0.592422
Cl3   Cl    Cl    0.132722 0.219688 0.588770 -0.620599
Cl4   Cl    Cl    0.878188 0.209638 0.453034 -0.569618
C23   C     C_R   0.878825 0.730714 0.615207 0.131756
C24   C     C_R   0.840661 0.862268 0.570709 -0.065814
C25   C     C_R   0.774305 0.953419 0.648596 -0.039518
C26   C     C_R   0.747457 0.914793 0.770709 -0.081835
C27   C     C_R   0.787094 0.785129 0.816010 -0.139689
C28   C     C_R   0.852257 0.693316 0.738683 -0.144685
H9    H     H_    0.857439 0.891298 0.475058 0.171838
H10   H     H_    0.740535 0.052778 0.614094 0.207566
H11   H     H_    0.694675 0.984589 0.829879 0.189463
H12   H     H_    0.765477 0.754687 0.910324 0.148743
H13   H     H_    0.879533 0.591332 0.774021 0.164055
C29   C     C_R   0.098976 0.745039 0.424597 0.128819
C30   C     C_R   0.164133 0.859276 0.471337 -0.033634
C31   C     C_R   0.203075 0.965311 0.390653 -0.053176
C32   C     C_R   0.171771 0.961809 0.265275 -0.102963
C33   C     C_R   0.103095 0.850837 0.219250 -0.135016
C34   C     C_R   0.068025 0.742044 0.298138 -0.175651
H14   H     H_    0.186838 0.864319 0.568879 0.137529
H15   H     H_    0.257839 0.050569 0.424565 0.181579
H16   H     H_    0.201199 0.044803 0.203746 0.145342
H17   H     H_    0.078817 0.847883 0.122036 0.156636
H18   H     H_    0.016418 0.655305 0.260843 0.150610

loop_
_geom_bond_atom_site_label_1
_geom_bond_atom_site_label_2
_ccdc_geom_bond_type
C22   C29   S    
Cu1   N1    S    
Cu2   O4    S    
Cu1   Cu2   S    
C16   H4    S    
C23   C28   A    
C3    H5    S    
Cu2   O8    S    
C9    C10   A    
C2    O4    A    
C15   H3    S    
C23   C24   A    
C6    N1    A    
C1    O3    A    
C8    C12   S    
C26   H11   S    
C32   C33   A    
Cu2   O3    S    
C2    C19   S    
C4    H6    S    
C30   C31   A    
C21   C22   A    
C7    C11   S    
Cu2   O7    S    
C11   C13   A    
C9    C11   A    
C30   H14   S    
C33   C34   A    
C10   C12   A    
C33   H17   S    
Cu1   O5    S    
C15   C16   S    
C18   Cl4   S    
C4    C6    A    
C24   C25   A    
C19   C21   A    
C9    C16   S    
C12   C14   A    
C31   H15   S    
C17   C18   A    
Cu1   O1    S    
C10   C15   S    
C7    O7    A    
C16   H2    S    
C24   H9    S    
C6    H8    S    
C4    N2    A    
C15   H1    S    
C28   H13   S    
C20   C22   A    
C17   Cl3   S    
Cu1   O6    S    
Cu1   O2    S    
C13   Cl1   S    
C17   C20   A    
C27   C28   A    
C1    O1    A    
C14   Cl2   S    
C27   H12   S    
C2    O2    A    
C29   C34   A    
C25   C26   A    
C21   C23   S    
C7    O5    A    
C34   H18   S    
C18   C19   A    
C1    C20   S    
C5    H7    S    
C8    O6    A    
C3    N2    A    
C26   C27   A    
C29   C30   A    
C13   C14   A    
C32   H16   S    
Cu2   N2    S    
C25   H10   S    
C8    O8    A    
C31   C32   A    
C3    C5    A    
C5    N1    A    
