data_mof_unit_9119.cif
_audit_creation_date              2013-03-05T16:07:56-0500
_audit_creation_method            fapswitch 2.2
_symmetry_space_group_name_H-M    P1
_symmetry_Int_Tables_number       1
_space_group_crystal_system       triclinic
_cell_length_a                    6.999966
_cell_length_b                    14.450828
_cell_length_c                    16.173869
_cell_angle_alpha                 89.928219
_cell_angle_beta                  90.555877
_cell_angle_gamma                 89.782647
_cell_volume                      1635.98251586

loop_
_atom_site_label
_atom_site_type_symbol
_atom_site_description
_atom_site_fract_x
_atom_site_fract_y
_atom_site_fract_z
_atom_type_partial_charge
O1    O     O_R   0.494380 0.415640 0.412830 -0.603096
O2    O     O_R   0.823960 0.405540 0.586560 -0.611630
O3    O     O_R   0.994270 0.584360 0.587170 -0.559117
C1    C     C_R   0.655624 0.381460 0.613441 0.937316
O4    O     O_R   0.824090 0.404620 0.413450 -0.603261
O5    O     O_R   0.994400 0.583430 0.412820 -0.591917
C2    C     C_R   0.655493 0.382941 0.384344 0.926808
O6    O     O_R   0.494250 0.416570 0.587180 -0.572335
O7    O     O_3   0.660800 0.558670 0.500000 -0.230555
V1    V     V_3+5 0.935650 0.489120 0.500000 1.217058
O8    O     O_R   0.324110 0.594460 0.413440 -0.598108
C3    C     C_R   0.153708 0.618524 0.386840 0.978350
O9    O     O_R   0.323980 0.595380 0.586550 -0.552670
C4    C     C_R   0.156801 0.622010 0.612160 1.108811
V2    V     V_3+5 0.435660 0.510880 0.500000 1.244106
O10   O     O_3   0.160640 0.441330 0.500000 -0.295495
C5    C     C_3   0.981469 0.669449 0.739925 -0.392373
H1    H     H_    0.852923 0.675601 0.701718 0.252998
H2    H     H_    0.989892 0.596140 0.759791 0.255747
C6    C     C_3   0.958464 0.735773 0.814458 0.384007
H3    H     H_    0.823818 0.775328 0.806722 0.143612
H4    H     H_    0.986807 0.902120 0.729318 0.231097
C7    C     C_3   0.135896 0.795798 0.654678 0.409565
C8    C     C_3   0.346443 0.688341 0.741399 0.620094
C9    C     C_3   0.155440 0.691954 0.684514 -0.468486
C10   C     C_3   0.125251 0.806253 0.815167 -0.272039
C11   C     C_3   0.120227 0.860610 0.731584 -0.510582
C12   C     C_3   0.310997 0.747282 0.822084 -0.400594
H5    H     H_    0.301004 0.703602 0.877514 0.240761
H6    H     H_    0.435449 0.790476 0.839241 0.222815
H7    H     H_    0.270612 0.814143 0.623615 0.137448
H8    H     H_    0.239197 0.911469 0.730685 0.192906
C13   C     C_R   0.265543 0.746613 0.189555 0.083010
C14   C     C_R   0.118522 0.812215 0.181351 -0.228128
C15   C     C_R   0.969541 0.807149 0.239692 0.026530
H9    H     H_    0.849797 0.854473 0.235471 0.130504
C16   C     C_R   0.978383 0.743858 0.306571 -0.097547
H10   H     H_    0.864551 0.743512 0.351303 0.162827
C17   C     C_R   0.138901 0.685720 0.318087 -0.197352
C18   C     C_R   0.277278 0.687820 0.257314 0.144341
C19   C     C_3   0.488096 0.694699 0.264521 -0.576524
C20   C     C_3   0.477688 0.754479 0.186997 0.312642
H11   H     H_    0.559830 0.626452 0.257187 0.231558
H12   H     H_    0.532163 0.734132 0.320428 0.190487
H13   H     H_    0.530539 0.826348 0.194705 0.069422
C21   C     C_R   0.499899 0.245556 0.683681 0.146144
C22   C     C_R   0.648658 0.310135 0.679277 -0.169275
C23   C     C_R   0.796844 0.302013 0.738550 -0.082104
H14   H     H_    0.917326 0.348618 0.736880 0.158693
C24   C     C_R   0.784343 0.237912 0.804182 -0.143717
H15   H     H_    0.896691 0.236517 0.850606 0.139696
C25   C     C_R   0.622925 0.180438 0.812659 -0.207546
C26   C     C_R   0.487411 0.182685 0.748512 0.191161
C27   C     C_3   0.274966 0.188637 0.750025 -0.482103
C28   C     C_3   0.288241 0.256751 0.678357 -0.421132
H16   H     H_    0.222291 0.220642 0.807947 0.207322
H17   H     H_    0.206200 0.122157 0.732565 0.196625
H18   H     H_    0.240405 0.327591 0.694434 0.243429
H19   H     H_    0.228470 0.229126 0.619484 0.187177
C29   C     C_R   0.499217 0.248905 0.310885 0.114137
C30   C     C_R   0.648669 0.312297 0.317329 -0.181053
C31   C     C_R   0.796784 0.303486 0.259216 -0.103858
H20   H     H_    0.917847 0.349650 0.261999 0.119632
C32   C     C_R   0.783751 0.239286 0.193304 -0.014424
H21   H     H_    0.895590 0.238072 0.147642 0.119184
C33   C     C_R   0.623233 0.181060 0.183681 -0.262270
C34   C     C_R   0.487255 0.184119 0.247180 0.132577
C35   C     C_3   0.273839 0.192086 0.245003 0.388254
C36   C     C_3   0.289699 0.263910 0.313777 -0.618616
H22   H     H_    0.218827 0.220515 0.185526 0.031835
H23   H     H_    0.231002 0.243219 0.374536 0.232717
H24   H     H_    0.249259 0.334809 0.293281 0.180933
O11   O     O_R   0.771490 0.080820 0.910070 -0.610657
O12   O     O_R   0.441590 0.092730 0.083780 -0.595566
O13   O     O_R   0.271350 0.913900 0.084390 -0.611444
C37   C     C_R   0.610550 0.114463 0.113098 0.960549
O14   O     O_R   0.441780 0.091820 0.910670 -0.603001
O15   O     O_R   0.271540 0.912980 0.910040 -0.608442
C38   C     C_R   0.610163 0.113943 0.882228 0.934500
O16   O     O_R   0.771300 0.081740 0.084420 -0.566072
O17   O     O_3   0.604960 0.938700 0.997240 -0.234455
V3    V     V_3+5 0.330090 0.008230 0.997220 1.215821
O18   O     O_R   0.941820 0.901930 0.910640 -0.572795
C39   C     C_R   0.111390 0.876967 0.884649 1.001157
O19   O     O_R   0.941630 0.902840 0.083750 -0.547527
C40   C     C_R   0.110997 0.880312 0.112204 1.084594
V4    V     V_3+5 0.830090 0.986410 0.997190 1.276829
O20   O     O_3   0.105080 0.055990 0.997200 -0.287770
S1    S     S_3+6 0.567845 0.694403 0.099693 0.017867
O21   O     O_2   0.776737 0.675399 0.113053 -0.227585
O22   O     O_2   0.465485 0.603932 0.088045 -0.263089
O23   O     O_3   0.534370 0.760414 0.015640 -0.443635
H25   H     H_    0.394087 0.761887 0.007374 0.335419
S2    S     S_3+6 0.157982 0.087848 0.277653 -0.029363
O24   O     O_2   0.054290 0.047514 0.204873 -0.297615
O25   O     O_2   0.302012 0.018417 0.309158 -0.296922
O26   O     O_3   0.997096 0.110400 0.351748 -0.508269
H26   H     H_    0.062549 0.095354 0.404676 0.366960
S3    S     S_3+6 0.930787 0.670417 0.909354 0.025502
O27   O     O_2   0.048251 0.583358 0.909410 -0.236945
O28   O     O_2   0.986707 0.727083 0.983267 -0.285457
O29   O     O_3   0.701536 0.640102 0.916644 -0.410872
H27   H     H_    0.702641 0.583309 0.951006 0.427846
S4    S     S_3+6 0.966162 0.825709 0.572802 -0.028197
O30   O     O_2   0.074600 0.874623 0.505986 -0.296855
O31   O     O_2   0.872332 0.742762 0.534933 -0.265835
O32   O     O_3   0.795600 0.898442 0.606106 -0.478911
H28   H     H_    0.715222 0.911746 0.556731 0.389915
N1    N     N_R   0.508812 0.732044 0.696908 0.187139
O33   O     O_R   0.563065 0.815965 0.714311 -0.443515
O34   O     O_R   0.572234 0.697795 0.628410 -0.367646
S5    S     S_3+6 0.412408 0.568483 0.771104 0.003310
O35   O     O_2   0.395711 0.551382 0.862188 -0.182770
O36   O     O_2   0.287721 0.498067 0.729215 -0.353532
O37   O     O_3   0.639871 0.545508 0.746886 -0.526050
H29   H     H_    0.641935 0.543415 0.685948 0.356955

loop_
_geom_bond_atom_site_label_1
_geom_bond_atom_site_label_2
_geom_bond_distance
_ccdc_geom_bond_type
O18   V4    2.019882 S    
V4    O20   2.175086 S    
C28   H19   1.111576 S    
C19   C20   1.522760 S    
C15   H9    1.081358 S    
C8    S5    1.852452 S    
C1    O6    1.303709 A    
S4    O31   1.497764 D    
O26   H26   0.990544 S    
C26   C27   1.489707 S    
C10   C11   1.562682 S    
C31   H20   1.081128 S    
O12   C37   1.309428 A    
O18   C39   1.312470 A    
C13   C20   1.490751 S    
C29   C36   1.482940 S    
C12   H5    1.098728 S    
C15   C16   1.416404 A    
O16   V4    2.017287 S    
N1    O34   1.295634 A    
O5    C3    1.300062 A    
V2    O10   2.175073 S    
C5    C6    1.550223 S    
C14   C15   1.415206 A    
C14   C40   1.489171 S    
C36   H23   1.109952 S    
S5    O35   1.499214 D    
C31   C32   1.416585 A    
C21   C22   1.403186 A    
O8    V2    1.998984 S    
O11   V4    1.998694 S    
C7    S4    1.821063 S    
C29   C34   1.395155 A    
C35   C36   1.525869 S    
C21   C28   1.491445 S    
C24   C25   1.412508 A    
O32   H28   0.990629 S    
O1    V2    2.015618 S    
C7    C11   1.562438 S    
S1    O22   1.504409 D    
C25   C38   1.482326 S    
O7    V1    2.167260 S    
C23   C24   1.411553 A    
C33   C34   1.407657 A    
O9    C4    1.302125 A    
C19   H11   1.111994 S    
C30   C31   1.411680 A    
O12   V3    2.012607 S    
S5    O36   1.501082 D    
S4    O30   1.503915 D    
O17   V3    2.167247 S    
O14   C38   1.310003 A    
C27   H16   1.110857 S    
C13   C18   1.387447 A    
O19   V4    1.998868 S    
C34   C35   1.497969 S    
C22   C23   1.410073 A    
C37   O16   1.308272 A    
S5    O37   1.675492 S    
C8    C9    1.616271 S    
C17   C18   1.387073 A    
O4    C2    1.305743 A    
S2    O26   1.683771 S    
C24   H15   1.082156 S    
O19   C40   1.307456 A    
C35   S2    1.794757 S    
C29   C30   1.396385 A    
C20   H13   1.110564 S    
C7    H7    1.105761 S    
C36   H24   1.111244 S    
O2    C1    1.308156 A    
C16   H10   1.081474 S    
O15   V3    2.012140 S    
O13   C40   1.308153 A    
S3    O27   1.500323 D    
C33   C37   1.496247 S    
C5    H1    1.089921 S    
O11   C38   1.301021 A    
S2    O24   1.496855 D    
S1    O23   1.673868 S    
S2    O25   1.504618 D    
O17   V4    1.722521 S    
O3    C4    1.322912 A    
C23   H14   1.081800 S    
S3    O28   1.499560 D    
O6    V2    1.998378 S    
H4    C11   1.108348 S    
O9    V2    2.019916 S    
C19   H12   1.111181 S    
O2    V1    2.013511 S    
C25   C26   1.399252 A    
C27   C28   1.523499 S    
C18   C19   1.482913 S    
C10   C39   1.523430 S    
C11   H8    1.112995 S    
O1    C2    1.309212 A    
C8    N1    1.492866 S    
C8    C12   1.580350 S    
O5    V1    2.006342 S    
O8    C3    1.309703 A    
O13   V3    2.006408 S    
C10   C12   1.554931 S    
C20   S1    1.778223 S    
C5    C9    1.554168 S    
C32   H21   1.081560 S    
C3    C17   1.478010 S    
C12   H6    1.106977 S    
O7    V2    1.723044 S    
O4    V1    2.012656 S    
C16   C17   1.411181 A    
O3    V1    2.012025 S    
V1    O10   1.717283 S    
N1    O33   1.302478 A    
C6    S3    1.813501 S    
C6    C10   1.552196 S    
O14   V3    2.013485 S    
V3    O20   1.717236 S    
C21   C26   1.390165 A    
O23   H25   0.989897 S    
C5    H2    1.107835 S    
C13   C14   1.401818 A    
C7    C9    1.580767 S    
C4    C9    1.547344 S    
O29   H27   0.990559 S    
O15   C39   1.300865 A    
S3    O29   1.670306 S    
C6    H3    1.106423 S    
C35   H22   1.110443 S    
C28   H18   1.107906 S    
S1    O21   1.500310 D    
C1    C22   1.482306 S    
S4    O32   1.680678 S    
C2    C30   1.490431 S    
O37   H29   0.986348 S    
C32   C33   1.413801 A    
C27   H17   1.111727 S    
