data_mof_unit_27383.cif
_audit_creation_date              2012-12-10T19:05:20-0500
_audit_creation_method            fapswitch 2.2
_symmetry_space_group_name_H-M    P1
_symmetry_Int_Tables_number       1
_space_group_crystal_system       triclinic
_cell_length_a                    9.536153
_cell_length_b                    10.860223
_cell_length_c                    17.228628
_cell_angle_alpha                 90.215864
_cell_angle_beta                  85.5925
_cell_angle_gamma                 89.989991
_cell_volume                      1778.98905621

loop_
_atom_site_label
_atom_site_type_symbol
_atom_type_description
_atom_site_fract_x
_atom_site_fract_y
_atom_site_fract_z
_atom_type_partial_charge
C1    C     C_R   0.500156 0.737299 0.499820 0.781432
C2    C     C_R   0.366896 0.447121 0.777849 -0.227715
C3    C     C_R   0.449264 0.409234 0.147084 0.021635
C4    C     C_R   0.440668 0.420940 0.227932 -0.173374
C5    C     C_R   0.634890 0.567994 0.220871 -0.033826
C6    C     C_R   0.644294 0.557350 0.139115 0.196738
C7    C     C_R   0.549922 0.479964 0.102404 0.004049
C8    C     C_2   0.441574 0.523240 0.982101 -0.235727
C9    C     C_2   0.552185 0.481098 0.017154 -0.274260
C10   C     C_R   0.531259 0.499161 0.264871 -0.206111
C11   C     C_R   0.379357 0.937931 0.496192 0.038727
C12   C     C_R   0.481250 0.504235 0.649983 0.796755
C13   C     C_R   0.501828 0.869867 0.499672 -0.111921
C14   C     C_R   0.629129 0.935360 0.503126 -0.193085
C15   C     C_R   0.629157 0.064505 0.503194 -0.207760
C16   C     C_R   0.501830 0.130062 0.500058 -0.088476
C17   C     C_R   0.379341 0.062054 0.496868 0.107079
C18   C     C_3   0.224293 0.071602 0.491966 -0.535111
C19   C     C_3   0.224036 0.929435 0.491376 -0.196821
C20   C     C_R   0.931677 0.410676 0.460715 0.228425
C21   C     C_R   0.919503 0.581640 0.543946 -0.035795
C22   C     C_R   0.068350 0.581168 0.544330 0.002152
C23   C     C_R   0.500182 0.262679 0.499952 0.809880
C24   C     C_R   0.079238 0.411024 0.460435 0.229408
C25   C     C_3   0.096066 0.386623 0.374933 -0.451761
C26   C     C_3   0.937045 0.385072 0.375463 -0.446211
C27   C     C_R   0.518979 0.501726 0.349958 0.787179
C28   C     C_R   0.469421 0.516047 0.734703 -0.122350
C29   C     C_R   0.556391 0.598200 0.773111 0.145713
C30   C     C_R   0.544533 0.605052 0.854349 0.209522
C31   C     C_R   0.446865 0.528978 0.897204 0.077662
C32   C     C_R   0.355881 0.453455 0.858663 -0.185440
Cu1   Cu    Cu3+1 0.359330 0.500020 0.500000 0.960762
Cu2   Cu    Cu3+1 0.640670 0.499980 0.500000 0.945880
H1    H     H_    0.728349 0.887589 0.505843 0.179778
H2    H     H_    0.728428 0.112231 0.505784 0.166433
H3    H     H_    0.170620 0.112191 0.545636 0.200456
H4    H     H_    0.197156 0.114825 0.436705 0.188450
H5    H     H_    0.168901 0.887816 0.544175 0.166196
H6    H     H_    0.859061 0.650011 0.577748 0.123884
H7    H     H_    0.119463 0.648525 0.578939 0.125721
H8    H     H_    0.144153 0.465171 0.341369 0.242253
H9    H     H_    0.364918 0.366194 0.262941 0.184437
H10   H     H_    0.144918 0.295619 0.360869 0.187021
H11   H     H_    0.895332 0.462054 0.341710 0.240994
H12   H     H_    0.893848 0.292770 0.362659 0.193876
H13   H     H_    0.648422 0.455101 0.983193 0.168562
H14   H     H_    0.279321 0.396324 0.891336 0.152742
H15   H     H_    0.297817 0.385711 0.748974 0.161081
H16   H     H_    0.344272 0.547197 0.015782 0.176153
N1    N     N_R   0.852130 0.499070 0.499500 -0.185373
N2    N     N_R   0.148040 0.499110 0.499500 -0.181200
O1    O     O_R   0.381190 0.680360 0.500000 -0.572397
O2    O     O_R   0.618770 0.680320 0.499990 -0.590596
O3    O     O_R   0.367430 0.500040 0.613600 -0.585379
O4    O     O_R   0.605020 0.500000 0.613590 -0.590965
O5    O     O_R   0.381230 0.319680 0.500010 -0.580909
O6    O     O_R   0.618810 0.319640 0.500000 -0.586013
O7    O     O_R   0.394980 0.500000 0.386410 -0.569924
O8    O     O_R   0.632570 0.499960 0.386400 -0.590516
N3    N     N_3   0.655681 0.677279 0.731052 -0.558556
H17   H     H_    0.604887 0.724724 0.688548 0.209335
H18   H     H_    0.736123 0.623120 0.704348 0.226114
N4    N     N_3   0.744128 0.631553 0.093552 -0.518468
H19   H     H_    0.689251 0.690915 0.059139 0.217752
H20   H     H_    0.808525 0.573953 0.057499 0.217809
C33   C     C_2   0.185834 0.874826 0.415549 0.443957
H21   H     H_    0.238616 0.905410 0.360913 0.077794
O9    O     O_2   0.095016 0.795796 0.414880 -0.537247
C34   C     C_2   0.726174 0.656688 0.259961 0.421011
H22   H     H_    0.690323 0.697426 0.315571 0.068593
O10   O     O_2   0.842872 0.684373 0.231213 -0.493471
C35   C     C_2   0.355183 0.320522 0.110395 0.359351
H23   H     H_    0.370093 0.299638 0.048721 0.091451
O11   O     O_2   0.259903 0.268684 0.148858 -0.544693
N5    N     N_3   0.631068 0.691401 0.891944 -0.556370
H24   H     H_    0.704132 0.642940 0.922008 0.209584
H25   H     H_    0.567373 0.744060 0.931470 0.224035

loop_
_geom_bond_atom_site_label_1
_geom_bond_atom_site_label_2
_ccdc_geom_bond_type
C10   C27   S    
C24   N2    A    
C23   O6    A    
Cu1   O3    S    
C35   O11   D    
C35   H23   S    
Cu1   N2    S    
Cu2   O4    S    
C11   C19   S    
Cu2   N1    S    
C5    C34   S    
C12   C28   S    
C2    C32   A    
C28   C29   A    
C18   H3    S    
N5    H25   S    
C20   N1    A    
C3    C7    A    
C27   O8    A    
C5    C6    A    
C22   H7    S    
C15   C16   A    
C23   O5    A    
C18   C19   S    
C6    N4    S    
N3    H18   S    
C1    O1    A    
C26   H11   S    
C20   C24   A    
C8    C9    D    
C19   C33   S    
C34   H22   S    
Cu1   O7    S    
C21   C22   A    
Cu2   O8    S    
C32   H14   S    
C25   H10   S    
C17   C18   S    
Cu1   O1    S    
C29   N3    S    
C33   H21   S    
N5    H24   S    
C14   H1    S    
C16   C17   A    
C25   C26   S    
C33   O9    D    
N4    H20   S    
C1    O2    A    
C29   C30   A    
C2    H15   S    
C30   N5    S    
C31   C32   A    
Cu1   Cu2   S    
C24   C25   S    
C12   O4    A    
C19   H5    S    
C9    H13   S    
C16   C23   S    
C1    C13   S    
C4    C10   A    
C3    C4    A    
C8    H16   S    
C15   H2    S    
C21   N1    A    
C22   N2    A    
C7    C9    S    
C11   C17   A    
Cu1   O5    S    
C8    C31   S    
C25   H8    S    
C2    C28   A    
Cu2   O2    S    
C6    C7    A    
C4    H9    S    
N4    H19   S    
C18   H4    S    
C5    C10   A    
C27   O7    A    
C11   C13   A    
C30   C31   A    
C21   H6    S    
C20   C26   S    
N3    H17   S    
C3    C35   S    
C12   O3    A    
C26   H12   S    
Cu2   O6    S    
C14   C15   A    
C34   O10   D    
C13   C14   A    
