data_mof_unit_5381.cif
_audit_creation_date              2012-12-10T18:58:43-0500
_audit_creation_method            fapswitch 2.2
_symmetry_space_group_name_H-M    P1
_symmetry_Int_Tables_number       1
_space_group_crystal_system       triclinic
_cell_length_a                    12.962968
_cell_length_b                    10.860671
_cell_length_c                    9.548625
_cell_angle_alpha                 90.702261
_cell_angle_beta                  95.51614
_cell_angle_gamma                 90.284358
_cell_volume                      1337.96648682

loop_
_atom_site_label
_atom_site_type_symbol
_atom_type_description
_atom_site_fract_x
_atom_site_fract_y
_atom_site_fract_z
_atom_type_partial_charge
C1    C     C_R   0.495357 0.262483 0.497891 0.784438
C2    C     C_R   0.024919 0.533582 0.543618 0.141836
C3    C     C_R   0.976785 0.436199 0.459983 0.147928
C4    C     C_R   0.868770 0.415769 0.460416 0.075654
C5    C     C_R   0.861203 0.591576 0.622627 -0.243296
C6    C     C_R   0.967169 0.608405 0.626103 -0.216853
C7    C     C_R   0.533928 0.066908 0.613434 0.094364
C8    C     C_R   0.494629 0.128858 0.492946 -0.141532
C9    C     C_R   0.462964 0.059440 0.368439 0.142796
C10   C     C_R   0.469271 0.930981 0.372873 -0.249204
C11   C     C_R   0.500711 0.870624 0.498762 -0.134749
C12   C     C_R   0.301066 0.497605 0.474483 0.791068
C13   C     C_R   0.536869 0.940180 0.617033 0.112513
C14   C     C_3   0.505434 0.938044 0.763628 -0.469393
C15   C     C_3   0.502096 0.077221 0.759097 -0.456001
C16   C     C_R   0.588325 0.525861 0.085226 0.237246
C17   C     C_R   0.415478 0.461836 0.062796 -0.080284
C18   C     C_R   0.415349 0.462188 0.914085 -0.093642
C19   C     C_R   0.589055 0.523499 0.938292 0.274230
C20   C     C_3   0.654412 0.636743 0.941315 -0.514530
C21   C     C_3   0.651526 0.641029 0.100049 -0.498805
C22   C     C_R   0.499699 0.737496 0.500499 0.813922
C23   C     C_R   0.699074 0.497069 0.525418 0.806392
C24   C     C_R   0.811608 0.498513 0.538650 -0.078158
C25   C     C_R   0.189801 0.482708 0.461647 -0.028395
C26   C     C_R   0.038706 0.362823 0.378715 -0.211391
C27   C     C_R   0.143802 0.387819 0.377484 -0.216642
C28   C     C_R   0.131054 0.554613 0.545288 -0.258449
Cu1   Cu    Cu3+1 0.499990 0.499980 0.640670 0.933947
Cu2   Cu    Cu3+1 0.500010 0.500020 0.359330 0.930921
H1    H     H_    0.568283 0.905629 0.840973 0.186776
H2    H     H_    0.422724 0.114976 0.762220 0.199402
H3    H     H_    0.563013 0.122507 0.832323 0.201567
H4    H     H_    0.346631 0.431925 0.108446 0.142071
H5    H     H_    0.346281 0.432859 0.849750 0.147181
H6    H     H_    0.732888 0.617525 0.908960 0.195542
H7    H     H_    0.613548 0.713733 0.885998 0.210439
H8    H     H_    0.728679 0.626341 0.158686 0.202216
H9    H     H_    0.607517 0.720680 0.137318 0.214898
H10   H     H_    0.816988 0.654353 0.682258 0.148768
H11   H     H_    0.007930 0.285449 0.315890 0.150603
H12   H     H_    0.003686 0.682214 0.690714 0.141840
H13   H     H_    0.190187 0.329695 0.315356 0.127952
H14   H     H_    0.168349 0.627006 0.611629 0.133250
H15   H     H_    0.443330 0.877824 0.279070 0.167636
H16   H     H_    0.428276 0.894454 0.770326 0.205587
N1    N     N_R   0.500660 0.500930 0.148010 -0.181465
N2    N     N_R   0.500660 0.500890 0.852110 -0.184823
O1    O     O_R   0.500000 0.319640 0.618810 -0.578099
O2    O     O_R   0.500010 0.319680 0.381230 -0.578120
O3    O     O_R   0.348990 0.499960 0.599490 -0.589889
O4    O     O_R   0.349000 0.500000 0.361910 -0.592932
O5    O     O_R   0.499990 0.680320 0.618770 -0.578371
O6    O     O_R   0.500000 0.680360 0.381190 -0.582279
O7    O     O_R   0.651000 0.500000 0.638090 -0.584241
O8    O     O_R   0.651010 0.500040 0.400510 -0.573857
C29   C     C_3   0.816149 0.302743 0.387898 -0.399187
C30   C     C_3   0.794364 0.318499 0.228976 -0.817630
H17   H     H_    0.865947 0.336965 0.177927 0.239349
H18   H     H_    0.757333 0.233490 0.181400 0.230295
H19   H     H_    0.741192 0.396130 0.206361 0.266338
H20   H     H_    0.864417 0.219832 0.410387 0.187731
H21   H     H_    0.741806 0.281342 0.431478 0.197734
C31   C     C_3   0.412108 0.114753 0.234029 -0.372057
C32   C     C_3   0.491074 0.137279 0.128250 -0.798644
H22   H     H_    0.555377 0.197492 0.173960 0.269253
H23   H     H_    0.523806 0.048390 0.095165 0.240158
H24   H     H_    0.452264 0.182745 0.034107 0.229190
H25   H     H_    0.351492 0.050813 0.184644 0.179838
H26   H     H_    0.369448 0.200284 0.254742 0.200051

loop_
_geom_bond_atom_site_label_1
_geom_bond_atom_site_label_2
_ccdc_geom_bond_type
C4    C29   S    
C17   H4    S    
C23   C24   S    
Cu2   O8    S    
C23   O7    A    
C16   C21   S    
C18   N2    A    
C31   H26   S    
C25   C27   A    
C1    C8    S    
C11   C13   A    
C9    C10   A    
C12   C25   S    
C11   C22   S    
C19   C20   S    
C21   H9    S    
C14   H1    S    
C32   H24   S    
C31   C32   S    
Cu2   O2    S    
C10   H15   S    
C7    C15   S    
C17   C18   A    
C29   C30   S    
C23   O8    A    
C22   O6    A    
Cu1   O1    S    
C31   H25   S    
C25   C28   A    
C20   H7    S    
Cu2   O6    S    
C26   C27   A    
Cu1   Cu2   S    
C5    C24   A    
Cu1   O5    S    
C30   H19   S    
C16   C19   A    
C16   N1    A    
C12   O4    A    
Cu1   O3    S    
C29   H21   S    
C22   O5    A    
C2    C3    A    
C6    H12   S    
C5    C6    A    
C4    C24   A    
C7    C8    A    
C10   C11   A    
C26   H11   S    
Cu1   N2    S    
C30   H18   S    
C3    C4    A    
C9    C31   S    
C27   H13   S    
Cu2   N1    S    
C7    C13   A    
C12   O3    A    
C20   C21   S    
C18   H5    S    
C28   H14   S    
C14   H16   S    
C32   H22   S    
C1    O2    A    
C5    H10   S    
Cu2   O4    S    
C14   C15   S    
C2    C28   A    
Cu1   O7    S    
C29   H20   S    
C30   H17   S    
C13   C14   S    
C15   H2    S    
C1    O1    A    
C15   H3    S    
C3    C26   A    
C21   H8    S    
C2    C6    A    
C17   N1    A    
C19   N2    A    
C8    C9    A    
C32   H23   S    
C20   H6    S    
