data_mof_unit_53447.cif
_audit_creation_date              2013-03-05T16:38:39-0500
_audit_creation_method            fapswitch 2.2
_symmetry_space_group_name_H-M    P1
_symmetry_Int_Tables_number       1
_space_group_crystal_system       triclinic
_cell_length_a                    15.944081
_cell_length_b                    16.006565
_cell_length_c                    14.751798
_cell_angle_alpha                 89.29868
_cell_angle_beta                  91.01519
_cell_angle_gamma                 89.631771
_cell_volume                      3763.84986844

loop_
_atom_site_label
_atom_site_type_symbol
_atom_site_description
_atom_site_fract_x
_atom_site_fract_y
_atom_site_fract_z
_atom_type_partial_charge
O1    O     O_R   0.500040 0.380310 0.575320 -0.553480
O2    O     O_R   0.499960 0.619690 0.424680 -0.549618
O3    O     O_R   0.500000 0.380310 0.424640 -0.575471
O4    O     O_R   0.500000 0.619690 0.575360 -0.579991
C1    C     C_R   0.500435 0.340940 0.500516 0.822485
C2    C     C_R   0.500047 0.659065 0.499472 0.821970
O5    O     O_R   0.379100 0.499990 0.575330 -0.579688
O6    O     O_R   0.620900 0.500010 0.424670 -0.578295
O7    O     O_R   0.379060 0.499990 0.424640 -0.568483
O8    O     O_R   0.620940 0.500010 0.575360 -0.567106
C3    C     C_R   0.339564 0.500612 0.499210 0.826365
C4    C     C_R   0.660396 0.499401 0.500784 0.831898
Cu1   Cu    Cu3+1 0.500020 0.500000 0.589220 0.997574
Cu2   Cu    Cu3+1 0.499980 0.500000 0.410780 1.002584
C5    C     C_3   0.972020 0.431053 0.533815 0.340682
C6    C     C_3   0.027797 0.573323 0.467408 0.340928
C7    C     C_3   0.026747 0.438733 0.449067 -0.125838
C8    C     C_3   0.972852 0.565649 0.552102 -0.127464
C9    C     C_1   0.250404 0.501503 0.497588 -0.169473
C10   C     C_1   0.749470 0.499627 0.502423 -0.165469
C11   C     C_3   0.029319 0.491653 0.586543 -0.130397
C12   C     C_3   0.970414 0.512812 0.414590 -0.126315
C13   C     C_3   0.084118 0.500413 0.501125 -0.050162
C14   C     C_3   0.915594 0.503905 0.499981 -0.048511
C15   C     C_1   0.175271 0.501621 0.498133 0.002964
C16   C     C_1   0.824549 0.500933 0.502210 0.003266
C17   C     C_R   0.528425 0.954010 0.577940 -0.157913
C18   C     C_R   0.480020 0.046017 0.420330 -0.158641
C19   C     C_R   0.503622 0.912577 0.498013 -0.083451
C20   C     C_R   0.504240 0.087433 0.500471 -0.083707
C21   C     C_R   0.479588 0.958002 0.419195 0.316138
C22   C     C_R   0.528581 0.042022 0.579163 0.317679
C23   C     C_1   0.502054 0.822801 0.497280 0.069445
C24   C     C_1   0.503369 0.177208 0.502032 0.070911
C25   C     C_1   0.502012 0.252101 0.501772 -0.126524
C26   C     C_1   0.500964 0.747911 0.498070 -0.127837
H1    H     H_    0.628154 0.535798 0.088901 0.132796
H2    H     H_    0.372289 0.463157 0.911301 0.132803
C27   C     C_R   0.574662 0.520053 0.954159 0.031438
C28   C     C_R   0.425855 0.479050 0.045931 0.031149
C29   C     C_R   0.501637 0.499214 0.902912 -0.008581
C30   C     C_R   0.498748 0.500204 0.097135 -0.006882
C31   C     C_R   0.428420 0.478689 0.949902 -0.208984
C32   C     C_R   0.572009 0.520505 0.050197 -0.205429
C33   C     C_1   0.500081 0.499864 0.802667 0.129974
C34   C     C_1   0.500112 0.499909 0.197353 0.138421
N1    N     N_1   0.500030 0.499980 0.276710 -0.148621
N2    N     N_1   0.499970 0.500020 0.723290 -0.149751
C35   C     C_R   0.050903 0.362669 0.395541 0.139515
C36   C     C_R   0.994578 0.329997 0.330922 -0.119378
C37   C     C_R   0.016085 0.259237 0.281586 -0.138022
C38   C     C_R   0.093127 0.219294 0.297730 -0.106591
C39   C     C_R   0.148226 0.249498 0.364051 -0.135950
C40   C     C_R   0.127178 0.320521 0.413124 -0.093717
H3    H     H_    0.933814 0.358847 0.318796 0.143476
H4    H     H_    0.972747 0.235053 0.231228 0.144432
H5    H     H_    0.109670 0.164376 0.259711 0.147611
H6    H     H_    0.206992 0.217457 0.378072 0.128971
H7    H     H_    0.169958 0.341052 0.465710 0.135721
C41   C     C_R   0.949628 0.641085 0.607200 0.141292
C42   C     C_R   0.010193 0.677467 0.664448 -0.108018
C43   C     C_R   0.989843 0.746951 0.716388 -0.126756
C44   C     C_R   0.909350 0.781741 0.710428 -0.116748
C45   C     C_R   0.849413 0.747590 0.651780 -0.136313
C46   C     C_R   0.869439 0.677907 0.600020 -0.103885
H8    H     H_    0.073226 0.652074 0.669038 0.141038
H9    H     H_    0.036630 0.774024 0.761013 0.143522
H10   H     H_    0.893691 0.835609 0.750553 0.133987
H11   H     H_    0.787439 0.775292 0.646015 0.140447
H12   H     H_    0.822414 0.654391 0.553751 0.134884
N3    N     N_R   0.943921 0.351094 0.570550 0.128512
O9    O     O_R   0.998911 0.295218 0.597073 -0.334091
O10   O     O_R   0.864432 0.335280 0.577836 -0.350936
N4    N     N_R   0.056123 0.653178 0.430709 0.129446
O11   O     O_R   0.001311 0.709462 0.404815 -0.330804
O12   O     O_R   0.135667 0.668615 0.423192 -0.354027
C47   C     C_R   0.947104 0.528665 0.315921 0.141360
C48   C     C_R   0.011442 0.534217 0.252489 -0.094231
C49   C     C_R   0.992852 0.546338 0.160300 -0.134160
C50   C     C_R   0.909485 0.553762 0.130527 -0.111124
C51   C     C_R   0.844840 0.549251 0.193051 -0.125538
C52   C     C_R   0.863378 0.536808 0.285340 -0.125514
H13   H     H_    0.076021 0.528652 0.274901 0.128266
H14   H     H_    0.043087 0.549868 0.112011 0.137569
H15   H     H_    0.894973 0.563120 0.059131 0.135164
H16   H     H_    0.780229 0.555250 0.169966 0.130307
H17   H     H_    0.811994 0.533578 0.331533 0.142376
C53   C     C_R   0.053022 0.477330 0.685368 0.145329
C54   C     C_R   0.988963 0.465266 0.748109 -0.089938
C55   C     C_R   0.007767 0.454451 0.840430 -0.136833
C56   C     C_R   0.091115 0.455225 0.871081 -0.109541
C57   C     C_R   0.155539 0.466866 0.809334 -0.125767
C58   C     C_R   0.136761 0.477997 0.716927 -0.138884
H18   H     H_    0.924391 0.464391 0.725067 0.131610
H19   H     H_    0.957696 0.445592 0.888147 0.138628
H20   H     H_    0.105784 0.446911 0.942583 0.134910
H21   H     H_    0.220136 0.467669 0.833144 0.129888
H22   H     H_    0.187915 0.487919 0.671516 0.143137
N5    N     N_R   0.552181 0.085224 0.660646 0.125896
O13   O     O_R   0.608741 0.143432 0.658603 -0.339093
O14   O     O_R   0.517701 0.065988 0.737353 -0.342550
N6    N     N_R   0.453518 0.914833 0.338536 0.128320
O15   O     O_R   0.500421 0.856238 0.305379 -0.353934
O16   O     O_R   0.383143 0.934567 0.297422 -0.330538
C59   C     C_R   0.557165 0.905335 0.659307 0.173085
C60   C     C_R   0.641014 0.909890 0.689652 -0.088371
C61   C     C_R   0.668180 0.863607 0.765783 -0.145144
C62   C     C_R   0.612055 0.812323 0.811790 -0.089387
C63   C     C_R   0.528593 0.807329 0.781940 -0.116264
C64   C     C_R   0.501029 0.853849 0.706156 -0.104892
H23   H     H_    0.685221 0.948991 0.654178 0.147919
H24   H     H_    0.732791 0.867352 0.789031 0.130259
H25   H     H_    0.633158 0.776694 0.870721 0.135489
H26   H     H_    0.485220 0.767545 0.817649 0.139293
H27   H     H_    0.436110 0.849762 0.683868 0.136750
C65   C     C_R   0.458577 0.094781 0.336545 0.182847
C66   C     C_R   0.510208 0.090021 0.260594 -0.080378
C67   C     C_R   0.491232 0.137427 0.182551 -0.120523
C68   C     C_R   0.420784 0.189885 0.179828 -0.088667
C69   C     C_R   0.368964 0.194796 0.255010 -0.135759
C70   C     C_R   0.387560 0.147264 0.333085 -0.116937
H28   H     H_    0.565364 0.050137 0.262183 0.143240
H29   H     H_    0.531333 0.133732 0.124282 0.148092
H30   H     H_    0.406407 0.226711 0.119480 0.135109
H31   H     H_    0.314537 0.235557 0.252766 0.139320
H32   H     H_    0.347129 0.151553 0.391054 0.122754
C71   C     C_R   0.654438 0.542077 0.909232 0.088813
C72   C     C_R   0.698434 0.614356 0.934358 -0.175749
C73   C     C_R   0.772446 0.636141 0.890642 -0.142268
C74   C     C_R   0.803095 0.586169 0.821533 -0.130557
C75   C     C_R   0.760160 0.513998 0.796508 -0.123704
C76   C     C_R   0.687148 0.491191 0.841102 -0.105129
H33   H     H_    0.674848 0.654519 0.986812 0.132448
H34   H     H_    0.805696 0.692122 0.909889 0.135855
H35   H     H_    0.860172 0.603267 0.787632 0.146472
H36   H     H_    0.783015 0.475462 0.742471 0.153004
H37   H     H_    0.656129 0.433857 0.822163 0.144140
C77   C     C_R   0.346504 0.456197 0.091140 0.086169
C78   C     C_R   0.304154 0.382536 0.067574 -0.169884
C79   C     C_R   0.231112 0.359523 0.112438 -0.146851
C80   C     C_R   0.199927 0.409568 0.181228 -0.143038
C81   C     C_R   0.241177 0.483168 0.204571 -0.122245
C82   C     C_R   0.313141 0.507197 0.158783 -0.106854
H38   H     H_    0.328374 0.342245 0.015577 0.133605
H39   H     H_    0.199148 0.302450 0.094492 0.141656
H40   H     H_    0.143800 0.391399 0.216263 0.148028
H41   H     H_    0.217914 0.521780 0.258348 0.152624
H42   H     H_    0.343084 0.565390 0.176655 0.143511

loop_
_geom_bond_atom_site_label_1
_geom_bond_atom_site_label_2
_geom_bond_distance
_ccdc_geom_bond_type
C59   C64   1.405462 A    
C39   H6    1.080789 S    
C17   C19   1.411532 A    
C8    C11   1.557857 S    
C61   H24   1.082217 S    
C74   H35   1.081259 S    
C66   H28   1.083125 S    
C72   C73   1.398824 A    
C51   C52   1.399592 A    
C55   H19   1.082537 S    
C27   C29   1.420696 A    
C47   C48   1.403178 A    
C62   C63   1.397349 A    
O5    C3    1.277865 A    
C3    C9    1.421325 S    
C43   C44   1.396622 A    
N4    O12   1.300072 A    
C43   H9    1.082299 S    
O1    C1    1.277524 A    
C14   C16   1.453665 S    
C24   C25   1.198782 T    
C77   C82   1.406504 A    
C52   H17   1.075965 S    
C49   H14   1.082574 S    
C60   C61   1.398572 A    
C17   C59   1.486856 S    
C35   C40   1.405493 A    
C19   C23   1.437557 S    
C54   H18   1.078699 S    
C23   C26   1.198890 T    
C65   C66   1.404552 A    
C37   H4    1.082335 S    
C30   C34   1.478123 S    
O4    Cu1   1.924212 S    
C67   C68   1.397772 A    
C18   C65   1.487206 S    
C56   H20   1.082768 S    
C71   C76   1.406657 A    
C42   H8    1.082343 S    
C28   C31   1.418007 A    
C28   C77   1.486319 S    
O6    Cu2   1.935204 S    
C61   C62   1.397336 A    
C51   H16   1.082557 S    
C60   H23   1.083101 S    
C42   C43   1.397983 A    
C28   C30   1.419904 A    
C11   C53   1.513892 S    
Cu1   Cu2   2.632298 S    
C29   C31   1.406854 A    
O2    C2    1.277311 A    
C30   C32   1.406229 A    
O2    Cu2   1.929259 S    
C48   H13   1.078644 S    
C57   H21   1.082471 S    
C40   H7    1.079518 S    
C82   H42   1.082731 S    
C27   C71   1.487039 S    
N4    O11   1.300357 A    
C20   C24   1.437448 S    
C37   C38   1.396480 A    
C21   N6    1.439562 S    
C79   C80   1.396905 A    
O4    C2    1.277986 A    
C75   H36   1.080811 S    
C38   H5    1.082218 S    
C7    C35   1.510764 S    
C56   C57   1.396782 A    
N3    O10   1.300058 A    
C69   H31   1.082139 S    
C76   H37   1.082636 S    
C68   H30   1.081998 S    
O8    Cu1   1.942368 S    
H2    C31   1.084100 S    
C44   C45   1.396274 A    
C41   C42   1.405428 A    
C62   H25   1.081306 S    
O7    Cu2   1.942369 S    
C72   H33   1.082977 S    
C50   H15   1.082723 S    
C78   H38   1.082967 S    
N5    O13   1.301264 A    
C5    C11   1.544433 S    
O6    C4    1.277484 A    
C4    C10   1.420014 S    
C36   C37   1.397913 A    
C7    C13   1.551283 S    
C45   H11   1.081976 S    
C68   C69   1.397360 A    
N6    O16   1.301265 A    
O7    C3    1.277299 A    
Cu2   N1    1.977792 S    
O3    Cu2   1.924214 S    
O8    C4    1.277045 A    
C63   H26   1.082413 S    
C80   H40   1.081012 S    
C8    C41   1.511515 S    
C5    C14   1.540992 S    
N5    O14   1.301221 A    
C41   C46   1.406156 A    
C6    C13   1.540216 S    
C11   C13   1.551483 S    
C8    C14   1.551347 S    
C49   C50   1.396352 A    
O1    Cu1   1.929260 S    
C71   C72   1.407008 A    
C38   C39   1.396165 A    
C73   C74   1.396627 A    
C33   N2    1.170893 T    
C5    C7    1.541347 S    
C53   C58   1.406321 A    
C6    C12   1.544964 S    
C17   C22   1.409128 A    
C48   C49   1.397678 A    
C81   H41   1.080906 S    
C18   C21   1.409187 A    
C7    C12   1.557813 S    
C12   C47   1.513844 S    
C50   C51   1.396900 A    
O3    C1    1.277663 A    
C75   C76   1.395656 A    
C79   H39   1.082351 S    
Cu1   N2    1.977792 S    
C78   C79   1.398871 A    
C39   C40   1.397467 A    
C27   C32   1.418219 A    
C6    N4    1.459459 S    
C5    N3    1.459937 S    
C59   C60   1.404926 A    
C44   H10   1.082179 S    
C36   H3    1.081651 S    
C22   N5    1.439551 S    
C45   C46   1.397844 A    
C58   H22   1.075923 S    
H1    C32   1.084149 S    
C18   C20   1.411580 A    
C74   C75   1.396806 A    
C70   H32   1.082568 S    
C19   C21   1.409716 A    
C80   C81   1.396745 A    
C20   C22   1.409348 A    
C55   C56   1.396294 A    
C10   C16   1.197435 T    
C47   C52   1.406244 A    
C1    C25   1.421966 S    
C57   C58   1.399478 A    
C2    C26   1.422180 S    
C12   C14   1.551535 S    
C67   H29   1.082308 S    
C13   C15   1.455047 S    
N6    O15   1.301276 A    
C9    C15   1.198079 T    
C34   N1    1.170697 T    
C77   C78   1.406745 A    
C73   H34   1.082402 S    
O5    Cu1   1.935205 S    
N3    O9    1.300353 A    
C53   C54   1.403119 A    
C6    C8    1.542692 S    
C35   C36   1.405904 A    
C63   C64   1.398370 A    
C81   C82   1.395517 A    
C29   C33   1.478477 S    
C69   C70   1.398869 A    
C65   C70   1.405383 A    
C54   C55   1.397752 A    
C66   C67   1.398608 A    
C64   H27   1.083106 S    
C46   H12   1.077721 S    
