data_mof_unit_13817.cif
_audit_creation_date              2012-12-10T21:32:43-0500
_audit_creation_method            fapswitch 2.2
_symmetry_space_group_name_H-M    P1
_symmetry_Int_Tables_number       1
_space_group_crystal_system       triclinic
_cell_length_a                    11.524642
_cell_length_b                    16.165857
_cell_length_c                    16.648768
_cell_angle_alpha                 86.21918
_cell_angle_beta                  92.10567
_cell_angle_gamma                 91.465804
_cell_volume                      3092.08589277

loop_
_atom_site_label
_atom_site_type_symbol
_atom_type_description
_atom_site_fract_x
_atom_site_fract_y
_atom_site_fract_z
_atom_type_partial_charge
C1    C     C_R   0.488519 0.488052 0.653024 0.886672
C2    C     C_R   0.510569 0.511984 0.346844 0.885089
C3    C     C_R   0.472032 0.403880 0.786292 -0.036561
C4    C     C_R   0.521756 0.595533 0.212998 -0.043703
C5    C     C_R   0.424164 0.762486 0.474140 0.016595
C6    C     C_R   0.574544 0.237532 0.527615 0.050092
C7    C     C_R   0.418070 0.849203 0.483092 -0.137895
C8    C     C_R   0.581021 0.150596 0.519208 -0.170987
C9    C     C_R   0.509602 0.890469 0.524228 0.154037
C10   C     C_R   0.493192 0.109807 0.474037 0.189730
C11   C     C_R   0.599416 0.842585 0.562032 -0.189916
C12   C     C_R   0.406682 0.158420 0.432674 -0.151835
C13   C     C_R   0.599353 0.755263 0.554225 0.040948
C14   C     C_R   0.403807 0.245037 0.443002 -0.006821
C15   C     C_R   0.718120 0.499351 0.500442 0.899292
C16   C     C_R   0.281883 0.500644 0.499662 0.897621
C17   C     C_1   0.838479 0.498442 0.500450 -0.175257
C18   C     C_1   0.161539 0.501563 0.499868 -0.175327
C19   C     C_1   0.940691 0.499204 0.500336 0.001021
C20   C     C_1   0.059335 0.500815 0.500099 0.000425
C21   C     C_R   0.458930 0.479851 0.738965 -0.154511
C22   C     C_R   0.539360 0.520327 0.260783 -0.150257
C23   C     C_R   0.417553 0.550121 0.775797 -0.063794
C24   C     C_R   0.584593 0.451040 0.224299 -0.067277
C25   C     C_R   0.414719 0.548777 0.860204 -0.045646
C26   C     C_R   0.589589 0.452646 0.139964 -0.047255
C27   C     C_R   0.447261 0.476716 0.906128 0.246716
C28   C     C_R   0.554581 0.523796 0.093683 0.247474
C29   C     C_R   0.468203 0.404317 0.869679 -0.233562
C30   C     C_R   0.527837 0.595253 0.129778 -0.233991
H1    H     H_    0.482856 0.347879 0.907089 0.162719
H2    H     H_    0.509784 0.651022 0.092177 0.167798
N1    N     N_2   0.460881 0.476224 0.990009 -0.176593
N2    N     N_2   0.541923 0.523818 0.009806 -0.173640
N3    N     N_R   0.513820 0.716920 0.509720 -0.160083
N4    N     N_R   0.486180 0.283080 0.490280 -0.157176
N5    N     N_2   0.511305 0.978839 0.531509 -0.185422
N6    N     N_2   0.491777 0.021329 0.466841 -0.111363
O1    O     O_R   0.495050 0.422540 0.612660 -0.654519
O2    O     O_R   0.504950 0.577460 0.387340 -0.653346
O3    O     O_R   0.503930 0.561840 0.618900 -0.565945
O4    O     O_R   0.496070 0.438160 0.381100 -0.560574
O5    O     O_R   0.661110 0.430350 0.496870 -0.614123
O6    O     O_R   0.338890 0.569650 0.503130 -0.606181
O7    O     O_R   0.669990 0.569650 0.503110 -0.647896
O8    O     O_R   0.330010 0.430350 0.496890 -0.639262
Zn1   Zn    Zn3+2 0.494070 0.406980 0.495830 0.956096
Zn2   Zn    Zn3+2 0.505930 0.593020 0.504170 0.953684
C31   C     C_R   0.639061 0.381179 0.273321 0.148868
C32   C     C_R   0.743395 0.395019 0.317143 -0.170914
C33   C     C_R   0.798001 0.329205 0.360796 -0.063143
C34   C     C_R   0.749150 0.249207 0.360668 -0.093836
C35   C     C_R   0.645230 0.234990 0.317337 -0.170873
C36   C     C_R   0.589893 0.300725 0.274141 -0.049499
H3    H     H_    0.782674 0.456619 0.316968 0.111701
H4    H     H_    0.878378 0.340180 0.394524 0.150624
H5    H     H_    0.791568 0.198286 0.394390 0.144286
H6    H     H_    0.607414 0.173027 0.317344 0.152396
H7    H     H_    0.509184 0.288904 0.241182 0.160680
C37   C     C_R   0.362645 0.620015 0.727074 0.153815
C38   C     C_R   0.412813 0.700212 0.724711 -0.069320
C39   C     C_R   0.356856 0.765903 0.681885 -0.167436
C40   C     C_R   0.251364 0.751854 0.640366 -0.055789
C41   C     C_R   0.201787 0.672033 0.641416 -0.065944
C42   C     C_R   0.256988 0.606296 0.684747 -0.174970
H8    H     H_    0.494831 0.711883 0.756083 0.159803
H9    H     H_    0.395434 0.827689 0.680717 0.148387
H10   H     H_    0.208329 0.802737 0.607045 0.181740
H11   H     H_    0.120344 0.661148 0.608918 0.158104
H12   H     H_    0.217099 0.544845 0.685883 0.114054
C43   C     C_R   0.636836 0.382567 0.099352 0.139792
C44   C     C_R   0.563733 0.316655 0.076723 -0.154703
C45   C     C_R   0.608554 0.251547 0.037080 -0.157833
C46   C     C_R   0.726293 0.252046 0.019652 -0.111333
C47   C     C_R   0.799471 0.317524 0.042105 -0.123771
C48   C     C_R   0.754968 0.382713 0.081831 -0.136235
H13   H     H_    0.472182 0.316093 0.089330 0.141121
H14   H     H_    0.551888 0.200978 0.019439 0.139781
H15   H     H_    0.760772 0.201772 0.988669 0.131066
H16   H     H_    0.890623 0.317851 0.028569 0.134521
H17   H     H_    0.812231 0.433298 0.098794 0.125139
C49   C     C_R   0.371607 0.619942 0.901337 0.140516
C50   C     C_R   0.255422 0.620454 0.923598 -0.132676
C51   C     C_R   0.215073 0.686491 0.964166 -0.126361
C52   C     C_R   0.290457 0.752195 0.982708 -0.110499
C53   C     C_R   0.406281 0.752017 0.960615 -0.156823
C54   C     C_R   0.447040 0.685944 0.920317 -0.159522
H18   H     H_    0.196482 0.569698 0.909704 0.126064
H19   H     H_    0.125439 0.686649 0.981385 0.134784
H20   H     H_    0.259211 0.803125 0.014353 0.131165
H21   H     H_    0.464718 0.802708 0.975331 0.140981
H22   H     H_    0.537325 0.685794 0.904454 0.142651
C55   C     C_R   0.479764 0.321497 0.752859 0.138069
C56   C     C_R   0.570707 0.268477 0.778289 -0.216763
C57   C     C_R   0.569669 0.186823 0.755298 -0.105956
C58   C     C_R   0.477926 0.157329 0.707039 -0.100243
C59   C     C_R   0.387138 0.209502 0.681504 -0.170486
C60   C     C_R   0.387246 0.290968 0.704966 -0.098877
H23   H     H_    0.641334 0.290047 0.816879 0.150849
H24   H     H_    0.639723 0.146259 0.775286 0.171395
H25   H     H_    0.477386 0.094129 0.689185 0.155900
H26   H     H_    0.316146 0.186569 0.644129 0.150366
H27   H     H_    0.314552 0.329955 0.686812 0.128210
C61   C     C_R   0.505104 0.677341 0.245602 0.140155
C62   C     C_R   0.595670 0.714362 0.290547 -0.093728
C63   C     C_R   0.587380 0.796152 0.311924 -0.164399
C64   C     C_R   0.489639 0.842031 0.287569 -0.144598
C65   C     C_R   0.399398 0.805909 0.242576 -0.159952
C66   C     C_R   0.407143 0.724029 0.221279 -0.193944
H28   H     H_    0.673436 0.680310 0.307717 0.126295
H29   H     H_    0.657114 0.824199 0.346859 0.144738
H30   H     H_    0.483630 0.905455 0.303885 0.171736
H31   H     H_    0.323810 0.841551 0.223712 0.153123
H32   H     H_    0.337866 0.697409 0.184764 0.147094
C67   C     C_2   0.666144 0.280381 0.574540 0.576771
H33   H     H_    0.643538 0.320760 0.620281 0.081419
O9    O     O_2   0.768577 0.272812 0.560847 -0.578747
C68   C     C_2   0.331647 0.720160 0.427327 0.424566
H34   H     H_    0.353660 0.676993 0.383945 0.124656
O10   O     O_2   0.229178 0.731236 0.438325 -0.616093
C69   C     C_2   0.682126 0.102533 0.552751 0.446128
H35   H     H_    0.716975 0.054643 0.518450 0.071765
O11   O     O_2   0.724689 0.113598 0.619517 -0.565381
C70   C     C_2   0.314287 0.895400 0.451766 0.554983
H36   H     H_    0.274176 0.882740 0.393753 0.090223
O12   O     O_2   0.270490 0.946170 0.491825 -0.559036
C71   C     C_2   0.690910 0.885206 0.610827 0.402745
H37   H     H_    0.671758 0.942338 0.637750 0.107933
O13   O     O_2   0.788864 0.858399 0.620352 -0.562935
C72   C     C_2   0.318922 0.119761 0.377925 0.502166
H38   H     H_    0.234471 0.147181 0.366635 0.052649
O14   O     O_2   0.341136 0.058641 0.342521 -0.590932
C73   C     C_2   0.689381 0.704634 0.596772 0.608806
H39   H     H_    0.768361 0.692158 0.566677 0.055761
O15   O     O_2   0.677912 0.679280 0.666735 -0.592451
C74   C     C_2   0.313492 0.295291 0.400117 0.446098
H40   H     H_    0.237110 0.311329 0.431324 0.060411
O16   O     O_2   0.321648 0.316196 0.328754 -0.596336

loop_
_geom_bond_atom_site_label_1
_geom_bond_atom_site_label_2
_ccdc_geom_bond_type
O6    Zn2   S    
C62   H28   S    
C1    C21   S    
C55   C56   A    
C35   H6    S    
C27   C29   A    
C45   C46   A    
C11   C71   S    
C57   C58   A    
C7    C70   S    
C59   C60   A    
C52   C53   A    
C27   N1    S    
N5    N6    D    
C12   C72   S    
C39   H9    S    
O1    Zn1   S    
C24   C26   A    
C13   N3    A    
C53   H21   S    
C14   N4    A    
C43   C48   A    
C8    C69   S    
C63   C64   A    
C60   H27   S    
C4    C61   S    
C65   C66   A    
N4    Zn1   S    
O2    Zn2   S    
C33   H4    S    
C64   H30   S    
C3    C29   A    
C68   H34   S    
C44   H13   S    
C40   H10   S    
C38   H8    S    
C19   C20   S    
C67   O9    D    
C2    C22   S    
C64   C65   A    
C31   C36   A    
C16   O6    A    
C59   H26   S    
C36   H7    S    
C50   H18   S    
C28   N2    S    
C58   H25   S    
C26   C43   S    
C56   C57   A    
N3    Zn2   S    
C61   C62   A    
N1    N2    D    
C63   H29   S    
C23   C37   S    
C46   C47   A    
C33   C34   A    
C51   C52   A    
C74   O16   D    
C16   O8    A    
C5    C7    A    
C53   C54   A    
C74   H40   S    
C6    C8    A    
C35   C36   A    
C37   C38   A    
C65   H31   S    
C72   O14   D    
C47   C48   A    
C71   O13   D    
C39   C40   A    
C4    C22   A    
C50   C51   A    
C45   H14   S    
C58   C59   A    
C9    N5    S    
C32   C33   A    
C3    C55   S    
C16   C18   S    
C41   H11   S    
C9    C11   A    
C69   H35   S    
C10   C12   A    
C66   H32   S    
C1    O3    A    
C12   C14   A    
C37   C42   A    
C49   C50   A    
C46   H15   S    
C21   C23   A    
C73   H39   S    
C22   C24   A    
C3    C21   A    
C51   H19   S    
C15   O7    A    
C71   H37   S    
C34   C35   A    
C70   O12   D    
C47   H16   S    
O7    Zn2   S    
C24   C31   S    
C7    C9    A    
O8    Zn1   S    
C57   H24   S    
C13   C73   S    
C44   C45   A    
C48   H17   S    
C52   H20   S    
C15   C17   S    
C25   C27   A    
C62   C63   A    
C26   C28   A    
C32   H3    S    
C5    C68   S    
C10   N6    S    
C41   C42   A    
C28   C30   A    
C72   H38   S    
C15   O5    A    
C43   C44   A    
C29   H1    S    
C30   H2    S    
C11   C13   A    
C67   H33   S    
C25   C49   S    
C14   C74   S    
C56   H23   S    
C2    O4    A    
C5    N3    A    
C17   C19   T    
O3    Zn2   S    
C6    N4    A    
C18   C20   T    
O4    Zn1   S    
C23   C25   A    
C38   C39   A    
C68   O10   D    
C6    C67   S    
C69   O11   D    
C34   H5    S    
C1    O1    A    
C40   C41   A    
C2    O2    A    
C8    C10   A    
C31   C32   A    
C73   O15   D    
C61   C66   A    
C42   H12   S    
C54   H22   S    
O5    Zn1   S    
C55   C60   A    
C4    C30   A    
C49   C54   A    
C70   H36   S    
