data_mof_unit_8288.cif
_audit_creation_date              2012-12-11T17:25:12-0500
_audit_creation_method            fapswitch 2.2
_symmetry_space_group_name_H-M    P1
_symmetry_Int_Tables_number       1
_space_group_crystal_system       triclinic
_cell_length_a                    6.953572
_cell_length_b                    20.48456
_cell_length_c                    24.545391
_cell_angle_alpha                 90.024227
_cell_angle_beta                  90.26085
_cell_angle_gamma                 89.268654
_cell_volume                      3495.94539073

loop_
_atom_site_label
_atom_site_type_symbol
_atom_type_description
_atom_site_fract_x
_atom_site_fract_y
_atom_site_fract_z
_atom_type_partial_charge
O1    O     O_R   0.507280 0.423750 0.460310 -0.541709
O2    O     O_R   0.171030 0.555650 0.437630 -0.538008
O3    O     O_R   0.004080 0.576250 0.539690 -0.531372
C1    C     C_R   0.339199 0.575278 0.421532 0.739819
O4    O     O_R   0.177330 0.422980 0.453960 -0.547526
O5    O     O_R   0.010420 0.442640 0.556140 -0.535300
C2    C     C_R   0.346946 0.399572 0.442668 0.779493
O6    O     O_R   0.500930 0.557360 0.443860 -0.535967
O7    O     O_3   0.340310 0.506600 0.533500 -0.365825
V1    V     V_3+5 0.064140 0.498780 0.493780 1.404350
O8    O     O_R   0.680890 0.444350 0.562370 -0.537889
C3    C     C_R   0.850566 0.424291 0.578075 0.722816
O9    O     O_R   0.674590 0.577020 0.546040 -0.536234
C4    C     C_R   0.842343 0.600964 0.556752 0.719107
V2    V     V_3+5 0.564550 0.501220 0.506220 1.419354
O10   O     O_3   0.838250 0.493400 0.466500 -0.379471
C5    C     C_R   0.976675 0.838992 0.910024 -0.126687
C6    C     C_R   0.845854 0.662380 0.588158 -0.104275
C7    C     C_R   0.031850 0.722540 0.904489 0.302060
C8    C     C_R   0.013234 0.779449 0.935107 -0.185627
C9    C     C_R   0.947388 0.841386 0.853574 -0.201394
C10   C     C_R   0.951068 0.783937 0.820689 0.008454
C11   C     C_R   0.011924 0.724602 0.846668 -0.053329
C12   C     C_R   0.902954 0.783373 0.763082 -0.029483
C13   C     C_R   0.933877 0.724544 0.732132 -0.036449
C14   C     C_R   0.017633 0.670362 0.758574 -0.269243
C15   C     C_R   0.058731 0.670092 0.814011 0.407002
C16   C     C_R   0.818859 0.837879 0.735055 0.375323
C17   C     C_R   0.786469 0.835680 0.679021 -0.214304
C18   C     C_R   0.814654 0.778816 0.648734 0.000774
C19   C     C_R   0.884318 0.721575 0.675150 0.074216
C20   C     C_R   0.767909 0.777725 0.592523 0.301823
C21   C     C_R   0.783029 0.719780 0.563095 -0.174216
C22   C     C_R   0.897017 0.663110 0.643549 -0.201598
H1    H     H_    0.937466 0.616649 0.660944 0.101909
H2    H     H_    0.742390 0.719255 0.520412 0.143106
H3    H     H_    0.729948 0.879536 0.659984 0.198011
H4    H     H_    0.032071 0.777483 0.978943 0.145539
H5    H     H_    0.934696 0.889589 0.836960 0.176888
H6    H     H_    0.059007 0.626695 0.736995 0.141696
H7    H     H_    0.619538 0.200001 0.788954 0.112116
C23   C     C_R   0.730165 0.265890 0.728690 -0.148810
H8    H     H_    0.588426 0.278502 0.713170 0.112159
C24   C     C_R   0.894197 0.294107 0.705845 0.135986
C25   C     C_R   0.076220 0.276782 0.726723 -0.149291
H9    H     H_    0.204601 0.297928 0.709657 0.112485
C26   C     C_R   0.093975 0.232009 0.769888 -0.147958
H10   H     H_    0.235700 0.219445 0.785446 0.111423
C27   C     C_R   0.929928 0.203876 0.792790 0.137818
C28   C     C_R   0.747920 0.221110 0.771853 -0.149079
C29   C     C_1   0.876256 0.340427 0.661028 -0.055781
C30   C     C_1   0.947812 0.158023 0.837929 -0.051784
C31   C     C_1   0.960999 0.120093 0.875898 -0.192573
C32   C     C_1   0.863083 0.378878 0.623415 -0.188736
H11   H     H_    0.699651 0.700532 0.295153 0.118212
C33   C     C_R   0.597308 0.765493 0.232039 -0.144480
H12   H     H_    0.741167 0.778702 0.219833 0.113746
C34   C     C_R   0.436586 0.792920 0.205256 0.135691
C35   C     C_R   0.251835 0.774591 0.221980 -0.143903
H13   H     H_    0.125719 0.794972 0.201887 0.114735
C36   C     C_R   0.228106 0.729933 0.264921 -0.144550
H14   H     H_    0.084247 0.716782 0.277179 0.113394
C37   C     C_R   0.388789 0.702806 0.291906 0.129254
C38   C     C_R   0.573571 0.720866 0.275007 -0.156850
C39   C     C_1   0.460164 0.839605 0.160806 -0.047229
C40   C     C_1   0.364990 0.657325 0.337174 -0.043581
C41   C     C_1   0.349423 0.619761 0.375360 -0.177414
C42   C     C_1   0.475349 0.878409 0.123456 -0.183169
C43   C     C_R   0.464412 0.161946 0.088502 -0.037246
C44   C     C_R   0.355143 0.339252 0.409772 -0.171005
C45   C     C_R   0.422713 0.279182 0.090008 -0.121033
C46   C     C_R   0.449226 0.221360 0.061091 -0.185450
C47   C     C_R   0.454450 0.160633 0.145646 -0.185389
C48   C     C_R   0.425069 0.218963 0.176372 0.023965
C49   C     C_R   0.408610 0.278835 0.147210 0.047370
C50   C     C_R   0.407865 0.219808 0.234682 0.063469
C51   C     C_R   0.385745 0.280600 0.262896 0.020221
C52   C     C_R   0.355027 0.337349 0.231709 -0.280859
C53   C     C_R   0.373341 0.337562 0.175153 0.367815
C54   C     C_R   0.403507 0.161865 0.265615 -0.173293
C55   C     C_R   0.369229 0.163245 0.321286 -0.178872
C56   C     C_R   0.351810 0.222378 0.349484 -0.018262
C57   C     C_R   0.379322 0.282146 0.321474 -0.049126
C58   C     C_R   0.307015 0.222404 0.405589 0.422132
C59   C     C_R   0.308428 0.280649 0.434872 -0.326582
C60   C     C_R   0.400744 0.340352 0.353788 0.327196
H15   H     H_    0.274752 0.279936 0.477945 0.144221
H16   H     H_    0.357860 0.117072 0.342460 0.157359
H17   H     H_    0.410636 0.324281 0.067156 0.157260
H18   H     H_    0.455580 0.222879 0.017008 0.110471
H19   H     H_    0.468795 0.113378 0.164565 0.090018
H20   H     H_    0.307462 0.382185 0.250345 0.188883
H21   H     H_    0.416103 0.114066 0.247665 0.119474
O11   O     O_R   0.323320 0.942780 0.056240 -0.533281
O12   O     O_R   0.647300 0.077050 0.046060 -0.537999
O13   O     O_R   0.813840 0.057330 0.943840 -0.535234
C61   C     C_R   0.477573 0.101040 0.056702 0.693965
O14   O     O_R   0.653250 0.944380 0.062400 -0.536398
O15   O     O_R   0.819830 0.923720 0.960300 -0.533627
C62   C     C_R   0.485199 0.924258 0.078175 0.728900
O16   O     O_R   0.317330 0.076390 0.039790 -0.534591
O17   O     O_3   0.483830 0.993470 0.966560 -0.366907
V3    V     V_3+5 0.760140 0.001210 0.006210 1.429371
O18   O     O_R   0.149290 0.922840 0.953850 -0.539934
C63   C     C_R   0.981384 0.899189 0.942955 0.710174
O19   O     O_R   0.143340 0.055500 0.937510 -0.540153
C64   C     C_R   0.973616 0.075308 0.921648 0.722527
V4    V     V_3+5 0.259690 0.998600 0.993650 1.420714
O20   O     O_3   0.986130 0.006520 0.033440 -0.365057
O21   O     O_3   0.150307 0.615456 0.835242 -0.541629
C65   C     C_3   0.350730 0.622282 0.828170 0.120716
H22   H     H_    0.403089 0.666130 0.850447 0.130258
H23   H     H_    0.387196 0.626859 0.784149 0.098183
C66   C     C_3   0.453827 0.561818 0.850879 -0.293900
H24   H     H_    0.417753 0.556035 0.894666 0.243647
H25   H     H_    0.404439 0.517818 0.828577 0.195249
C67   C     C_3   0.671390 0.567196 0.845192 -0.743503
H26   H     H_    0.711365 0.571927 0.801616 0.222077
H27   H     H_    0.742512 0.522743 0.862082 0.250601
H28   H     H_    0.723413 0.610342 0.868033 0.263757
Br1   Br    Br    0.676271 0.853271 0.553197 -0.538812
O22   O     O_3   0.339802 0.394972 0.146549 -0.572233
C68   C     C_3   0.495947 0.438120 0.153363 0.079345
H29   H     H_    0.546774 0.451945 0.112149 0.153876
H30   H     H_    0.623314 0.416387 0.174939 0.098331
C69   C     C_3   0.427895 0.500106 0.182868 -0.302900
H31   H     H_    0.310438 0.523883 0.158917 0.215235
H32   H     H_    0.370436 0.487541 0.223589 0.198382
C70   C     C_3   0.591570 0.548282 0.190312 -0.804970
H33   H     H_    0.708309 0.526155 0.215544 0.224023
H34   H     H_    0.536808 0.592770 0.211266 0.240809
H35   H     H_    0.650446 0.562632 0.150130 0.244538
O23   O     O_3   0.462915 0.399018 0.332348 -0.590292
C71   C     C_3   0.654638 0.393441 0.313248 0.027205
H36   H     H_    0.657878 0.413870 0.271450 0.148819
H37   H     H_    0.712495 0.342416 0.310738 0.117518
C72   C     C_3   0.787722 0.433610 0.349229 -0.262098
H38   H     H_    0.724326 0.483102 0.355655 0.208272
H39   H     H_    0.804024 0.408750 0.389193 0.205952
C73   C     C_3   0.985406 0.440199 0.323337 -0.808932
H40   H     H_    0.049231 0.391049 0.316356 0.231483
H41   H     H_    0.081311 0.468111 0.350782 0.249921
H42   H     H_    0.973872 0.466462 0.283847 0.217272
O24   O     O_3   0.268909 0.165122 0.433219 -0.570408
C74   C     C_3   0.074623 0.147634 0.424748 0.087148
H43   H     H_    0.065657 0.093954 0.430409 0.162047
H44   H     H_    0.022356 0.157869 0.382496 0.104270
C75   C     C_3   0.942652 0.181200 0.466401 -0.363412
H45   H     H_    0.999057 0.172373 0.508232 0.218166
H46   H     H_    0.938587 0.234666 0.458863 0.186551
C76   C     C_3   0.738198 0.155564 0.462337 -0.728657
H47   H     H_    0.681409 0.162666 0.420381 0.235510
H48   H     H_    0.644049 0.182535 0.491278 0.243333
H49   H     H_    0.735601 0.102790 0.472635 0.245147
Br2   Br    Br    0.071597 0.644239 0.946733 -0.540111
O25   O     O_3   0.769357 0.895573 0.760594 -0.581817
C77   C     C_3   0.573980 0.893546 0.775753 0.051361
H50   H     H_    0.549667 0.853031 0.805164 0.128551
H51   H     H_    0.479766 0.886837 0.739344 0.138711
C78   C     C_3   0.520143 0.958288 0.802972 -0.282134
H52   H     H_    0.613963 0.965970 0.839170 0.195701
H53   H     H_    0.543393 0.998968 0.773866 0.205608
C79   C     C_3   0.310738 0.959284 0.820940 -0.798544
H54   H     H_    0.213756 0.951385 0.785516 0.239119
H55   H     H_    0.275116 0.007319 0.839476 0.231486
H56   H     H_    0.287768 0.920513 0.851651 0.233303

loop_
_geom_bond_atom_site_label_1
_geom_bond_atom_site_label_2
_ccdc_geom_bond_type
C13   C19   A    
O15   V3    S    
C77   H50   S    
C7    Br2   S    
C47   C48   A    
C4    C6    S    
C7    C11   A    
C65   H22   S    
C73   H42   S    
C1    O6    A    
C21   H2    S    
C2    C44   S    
C55   C56   A    
C68   H29   S    
C26   C27   A    
C51   C52   A    
V4    O20   S    
C72   H39   S    
O11   V4    S    
C14   C15   A    
C69   H31   S    
C48   C50   A    
C16   C17   A    
C79   H55   S    
C75   H46   S    
C67   H27   S    
O5    C3    A    
C18   C19   A    
C68   H30   S    
O19   C64   A    
C51   C57   A    
O14   V3    S    
C5    C8    A    
C8    H4    S    
C33   H12   S    
C22   H1    S    
C76   H49   S    
C36   C37   A    
O21   C65   S    
C34   C39   S    
C74   H44   S    
C79   H54   S    
O8    V2    S    
C58   C59   A    
C54   H21   S    
O2    V1    S    
C7    C8    A    
C15   O21   S    
C9    H5    S    
C76   H47   S    
C33   C38   A    
C43   C47   A    
O1    V2    S    
C11   C15   A    
O7    V1    S    
C70   H35   S    
C39   C42   T    
O16   V4    S    
C59   H15   S    
C40   C41   T    
C37   C40   S    
C35   H13   S    
C77   H51   S    
C45   C49   A    
O9    C4    A    
C36   H14   S    
C23   C24   A    
C71   C72   S    
O18   C63   A    
C53   O22   S    
O12   V3    S    
C74   H43   S    
C25   C26   A    
C73   H40   S    
O15   C63   A    
C72   C73   S    
C35   C36   A    
C48   C49   A    
C66   C67   S    
C78   C79   S    
C50   C54   A    
C79   H56   S    
C12   C13   A    
C47   H19   S    
C67   H28   S    
O4    C2    A    
C52   C53   A    
O24   C74   S    
C68   C69   S    
C71   H37   S    
C69   C70   S    
C52   H20   S    
C34   C35   A    
C25   H9    S    
C5    C9    A    
C78   H53   S    
C43   C46   A    
O2    C1    A    
C42   C62   S    
C17   C18   A    
C5    C63   S    
C46   H18   S    
C31   C64   S    
C60   O23   S    
C26   H10   S    
C45   H17   S    
O11   C62   A    
C27   C30   S    
H11   C38   S    
C19   C22   A    
C65   H23   S    
C50   C51   A    
O17   V4    S    
C6    C22   A    
O3    C4    A    
C23   C28   A    
C24   C29   S    
O13   C64   A    
C56   C57   A    
C77   C78   S    
C56   C58   A    
O9    V2    S    
O23   C71   S    
C10   C12   A    
C23   H8    S    
C44   C60   A    
H7    C28   S    
O18   V4    S    
C74   C75   S    
C30   C31   T    
C70   H33   S    
O25   C77   S    
C69   H32   S    
O1    C2    A    
C20   Br1   S    
C24   C25   A    
C12   C16   A    
C73   H41   S    
C54   C55   A    
O5    V1    S    
C1    C41   S    
C66   H25   S    
O8    C3    A    
O12   C61   A    
C66   H24   S    
C71   H36   S    
O6    V2    S    
C72   H38   S    
O14   C62   A    
V3    O20   S    
C29   C32   T    
C20   C21   A    
C13   C14   A    
C45   C46   A    
C75   C76   S    
O3    V1    S    
V1    O10   S    
C67   H26   S    
C78   H52   S    
C18   C20   A    
C14   H6    S    
O19   V4    S    
C33   C34   A    
C65   C66   S    
C75   H45   S    
C76   H48   S    
O7    V2    S    
O17   V3    S    
C6    C21   A    
C3    C32   S    
C55   H16   S    
C37   C38   A    
O4    V1    S    
C57   C60   A    
C27   C28   A    
O13   V3    S    
C17   H3    S    
C16   O25   S    
C58   O24   S    
C10   C11   A    
O22   C68   S    
C9    C10   A    
C44   C59   A    
C49   C53   A    
C61   O16   A    
V2    O10   S    
C70   H34   S    
C43   C61   S    
