data_mof_unit_44211.cif
_audit_creation_date              2012-10-26T19:46:30-0400
_audit_creation_method            fapswitch 2.2
_symmetry_space_group_name_H-M    P1
_symmetry_Int_Tables_number       1
_space_group_crystal_system       triclinic
_cell_length_a                    10.833421
_cell_length_b                    9.62981
_cell_length_c                    15.13552
_cell_angle_alpha                 89.998998
_cell_angle_beta                  92.034543
_cell_angle_gamma                 90.000442
_cell_volume                      1577.99935678

loop_
_atom_site_label
_atom_site_type_symbol
_atom_type_description
_atom_site_fract_x
_atom_site_fract_y
_atom_site_fract_z
_atom_type_partial_charge
C1    C     C_R   0.262420 0.500015 0.500509 0.518953
C2    C     C_R   0.936133 0.626103 0.499131 -0.147787
C3    C     C_R   0.936156 0.374094 0.499256 -0.147079
C4    C     C_R   0.063859 0.626104 0.500649 -0.147791
C5    C     C_R   0.536798 0.621758 0.096664 -0.122583
C6    C     C_R   0.538710 0.384653 0.906303 -0.125150
C7    C     C_R   0.463210 0.621762 0.903334 -0.122578
C8    C     C_R   0.461262 0.384662 0.093700 -0.125146
C9    C     C_R   0.536080 0.620883 0.188528 -0.117864
C10   C     C_R   0.537795 0.383219 0.814536 -0.136606
C11   C     C_R   0.463930 0.620885 0.811470 -0.117855
C12   C     C_R   0.737580 0.500015 0.499490 0.518950
C13   C     C_R   0.462179 0.383228 0.185468 -0.136601
C14   C     C_R   0.499421 0.501241 0.233530 0.007694
C15   C     C_R   0.500573 0.501237 0.766470 0.007691
C16   C     C_R   0.499368 0.503564 0.048538 0.033170
C17   C     C_R   0.500622 0.503563 0.951462 0.033172
C18   C     C_R   0.871591 0.500076 0.499071 0.016415
C19   C     C_R   0.128409 0.500077 0.500927 0.016415
C20   C     C_3   0.275759 0.165137 0.358649 -0.085225
C21   C     C_3   0.719624 0.830915 0.644532 -0.065054
C22   C     C_3   0.724205 0.165052 0.641446 -0.085285
C23   C     C_R   0.499642 0.500160 0.330145 0.530393
C24   C     C_3   0.280424 0.831001 0.355365 -0.065127
C25   C     C_R   0.500356 0.500158 0.669855 0.530391
C26   C     C_R   0.447670 0.074003 0.430556 0.348184
C27   C     C_R   0.551456 0.925969 0.569831 0.342792
C28   C     C_R   0.552326 0.074001 0.569446 0.348218
C29   C     C_R   0.448549 0.925972 0.430166 0.342828
C30   C     C_R   0.063852 0.374097 0.500957 -0.147073
Cu1   Cu    Cu3+1 0.500000 0.640660 0.500000 0.996374
Cu2   Cu    Cu3+1 0.500000 0.359340 0.500000 1.004612
H1    H     H_    0.257223 0.277984 0.352768 0.145909
H2    H     H_    0.233600 0.870170 0.414868 0.064408
H3    H     H_    0.264872 0.717566 0.349771 0.150242
H4    H     H_    0.234793 0.877630 0.295801 0.106819
H5    H     H_    0.568352 0.714072 0.063417 0.108453
H6    H     H_    0.570377 0.293084 0.941919 0.110079
H7    H     H_    0.431669 0.714083 0.936578 0.108451
H8    H     H_    0.429580 0.293098 0.058087 0.110082
H9    H     H_    0.566008 0.713045 0.224287 0.160741
H10   H     H_    0.567756 0.290333 0.781579 0.176896
H11   H     H_    0.434017 0.713053 0.775709 0.160743
H12   H     H_    0.231686 0.125103 0.419055 0.070617
H13   H     H_    0.432205 0.290348 0.218427 0.176899
H14   H     H_    0.111528 0.275486 0.502489 0.115203
H15   H     H_    0.888412 0.724723 0.497788 0.114894
H16   H     H_    0.888487 0.275478 0.497905 0.115169
H17   H     H_    0.111573 0.724729 0.501813 0.114866
H18   H     H_    0.229701 0.116556 0.299909 0.103626
H19   H     H_    0.766333 0.869758 0.584887 0.064640
H20   H     H_    0.735132 0.717486 0.650327 0.150240
H21   H     H_    0.765409 0.877804 0.703961 0.106655
H22   H     H_    0.742768 0.277920 0.647129 0.145944
H23   H     H_    0.768392 0.124684 0.581168 0.070390
H24   H     H_    0.770127 0.116731 0.700335 0.103749
N1    N     N_R   0.500000 0.852070 0.500000 -0.275017
N2    N     N_R   0.500000 0.147930 0.500000 -0.270652
O1    O     O_R   0.319640 0.618740 0.499990 -0.515729
O2    O     O_3   0.591507 0.858093 0.645970 -0.526047
O3    O     O_3   0.595534 0.142317 0.644441 -0.534759
O4    O     O_3   0.408558 0.858104 0.354011 -0.526035
O5    O     O_R   0.680360 0.381260 0.500010 -0.512132
O6    O     O_R   0.680360 0.618740 0.500010 -0.515754
O7    O     O_R   0.319640 0.381260 0.499990 -0.512155
O8    O     O_R   0.499990 0.618780 0.371460 -0.460393
O9    O     O_R   0.500010 0.381220 0.628540 -0.456658
O10   O     O_R   0.500010 0.618780 0.628540 -0.460397
O11   O     O_R   0.499990 0.381220 0.371460 -0.456655
O12   O     O_3   0.404411 0.142326 0.355576 -0.534780

loop_
_geom_bond_atom_site_label_1
_geom_bond_atom_site_label_2
_ccdc_geom_bond_type
C14   C23   S    
C6    C10   A    
Cu1   O8    S    
C1    O7    A    
C9    C14   A    
C6    H6    S    
C5    C9    A    
C8    C13   A    
C28   N2    A    
C2    H15   S    
C10   H10   S    
C9    H9    S    
C23   O11   A    
C2    C4    A    
Cu1   Cu2   S    
C25   O9    A    
Cu2   N2    S    
C4    H17   S    
C27   O2    S    
C28   O3    S    
Cu1   N1    S    
C22   H23   S    
C19   C30   A    
C8    C16   A    
C24   H4    S    
C13   C14   A    
C22   O3    S    
C7    C11   A    
C26   N2    A    
C20   O12   S    
C21   O2    S    
Cu2   O11   S    
C25   O10   A    
C3    C18   A    
Cu2   O9    S    
C26   O12   S    
C20   H1    S    
C21   H21   S    
C3    C30   A    
C20   H12   S    
C29   N1    A    
C5    H5    S    
C10   C15   A    
C1    O1    A    
C24   O4    S    
C12   O6    A    
C11   H11   S    
C15   C25   S    
C24   H3    S    
C2    C18   A    
C22   H24   S    
Cu1   O1    S    
C3    H16   S    
C21   H19   S    
Cu1   O10   S    
C23   O8    A    
C26   C29   A    
C22   H22   S    
C27   N1    A    
C1    C19   S    
C12   C18   S    
C27   C28   A    
C12   O5    A    
C6    C17   A    
C7    H7    S    
C29   O4    S    
C16   C17   S    
C13   H13   S    
C20   H18   S    
C8    H8    S    
C7    C17   A    
C4    C19   A    
C11   C15   A    
Cu1   O6    S    
C30   H14   S    
C21   H20   S    
C24   H2    S    
Cu2   O5    S    
Cu2   O7    S    
C5    C16   A    
