data_mof_unit_6774.cif
_audit_creation_date              2013-03-05T15:47:19-0500
_audit_creation_method            fapswitch 2.2
_symmetry_space_group_name_H-M    P1
_symmetry_Int_Tables_number       1
_space_group_crystal_system       triclinic
_cell_length_a                    19.375122
_cell_length_b                    11.402668
_cell_length_c                    18.725727
_cell_angle_alpha                 89.58263
_cell_angle_beta                  89.722126
_cell_angle_gamma                 89.971936
_cell_volume                      4136.88013893

loop_
_atom_site_label
_atom_site_type_symbol
_atom_site_description
_atom_site_fract_x
_atom_site_fract_y
_atom_site_fract_z
_atom_type_partial_charge
O1    O     O_R   0.214130 0.708570 0.829890 -0.536377
O2    O     O_R   0.785870 0.708570 0.170110 -0.539801
O3    O     O_R   0.714130 0.208570 0.829890 -0.539486
O4    O     O_R   0.285870 0.208570 0.170110 -0.539668
O5    O     O_R   0.236050 0.959150 0.825270 -0.512749
O6    O     O_R   0.763950 0.959150 0.174730 -0.513940
O7    O     O_R   0.736050 0.459150 0.825270 -0.512824
O8    O     O_R   0.263950 0.459150 0.174730 -0.512871
C1    C     C_R   0.273335 0.037835 0.856259 0.549956
C2    C     C_R   0.726722 0.038512 0.143881 0.550971
C3    C     C_R   0.773334 0.537837 0.856258 0.549342
C4    C     C_R   0.226723 0.538517 0.143884 0.552818
O9    O     O_R   0.332100 0.076650 0.832310 -0.501614
O10   O     O_R   0.667900 0.076650 0.167690 -0.499707
O11   O     O_R   0.832100 0.576650 0.832310 -0.502387
O12   O     O_R   0.167900 0.576650 0.167690 -0.498707
O13   O     O_R   0.446500 0.918620 0.826240 -0.510747
O14   O     O_R   0.553500 0.918620 0.173760 -0.510865
O15   O     O_R   0.946500 0.418620 0.826240 -0.511327
O16   O     O_R   0.053500 0.418620 0.173760 -0.511248
C5    C     C_R   0.443470 0.817502 0.862425 0.535517
C6    C     C_R   0.556504 0.818110 0.137534 0.534337
C7    C     C_R   0.943470 0.317502 0.862425 0.534972
C8    C     C_R   0.056504 0.318110 0.137534 0.534399
O17   O     O_R   0.457310 0.715830 0.831280 -0.471476
O18   O     O_R   0.542690 0.715830 0.168720 -0.472349
O19   O     O_R   0.957310 0.215830 0.831280 -0.471330
O20   O     O_R   0.042690 0.215830 0.168720 -0.472690
O21   O     O_R   0.321000 0.623520 0.824130 -0.419710
O22   O     O_R   0.679000 0.623520 0.175870 -0.422618
O23   O     O_R   0.821000 0.123520 0.824130 -0.422581
O24   O     O_R   0.179000 0.123520 0.175870 -0.422231
C9    C     C_R   0.260942 0.635521 0.852495 0.570422
C10   C     C_R   0.738976 0.636248 0.147366 0.563128
C11   C     C_R   0.760942 0.135520 0.852494 0.564078
C12   C     C_R   0.238976 0.136247 0.147367 0.563458
O25   O     O_R   0.213990 0.710040 0.667000 -0.531609
O26   O     O_R   0.786010 0.710040 0.333000 -0.537833
O27   O     O_R   0.713990 0.210040 0.667000 -0.537747
O28   O     O_R   0.286010 0.210040 0.333000 -0.538445
O29   O     O_R   0.235920 0.960520 0.674260 -0.524818
O30   O     O_R   0.764080 0.960520 0.325740 -0.513516
O31   O     O_R   0.735920 0.460520 0.674260 -0.513797
O32   O     O_R   0.264080 0.460520 0.325740 -0.514389
C13   C     C_R   0.270740 0.051239 0.649006 0.530886
C14   C     C_R   0.727058 0.045424 0.353303 0.540501
C15   C     C_R   0.772839 0.546122 0.646908 0.540177
C16   C     C_R   0.224381 0.538491 0.355990 0.544891
O33   O     O_R   0.331960 0.078120 0.669410 -0.527021
O34   O     O_R   0.668040 0.078120 0.330590 -0.529203
O35   O     O_R   0.831960 0.578120 0.669410 -0.528992
O36   O     O_R   0.168040 0.578120 0.330590 -0.531756
O37   O     O_R   0.446360 0.919990 0.675230 -0.511565
O38   O     O_R   0.553640 0.919990 0.324770 -0.511626
O39   O     O_R   0.946360 0.419990 0.675230 -0.509606
O40   O     O_R   0.053640 0.419990 0.324770 -0.514415
C17   C     C_R   0.469658 0.822399 0.646007 0.532884
C18   C     C_R   0.530823 0.822173 0.354243 0.535259
C19   C     C_R   0.969855 0.322881 0.645842 0.534283
C20   C     C_R   0.029312 0.322134 0.353260 0.533721
O41   O     O_R   0.457170 0.717300 0.668380 -0.535874
O42   O     O_R   0.542830 0.717300 0.331620 -0.531797
O43   O     O_R   0.957170 0.217300 0.668380 -0.531942
O44   O     O_R   0.042830 0.217300 0.331620 -0.531681
O45   O     O_R   0.320870 0.624890 0.673130 -0.499663
O46   O     O_R   0.679130 0.624890 0.326870 -0.503632
O47   O     O_R   0.820870 0.124890 0.673130 -0.503739
O48   O     O_R   0.179130 0.124890 0.326870 -0.505486
C21   C     C_R   0.272834 0.682385 0.636254 0.532503
C22   C     C_R   0.738558 0.643035 0.357292 0.538929
C23   C     C_R   0.761690 0.144129 0.642454 0.538957
C24   C     C_R   0.238686 0.143117 0.357225 0.535671
Cr1   Cr    Cr6+3 0.229620 0.836040 0.749110 1.001693
Cr2   Cr    Cr6+3 0.770380 0.836040 0.250890 1.004873
Cr3   Cr    Cr6+3 0.729620 0.336040 0.749110 1.005091
Cr4   Cr    Cr6+3 0.270380 0.336040 0.250890 1.005070
Cr5   Cr    Cr6+3 0.387630 0.990680 0.750730 1.005713
Cr6   Cr    Cr6+3 0.612370 0.990680 0.249270 1.009956
Cr7   Cr    Cr6+3 0.887630 0.490680 0.750730 1.009295
Cr8   Cr    Cr6+3 0.112370 0.490680 0.249270 1.008021
Cr9   Cr    Cr6+3 0.386020 0.676590 0.749210 1.070743
Cr10  Cr    Cr6+3 0.613980 0.676590 0.250790 1.071016
Cr11  Cr    Cr6+3 0.886020 0.176590 0.749210 1.072228
Cr12  Cr    Cr6+3 0.113980 0.176590 0.250790 1.069563
O49   O     O_3   0.334430 0.834430 0.749680 -0.317355
O50   O     O_3   0.665570 0.834430 0.250320 -0.306368
O51   O     O_3   0.834430 0.334430 0.749680 -0.306411
O52   O     O_3   0.165570 0.334430 0.250320 -0.306939
C25   C     C_3   0.481283 0.920770 0.036067 -0.113330
C26   C     C_3   0.518250 0.920968 0.962731 -0.111967
C27   C     C_3   0.981282 0.420768 0.036067 -0.113444
C28   C     C_3   0.018250 0.420967 0.962732 -0.111806
C29   C     C_3   0.431999 0.824722 0.009787 -0.183472
C30   C     C_3   0.568225 0.825956 0.989886 -0.183445
C31   C     C_3   0.931999 0.324719 0.009787 -0.183556
C32   C     C_3   0.068225 0.325956 0.989887 -0.183373
H1    H     H_    0.379319 0.828832 0.030957 0.091402
H2    H     H_    0.620824 0.831224 0.968393 0.091664
H3    H     H_    0.879319 0.328826 0.030957 0.091345
H4    H     H_    0.120824 0.331224 0.968394 0.091785
H5    H     H_    0.467315 0.001173 0.065775 0.140226
H6    H     H_    0.531797 0.001501 0.932234 0.140493
H7    H     H_    0.967314 0.501170 0.065776 0.140186
H8    H     H_    0.031797 0.501501 0.932235 0.140717
C33   C     C_3   0.469896 0.824494 0.936857 0.048003
C34   C     C_3   0.530307 0.825432 0.062884 0.047365
C35   C     C_3   0.969896 0.324493 0.936857 0.048133
C36   C     C_3   0.030308 0.325431 0.062884 0.047420
C37   C     C_3   0.519373 0.729635 0.964030 -0.061737
C38   C     C_3   0.481477 0.729439 0.036538 -0.059876
C39   C     C_3   0.019374 0.229635 0.964030 -0.061644
C40   C     C_3   0.981478 0.229437 0.036538 -0.059962
H9    H     H_    0.536842 0.649613 0.935734 0.178166
H10   H     H_    0.464280 0.649212 0.065478 0.179544
H11   H     H_    0.036842 0.149613 0.935734 0.178162
H12   H     H_    0.964282 0.149209 0.065478 0.179474
C41   C     C_3   0.293213 0.470939 0.032771 -0.201507
C42   C     C_3   0.707042 0.470324 0.968580 -0.202272
C43   C     C_3   0.793210 0.970931 0.032765 -0.201407
C44   C     C_3   0.207042 0.970323 0.968583 -0.202257
H13   H     H_    0.289769 0.381640 0.054038 0.136757
H14   H     H_    0.710618 0.380936 0.948450 0.134235
H15   H     H_    0.789767 0.881633 0.054032 0.136849
H16   H     H_    0.210616 0.880935 0.948452 0.134167
H17   H     H_    0.346639 0.496413 0.048035 0.172284
H18   H     H_    0.653513 0.495255 0.953095 0.173011
H19   H     H_    0.846638 0.996403 0.048023 0.172183
H20   H     H_    0.153512 0.995255 0.953100 0.173039
C45   C     C_3   0.286172 0.475056 0.949802 0.129729
C46   C     C_3   0.714093 0.475279 0.051588 0.130026
C47   C     C_3   0.786165 0.975050 0.949795 0.129958
C48   C     C_3   0.214095 0.975278 0.051590 0.130022
H21   H     H_    0.245921 0.413405 0.933487 0.090447
H22   H     H_    0.754358 0.413802 0.069043 0.091166
H23   H     H_    0.745909 0.913404 0.933482 0.090011
H24   H     H_    0.254362 0.913802 0.069044 0.091249
H25   H     H_    0.653390 0.966921 0.032571 0.104296
H26   H     H_    0.347067 0.968101 0.968561 0.105032
H27   H     H_    0.153396 0.466914 0.032573 0.104226
H28   H     H_    0.847061 0.468093 0.968564 0.104916
H29   H     H_    0.649253 0.036655 0.914820 0.111709
H30   H     H_    0.350731 0.037306 0.085612 0.111737
H31   H     H_    0.149257 0.536648 0.914823 0.112578
H32   H     H_    0.850730 0.537307 0.085612 0.111657
C49   C     C_3   0.171297 0.556632 0.027508 -0.244966
C50   C     C_3   0.828589 0.557421 0.972725 -0.243682
C51   C     C_3   0.671295 0.056635 0.027506 -0.244775
C52   C     C_3   0.328590 0.057427 0.972725 -0.243709
C53   C     C_3   0.272017 0.681608 0.053728 -0.280692
C54   C     C_3   0.727268 0.680662 0.944935 -0.279079
C55   C     C_3   0.772019 0.181601 0.053727 -0.281058
C56   C     C_3   0.227267 0.180661 0.944935 -0.279037
C57   C     C_3   0.241523 0.560981 0.066952 -0.000071
C58   C     C_3   0.758314 0.560381 0.933168 -0.000451
C59   C     C_3   0.741522 0.060975 0.066949 0.000352
C60   C     C_3   0.258314 0.060380 0.933169 -0.000582
H33   H     H_    0.230119 0.742971 0.064835 0.202320
H34   H     H_    0.768636 0.742290 0.931778 0.202674
H35   H     H_    0.730124 0.242968 0.064835 0.202247
H36   H     H_    0.268635 0.242289 0.931776 0.202639
H37   H     H_    0.315719 0.698131 0.090524 0.111732
H38   H     H_    0.682887 0.695935 0.908627 0.111529
H39   H     H_    0.815723 0.198118 0.090522 0.111458
H40   H     H_    0.182885 0.195931 0.908628 0.111795
C61   C     C_3   0.255847 0.598075 0.928523 0.039991
C62   C     C_3   0.744219 0.598636 0.071476 0.040459
C63   C     C_3   0.755844 0.098072 0.928521 0.041656
C64   C     C_3   0.244220 0.098636 0.071478 0.040354
C65   C     C_3   0.178556 0.596530 0.950080 -0.274855
C66   C     C_3   0.821372 0.597253 0.049882 -0.273804
C67   C     C_3   0.678554 0.096533 0.950078 -0.274786
C68   C     C_3   0.321374 0.097254 0.049883 -0.273826
C69   C     C_3   0.294886 0.689327 0.974246 -0.253000
C70   C     C_3   0.705193 0.689488 0.024606 -0.251498
C71   C     C_3   0.794887 0.189320 0.974244 -0.252191
C72   C     C_3   0.205194 0.189488 0.024606 -0.251562
H41   H     H_    0.350018 0.665925 0.971412 0.177782
H42   H     H_    0.650043 0.666618 0.028335 0.178179
H43   H     H_    0.850019 0.165915 0.971408 0.177777
H44   H     H_    0.150044 0.166619 0.028338 0.178192
H45   H     H_    0.294297 0.778426 0.952292 0.086496
H46   H     H_    0.706568 0.778885 0.045031 0.085264
H47   H     H_    0.794298 0.278420 0.952291 0.086699
H48   H     H_    0.206572 0.278885 0.045031 0.085229
H49   H     H_    0.630575 0.111644 0.052233 0.216440
H50   H     H_    0.368930 0.112955 0.947367 0.217231
H51   H     H_    0.130574 0.611635 0.052234 0.216408
H52   H     H_    0.868933 0.612939 0.947367 0.217263
H53   H     H_    0.155586 0.685605 0.944643 0.195358
H54   H     H_    0.844224 0.686305 0.054718 0.197606
H55   H     H_    0.655586 0.185610 0.944642 0.195516
H56   H     H_    0.344224 0.186306 0.054721 0.197639
C73   C     C_3   0.504270 0.697581 0.460915 -0.225522
C74   C     C_3   0.500059 0.696903 0.540927 -0.225230
C75   C     C_3   0.000175 0.197391 0.459876 -0.225735
C76   C     C_3   0.996191 0.199048 0.539802 -0.223534
H57   H     H_    0.546518 0.640353 0.444419 0.137027
H58   H     H_    0.461008 0.631882 0.558139 0.133507
H59   H     H_    0.040246 0.134156 0.443890 0.133212
H60   H     H_    0.953537 0.142535 0.556631 0.138765
H61   H     H_    0.458054 0.654067 0.438694 0.113160
H62   H     H_    0.547852 0.658443 0.562936 0.112640
H63   H     H_    0.952742 0.157504 0.438242 0.111325
H64   H     H_    0.042204 0.154689 0.562292 0.112156
H65   H     H_    0.615017 0.893970 0.450240 0.105007
H66   H     H_    0.382976 0.881988 0.549878 0.099904
H67   H     H_    0.114501 0.372335 0.446815 0.107085
H68   H     H_    0.885781 0.394659 0.549627 0.105150
H69   H     H_    0.602947 0.832762 0.573913 0.111051
H70   H     H_    0.397896 0.828826 0.422924 0.113728
H71   H     H_    0.103539 0.331548 0.574183 0.114885
H72   H     H_    0.896649 0.333196 0.426772 0.110479
C77   C     C_3   0.563202 0.901331 0.471725 -0.219203
C78   C     C_3   0.434880 0.895327 0.527628 -0.221167
C79   C     C_3   0.064981 0.394218 0.469596 -0.219926
C80   C     C_3   0.937428 0.402768 0.527582 -0.218638
C81   C     C_3   0.440111 0.881361 0.445255 -0.267519
C82   C     C_3   0.559407 0.885796 0.553856 -0.267435
C83   C     C_3   0.940369 0.386385 0.445638 -0.267133
C84   C     C_3   0.060812 0.383530 0.552290 -0.268523
C85   C     C_3   0.509918 0.825033 0.430720 0.065430
C86   C     C_3   0.490736 0.824774 0.569546 0.068595
C87   C     C_3   0.008460 0.324547 0.429748 0.067129
C88   C     C_3   0.991021 0.326872 0.568956 0.064885
H73   H     H_    0.437910 0.967756 0.417963 0.108537
H74   H     H_    0.562039 0.972482 0.580560 0.109003
H75   H     H_    0.937724 0.472801 0.417859 0.109871
H76   H     H_    0.064672 0.471626 0.577049 0.108433
H77   H     H_    0.449502 0.987363 0.537776 0.120108
H78   H     H_    0.546639 0.992581 0.460437 0.117689
H79   H     H_    0.954083 0.494181 0.537390 0.117476
H80   H     H_    0.053744 0.486271 0.455936 0.122104
C89   C     C_3   0.176641 0.652856 0.459067 -0.096658
C90   C     C_3   0.826326 0.644324 0.538931 -0.101871
C91   C     C_3   0.673867 0.144074 0.460804 -0.100725
C92   C     C_3   0.326028 0.139278 0.539038 -0.092664
H81   H     H_    0.132686 0.595058 0.458447 0.127912
H82   H     H_    0.865585 0.579562 0.539935 0.143158
H83   H     H_    0.634578 0.079381 0.461014 0.142043
H84   H     H_    0.362001 0.070563 0.547065 0.145852
C93   C     C_3   0.187745 0.677875 0.537314 -0.202253
C94   C     C_3   0.815311 0.670292 0.460956 -0.204162
C95   C     C_3   0.685019 0.170761 0.538512 -0.205052
C96   C     C_3   0.320150 0.152061 0.458964 -0.206686
H85   H     H_    0.175714 0.769658 0.549793 0.132642
H86   H     H_    0.813403 0.764057 0.451235 0.144997
H87   H     H_    0.686963 0.264440 0.547053 0.143250
H88   H     H_    0.333125 0.242550 0.442503 0.148056
H89   H     H_    0.150114 0.625038 0.569303 0.124484
H90   H     H_    0.860753 0.638295 0.429896 0.114369
H91   H     H_    0.639658 0.139115 0.570110 0.114892
H92   H     H_    0.358584 0.096548 0.431511 0.102576
H93   H     H_    0.722323 0.891226 0.454459 0.110851
H94   H     H_    0.260862 0.905069 0.554505 0.114560
H95   H     H_    0.199465 0.439858 0.492251 0.100637
H96   H     H_    0.778110 0.391699 0.548195 0.111886
H97   H     H_    0.695652 0.951170 0.573560 0.110256
H98   H     H_    0.274653 0.935408 0.427869 0.108459
H99   H     H_    0.241857 0.466436 0.597340 0.126769
H100  H     H_    0.804697 0.450424 0.428230 0.110409
C97   C     C_3   0.249951 0.475438 0.480839 -0.266110
C98   C     C_3   0.747116 0.465028 0.529381 -0.233832
C99   C     C_3   0.753248 0.964840 0.472129 -0.235182
C100  C     C_3   0.231852 0.978869 0.534193 -0.232325
C101  C     C_3   0.305626 0.650444 0.429862 -0.234170
C102  C     C_3   0.699588 0.660776 0.559079 -0.261360
C103  C     C_3   0.800572 0.160213 0.439984 -0.259890
C104  C     C_3   0.202190 0.181440 0.559746 -0.250728
C105  C     C_3   0.239502 0.580323 0.428704 0.074794
C106  C     C_3   0.761330 0.580647 0.571559 0.070940
C107  C     C_3   0.738830 0.080007 0.428538 0.070908
C108  C     C_3   0.257491 0.089932 0.573482 0.067947
H101  H     H_    0.349848 0.592837 0.415701 0.121086
H102  H     H_    0.654944 0.629095 0.590966 0.106900
H103  H     H_    0.845334 0.128184 0.408607 0.107209
H104  H     H_    0.153536 0.152496 0.585634 0.103412
H105  H     H_    0.303725 0.722111 0.389254 0.107481
H106  H     H_    0.711524 0.751003 0.576120 0.120872
H107  H     H_    0.788642 0.250222 0.421620 0.120308
H108  H     H_    0.215765 0.267262 0.582760 0.112550
C109  C     C_3   0.262434 0.644934 0.560558 0.045293
C110  C     C_3   0.747640 0.613300 0.433843 0.047606
C111  C     C_3   0.752650 0.114160 0.566060 0.047216
C112  C     C_3   0.246867 0.117864 0.434563 0.043844
C113  C     C_3   0.272338 0.512798 0.555141 -0.232318
C114  C     C_3   0.754593 0.483119 0.448079 -0.273582
C115  C     C_3   0.745765 0.983838 0.553278 -0.271352
C116  C     C_3   0.234490 0.991496 0.452638 -0.267376
C117  C     C_3   0.314373 0.698276 0.505663 -0.265233
C118  C     C_3   0.684170 0.657004 0.478021 -0.225829
C119  C     C_3   0.816013 0.157624 0.521120 -0.226319
C120  C     C_3   0.193978 0.191175 0.476988 -0.223117
H109  H     H_    0.307544 0.789737 0.497438 0.107626
H110  H     H_    0.663833 0.738274 0.457552 0.112342
H111  H     H_    0.836223 0.239494 0.540045 0.111062
H112  H     H_    0.202744 0.277500 0.457244 0.107916
H113  H     H_    0.366408 0.682973 0.523958 0.124285
H114  H     H_    0.643317 0.590948 0.470998 0.118041
H115  H     H_    0.857097 0.091973 0.529032 0.118073
H116  H     H_    0.141892 0.165239 0.462434 0.127321
H117  H     H_    0.286742 0.411074 0.459022 0.131098
H118  H     H_    0.692517 0.442230 0.540531 0.124672
H119  H     H_    0.807820 0.941839 0.461275 0.123651
H120  H     H_    0.177268 0.961612 0.550025 0.122789
H121  H     H_    0.327603 0.490568 0.563219 0.133642
H122  H     H_    0.713665 0.438082 0.419260 0.122520
H123  H     H_    0.786746 0.939305 0.582750 0.123111
H124  H     H_    0.183410 0.972145 0.430427 0.132349
C121  C     C_3   0.150235 0.759614 0.416167 -0.386450
H125  H     H_    0.192260 0.798978 0.383867 0.156297
H126  H     H_    0.108576 0.735018 0.378629 0.162938
H127  H     H_    0.123249 0.822310 0.451569 0.093619
C122  C     C_3   0.858588 0.749355 0.579299 -0.395488
H128  H     H_    0.824530 0.778807 0.623298 0.164656
H129  H     H_    0.908087 0.722263 0.604376 0.148185
H130  H     H_    0.872677 0.823785 0.543729 0.097957
C123  C     C_3   0.641427 0.248955 0.419418 -0.394679
H131  H     H_    0.675868 0.279705 0.375791 0.164659
H132  H     H_    0.592414 0.221303 0.393843 0.149386
H133  H     H_    0.626368 0.322696 0.454521 0.097840
C124  C     C_3   0.359334 0.248923 0.574559 -0.389821
H134  H     H_    0.323880 0.292476 0.612523 0.155736
H135  H     H_    0.405710 0.222359 0.605446 0.151926
H136  H     H_    0.378711 0.314726 0.535552 0.093967
S1    S     S_3+6 0.366222 0.426985 0.909080 -0.026299
O53   O     O_2   0.419486 0.522328 0.908681 -0.276917
O54   O     O_2   0.394522 0.325115 0.950862 -0.331663
O55   O     O_3   0.350852 0.383642 0.824966 -0.517781
H137  H     H_    0.395047 0.349709 0.808133 0.360743
S2    S     S_3+6 0.634059 0.427184 0.092770 -0.025460
O56   O     O_2   0.580758 0.522542 0.092306 -0.277664
O57   O     O_2   0.605772 0.325215 0.051979 -0.329845
O58   O     O_3   0.649495 0.383932 0.177278 -0.519594
H138  H     H_    0.605193 0.350759 0.194618 0.360165
S3    S     S_3+6 0.866207 0.926973 0.909059 -0.026704
O59   O     O_2   0.919477 0.022307 0.908662 -0.276503
O60   O     O_2   0.894506 0.825090 0.950828 -0.331347
O61   O     O_3   0.850821 0.883654 0.824943 -0.521092
H139  H     H_    0.895017 0.849759 0.808087 0.360686
S4    S     S_3+6 0.134065 0.927179 0.092779 -0.025452
O62   O     O_2   0.080762 0.022535 0.092314 -0.277823
O63   O     O_2   0.105777 0.825204 0.051996 -0.329838
O64   O     O_3   0.149508 0.883938 0.177290 -0.518791
H140  H     H_    0.105179 0.850928 0.194672 0.359774

loop_
_geom_bond_atom_site_label_1
_geom_bond_atom_site_label_2
_geom_bond_distance
_ccdc_geom_bond_type
O4    C12   1.302526 A    
H96   C98   1.086817 S    
C80   C83   1.547906 S    
Cr7   O51   2.059051 S    
O58   H138  0.990509 S    
C102  H106  1.104328 S    
H71   C84   1.097271 S    
C103  H103  1.108443 S    
C93   H85   1.098660 S    
O39   C19   1.319906 A    
C31   H3    1.094280 S    
C75   H63   1.105569 S    
C91   C107  1.575175 S    
O21   C9    1.284435 A    
C12   C64   1.490357 S    
C73   H61   1.108248 S    
C1    O9    1.298468 A    
O44   Cr12  2.096716 S    
C78   C86   1.559715 S    
C3    C58   1.492043 S    
C3    O11   1.298463 A    
C56   C60   1.514526 S    
C1    C60   1.492044 S    
C25   C34   1.527042 S    
C24   C112  1.483737 S    
C55   C59   1.515504 S    
C104  C120  1.561761 S    
C51   C59   1.552325 S    
C73   C74   1.500075 S    
C29   C38   1.531695 S    
C74   C86   1.567155 S    
O2    C10   1.302532 A    
C32   C36   1.548681 S    
O17   Cr9   2.121579 S    
C46   H22   1.097937 S    
C90   C106  1.572686 S    
C97   C113  1.523221 S    
C61   C65   1.549149 S    
C62   C70   1.551677 S    
C99   C115  1.542621 S    
S2    O56   1.499241 D    
O16   Cr8   2.002244 S    
C93   H89   1.115498 S    
S4    O62   1.499245 D    
S3    O60   1.500778 D    
C63   C67   1.549143 S    
C22   C110  1.481915 S    
C117  H109  1.061407 S    
O28   Cr4   2.119422 S    
O12   Cr8   2.101306 S    
O22   Cr10  1.978865 S    
C123  H133  1.109127 S    
O15   C7    1.334290 A    
C80   C88   1.557118 S    
O46   Cr10  1.993746 S    
C50   C58   1.553417 S    
O48   C24   1.306179 A    
C7    C35   1.489877 S    
C91   C95   1.505411 S    
C76   C88   1.563137 S    
C45   H21   1.096218 S    
C41   C57   1.571362 S    
C71   H47   1.093289 S    
C72   H48   1.091747 S    
C98   H118  1.107959 S    
C25   H5    1.108599 S    
O36   Cr8   2.124962 S    
Cr12  O52   2.059105 S    
C26   C33   1.528323 S    
C27   H7    1.108599 S    
O7    Cr3   2.012733 S    
C17   O41   1.289276 A    
C43   H15   1.092595 S    
C30   C37   1.532913 S    
C19   O43   1.296072 A    
C20   O44   1.291315 A    
C117  H113  1.080062 S    
Cr8   O52   2.057929 S    
C79   C84   1.554127 S    
C15   C106  1.480002 S    
O46   C22   1.304400 A    
C103  C119  1.549988 S    
C19   C88   1.495462 S    
C28   H8    1.108797 S    
C75   C76   1.498533 S    
C16   O36   1.274155 A    
C112  C120  1.543032 S    
C124  H134  1.106325 S    
O27   C23   1.276905 A    
C78   H77   1.105185 S    
O31   C15   1.310189 A    
C82   H74   1.112291 S    
H100  C114  1.103506 S    
O32   C16   1.305905 A    
O47   Cr11  2.000238 S    
C39   C40   1.540430 S    
S4    O64   1.682284 S    
C65   H53   1.112906 S    
C70   H46   1.091748 S    
O29   Cr1   1.990898 S    
C68   H56   1.112428 S    
O24   C12   1.284252 A    
O30   C14   1.311957 A    
C122  H129  1.112496 S    
H29   C67   1.111277 S    
C42   H14   1.091367 S    
S1    O54   1.500785 D    
C26   H6    1.108797 S    
C53   C57   1.515503 S    
C110  C118  1.562209 S    
O11   Cr7   2.111178 S    
C104  C108  1.516792 S    
H26   C52   1.082682 S    
C47   C63   1.570014 S    
C43   C47   1.560678 S    
O27   Cr3   2.134753 S    
C41   C45   1.560665 S    
C38   H10   1.110352 S    
C97   C105  1.552132 S    
C48   H24   1.097939 S    
H93   C99   1.086063 S    
C99   C107  1.566872 S    
Cr5   O49   2.059051 S    
C116  H124  1.098499 S    
C77   C85   1.559042 S    
C18   C85   1.486951 S    
C75   H59   1.101186 S    
C121  H126  1.110328 S    
C32   C39   1.532916 S    
C95   H91   1.115742 S    
O22   C10   1.284250 A    
C79   H80   1.100455 S    
C100  C116  1.533511 S    
C4    O12   1.297745 A    
C120  H112  1.062407 S    
C2    O10   1.297753 A    
C27   C28   1.545721 S    
S3    O59   1.499305 D    
C55   H35   1.091673 S    
O5    C1    1.294568 A    
O25   C21   1.314037 A    
O3    C11   1.301333 A    
O8    C4    1.291769 A    
C124  H136  1.107758 S    
C104  H104  1.107290 S    
C102  C118  1.549301 S    
Cr1   O49   2.030862 S    
C90   C94   1.503949 S    
Cr3   O51   2.030862 S    
C98   C114  1.540997 S    
C62   C66   1.546804 S    
C76   H64   1.108203 S    
C20   C87   1.486743 S    
C29   H1    1.094281 S    
C40   H12   1.110352 S    
C63   C71   1.551747 S    
O26   Cr2   2.119422 S    
C101  H101  1.111608 S    
C64   C72   1.551681 S    
C33   C37   1.530855 S    
O29   C13   1.318828 A    
O28   C24   1.272963 A    
O14   C6    1.337130 A    
C35   C39   1.530856 S    
C9    C61   1.486196 S    
C8    O20   1.327294 A    
O55   H137  0.990506 S    
C2    C59   1.487912 S    
C77   C82   1.548246 S    
O40   Cr8   1.977890 S    
C23   C111  1.484414 S    
O41   Cr9   2.092125 S    
H66   C78   1.096906 S    
C74   H58   1.104874 S    
C32   H4    1.095409 S    
O33   Cr5   2.114029 S    
C42   C58   1.570274 S    
C25   C29   1.538457 S    
O35   Cr7   2.114029 S    
C69   H45   1.093289 S    
C72   H44   1.101783 S    
O40   C20   1.319562 A    
O18   Cr10  2.116564 S    
C89   C121  1.542111 S    
C41   H17   1.114433 S    
Cr9   O49   2.058361 S    
C81   H73   1.107397 S    
C43   H19   1.114429 S    
C18   O42   1.292190 A    
C13   C108  1.501653 S    
Cr11  O51   2.058361 S    
O26   C22   1.275735 A    
O20   Cr12  2.116564 S    
C118  H114  1.101903 S    
C91   C123  1.554473 S    
C113  H121  1.111026 S    
C94   H86   1.083893 S    
H70   C81   1.100061 S    
S2    O57   1.501116 D    
C49   H51   1.109273 S    
C50   H52   1.108947 S    
S4    O63   1.501112 D    
C31   C40   1.531695 S    
C34   C38   1.532975 S    
C30   H2    1.095410 S    
C74   H62   1.104668 S    
H32   C66   1.111354 S    
C44   C60   1.570288 S    
C80   H79   1.108180 S    
C84   H76   1.112126 S    
C90   H82   1.060035 S    
C123  H132  1.112413 S    
C101  C105  1.510858 S    
C5    O17   1.328207 A    
C103  C107  1.523094 S    
H27   C49   1.083729 S    
S2    O58   1.682269 S    
O6    Cr2   1.998103 S    
C8    C36   1.491230 S    
C70   H42   1.101778 S    
C73   C85   1.559267 S    
O42   Cr10  2.096716 S    
H65   C77   1.083169 S    
C100  C108  1.552279 S    
C118  H110  1.075578 S    
O31   Cr3   1.990898 S    
O24   Cr12  1.978865 S    
O34   Cr6   2.124962 S    
C26   C30   1.538038 S    
C17   C86   1.487047 S    
C109  C113  1.522836 S    
C54   H38   1.111650 S    
C49   C65   1.522321 S    
O30   Cr2   2.005318 S    
C96   C112  1.544768 S    
C111  C115  1.512960 S    
O48   Cr12  1.993746 S    
C112  C116  1.496933 S    
C55   C71   1.552749 S    
C81   C85   1.521193 S    
H28   C50   1.082682 S    
O37   C17   1.321936 A    
C15   O35   1.276762 A    
C111  C119  1.563808 S    
Cr10  O50   2.059105 S    
C92   C108  1.575795 S    
C36   C40   1.532978 S    
O43   Cr11  2.092125 S    
C94   H90   1.115525 S    
O37   Cr5   1.985812 S    
O21   Cr9   1.972986 S    
C42   C46   1.562465 S    
C98   C106  1.566964 S    
O39   Cr7   1.985812 S    
C46   C62   1.571135 S    
O45   Cr9   2.000238 S    
C46   S2    1.811927 S    
C13   O33   1.285816 A    
O13   Cr5   1.993311 S    
C67   H55   1.112904 S    
O15   Cr7   1.993311 S    
C31   C35   1.547415 S    
C95   H87   1.081952 S    
O23   C11   1.284448 A    
C120  H116  1.088241 S    
C53   H37   1.111274 S    
C14   O34   1.276486 A    
C54   H34   1.092270 S    
C91   H83   1.060250 S    
C27   C36   1.527043 S    
H25   C51   1.083727 S    
C45   S1    1.811418 S    
C90   C122  1.554029 S    
C115  H123  1.092087 S    
O6    C2    1.291769 A    
S3    O61   1.682247 S    
C44   H20   1.114437 S    
H72   C83   1.103056 S    
C104  H108  1.104570 S    
C45   C61   1.570032 S    
O1    Cr1   2.110656 S    
O19   Cr11  2.121579 S    
C37   C38   1.540433 S    
C101  H105  1.112918 S    
C122  H128  1.107066 S    
C102  H102  1.107883 S    
O45   C21   1.331127 A    
C103  H107  1.104749 S    
O47   C23   1.302742 A    
S1    O53   1.499301 D    
O13   C5    1.334286 A    
C83   C87   1.524646 S    
C96   H88   1.103493 S    
C64   C68   1.546802 S    
C6    O18   1.327295 A    
C52   C60   1.553419 S    
C83   H75   1.112169 S    
C25   C26   1.545721 S    
C10   C62   1.490365 S    
C53   H33   1.091667 S    
C5    C33   1.489877 S    
C77   H78   1.107887 S    
O38   Cr6   1.977890 S    
O64   H140  0.990518 S    
C56   H36   1.092277 S    
C14   C107  1.484452 S    
C119  H111  1.075604 S    
C28   C32   1.538038 S    
C4    C57   1.487904 S    
C76   H60   1.092051 S    
C100  H120  1.114167 S    
O1    C9    1.301340 A    
C121  H125  1.105405 S    
C51   H49   1.109272 S    
O7    C3    1.294568 A    
C101  C117  1.534489 S    
H69   C82   1.103475 S    
H98   C116  1.109064 S    
C47   H23   1.096227 S    
C89   C105  1.577930 S    
C61   C69   1.551741 S    
H97   C115  1.104745 S    
O23   Cr11  1.972986 S    
O32   Cr4   2.005318 S    
H99   C113  1.114615 S    
C41   H13   1.092601 S    
C29   C33   1.547417 S    
C21   C109  1.497944 S    
O16   C8    1.337132 A    
C124  H135  1.111685 S    
C11   C63   1.486165 S    
C7    O19   1.328205 A    
C119  H115  1.102239 S    
Cr4   O52   2.030877 S    
O2    Cr2   2.125579 S    
C37   H9    1.110359 S    
C95   C111  1.549375 S    
Cr6   O50   2.057929 S    
C114  H122  1.091948 S    
H68   C80   1.084347 S    
O5    Cr1   2.012733 S    
H67   C79   1.078017 S    
C51   C67   1.522324 S    
C82   C86   1.528038 S    
C52   H50   1.108953 S    
O9    Cr5   2.111178 S    
H95   C97   1.078979 S    
H31   C65   1.111275 S    
C102  C106  1.522827 S    
C122  H130  1.108458 S    
C71   H43   1.102011 S    
C94   C110  1.552820 S    
C92   C124  1.561740 S    
C6    C34   1.491236 S    
C97   H117  1.102127 S    
C92   H84   1.058799 S    
C99   H119  1.107465 S    
S1    O55   1.682225 S    
C28   C35   1.528324 S    
C69   H41   1.102003 S    
Cr2   O50   2.030877 S    
C56   H40   1.111650 S    
C89   C93   1.511210 S    
O14   Cr6   2.002244 S    
C54   C70   1.553950 S    
C16   C105  1.476762 S    
C110  C114  1.512304 S    
C55   H39   1.111272 S    
C50   C66   1.523442 S    
O8    Cr4   1.998103 S    
C84   C88   1.528751 S    
O3    Cr3   2.110656 S    
H30   C68   1.111352 S    
O38   C18   1.316525 A    
C121  H127  1.107761 S    
O25   Cr1   2.134753 S    
C30   C34   1.548684 S    
C43   C59   1.571388 S    
C96   H92   1.104554 S    
C44   C48   1.562466 S    
C48   C64   1.571129 S    
C93   C109  1.558161 S    
C78   C81   1.554669 S    
C79   C87   1.550665 S    
C66   H54   1.112428 S    
C89   H81   1.077268 S    
C48   S4    1.811938 S    
C92   C96   1.510311 S    
C49   C57   1.552323 S    
C47   S3    1.811424 S    
C75   C87   1.560044 S    
C73   H57   1.091442 S    
C52   C68   1.523441 S    
C53   C69   1.552751 S    
O10   Cr6   2.101306 S    
C123  H131  1.107437 S    
O4    Cr4   2.125579 S    
H94   C100  1.079688 S    
C56   C72   1.553953 S    
C27   C31   1.538458 S    
O61   H139  0.990505 S    
C54   C58   1.514529 S    
C39   H11   1.110360 S    
C42   H18   1.114436 S    
C44   H16   1.091366 S    
C109  C117  1.555902 S    
