data_mof_unit_19944.cif
_audit_creation_date              2012-10-26T19:24:17-0400
_audit_creation_method            fapswitch 2.2
_symmetry_space_group_name_H-M    P1
_symmetry_Int_Tables_number       1
_space_group_crystal_system       triclinic
_cell_length_a                    27.643235
_cell_length_b                    10.857796
_cell_length_c                    9.62791
_cell_angle_alpha                 88.434537
_cell_angle_beta                  88.436772
_cell_angle_gamma                 93.857341
_cell_volume                      2880.91423562

loop_
_atom_site_label
_atom_site_type_symbol
_atom_type_description
_atom_site_fract_x
_atom_site_fract_y
_atom_site_fract_z
_atom_type_partial_charge
C1    C     C_R   0.500438 0.261745 0.503106 0.539754
C2    C     C_R   0.969515 0.325863 0.485424 0.017262
C3    C     C_R   0.970369 0.499902 0.645501 0.017228
C4    C     C_R   0.407360 0.498217 0.501884 0.540234
C5    C     C_R   0.944471 0.410198 0.566334 0.033988
C6    C     C_R   0.941842 0.241223 0.404957 -0.139657
C7    C     C_R   0.891513 0.239978 0.403738 -0.110074
C8    C     C_R   0.866627 0.322589 0.482849 0.024261
C9    C     C_R   0.892930 0.406386 0.566244 -0.027331
C10   C     C_R   0.867613 0.488109 0.647558 0.024447
C11   C     C_R   0.817019 0.488216 0.639521 0.399571
C12   C     C_R   0.276792 0.489740 0.391825 -0.056430
C13   C     C_R   0.815958 0.326470 0.476909 0.403754
C14   C     C_R   0.706069 0.339538 0.583860 -0.048812
C15   C     C_R   0.657120 0.361454 0.569944 -0.134474
C16   C     C_R   0.495399 0.735891 0.498970 0.569206
C17   C     C_R   0.680132 0.554671 0.446725 -0.109460
C18   C     C_R   0.728839 0.532959 0.460460 -0.050801
C19   C     C_R   0.742087 0.426200 0.530297 0.236734
C20   C     C_R   0.021114 0.330678 0.485146 0.017190
C21   C     C_R   0.046961 0.426434 0.555896 0.033774
C22   C     C_R   0.021840 0.512120 0.634575 0.017375
C23   C     C_R   0.251883 0.470652 0.520300 0.238503
C24   C     C_R   0.048086 0.243689 0.415128 -0.140689
C25   C     C_R   0.099530 0.620452 0.685204 -0.111331
C26   C     C_R   0.943605 0.575276 0.732435 -0.140732
C27   C     C_R   0.893279 0.569609 0.732875 -0.109813
C28   C     C_R   0.592289 0.495137 0.499183 0.559528
C29   C     C_R   0.049242 0.609559 0.696814 -0.140977
C30   C     C_R   0.484198 0.099447 0.770463 -0.090101
C31   C     C_R   0.462543 0.028193 0.882090 0.004783
C32   C     C_R   0.441595 0.910765 0.858600 -0.091142
C33   C     C_R   0.447400 0.859365 0.729344 -0.099379
C34   C     C_R   0.098545 0.437311 0.546931 -0.027299
C35   C     C_R   0.473589 0.925924 0.620155 0.015004
C36   C     C_R   0.485706 0.053279 0.633927 0.012715
C37   C     C_R   0.499409 0.125980 0.510729 -0.006723
C38   C     C_R   0.507454 0.066829 0.385534 -0.154716
C39   C     C_R   0.503377 0.939744 0.380446 -0.127749
C40   C     C_R   0.175129 0.363767 0.465247 0.399176
C41   C     C_R   0.488655 0.868262 0.498258 0.006254
C42   C     C_R   0.548105 0.705290 0.126060 0.082376
C43   C     C_R   0.555644 0.813325 0.043021 -0.176010
C44   C     C_R   0.562264 0.802435 0.901566 -0.169008
C45   C     C_R   0.124164 0.351199 0.472910 0.024972
C46   C     C_R   0.553135 0.688294 0.843890 -0.061067
C47   C     C_R   0.526130 0.593001 0.919402 0.146478
C48   C     C_R   0.525128 0.596576 0.068307 0.132230
C49   C     C_R   0.474340 0.412149 0.078699 -0.009692
C50   C     C_R   0.473887 0.413074 0.931059 -0.020755
C51   C     C_R   0.175483 0.545233 0.599226 0.397950
C52   C     C_R   0.278135 0.462460 0.642246 -0.056631
C53   C     C_R   0.328666 0.473213 0.636161 -0.145530
C54   C     C_R   0.327456 0.499710 0.385366 -0.145514
C55   C     C_3   0.461852 0.075762 0.026664 -0.415839
C56   C     C_R   0.098509 0.253995 0.409265 -0.111101
C57   C     C_2   0.587959 0.700320 0.222360 0.621349
C58   C     C_R   0.124627 0.534808 0.611300 0.025104
C59   C     C_R   0.353871 0.491437 0.507614 0.002642
C60   C     C_R   0.643813 0.469465 0.501274 0.024372
Cu1   Cu    Cu3+1 0.500000 0.499990 0.640660 0.918780
Cu2   Cu    Cu3+1 0.500000 0.500010 0.359340 0.979256
H1    H     H_    0.345876 0.513764 0.284901 0.130657
H2    H     H_    0.502065 0.186353 0.795868 0.149289
H3    H     H_    0.256857 0.496915 0.297005 0.137570
H4    H     H_    0.422945 0.856445 0.942330 0.119255
H5    H     H_    0.431241 0.767093 0.715783 0.144431
H6    H     H_    0.512572 0.897310 0.284295 0.153996
H7    H     H_    0.452940 0.340673 0.137547 0.118026
H8    H     H_    0.569128 0.899427 0.087182 0.142760
H9    H     H_    0.578102 0.879783 0.838591 0.139826
H10   H     H_    0.566849 0.679168 0.740164 0.190134
H11   H     H_    0.451880 0.342680 0.880183 0.113262
H12   H     H_    0.259290 0.447155 0.741946 0.136811
H13   H     H_    0.117344 0.185256 0.353636 0.167789
H14   H     H_    0.629564 0.295064 0.614379 0.120036
H15   H     H_    0.715970 0.257097 0.638921 0.138510
H16   H     H_    0.872182 0.174767 0.338433 0.167816
H17   H     H_    0.957948 0.176670 0.337829 0.111933
H18   H     H_    0.031408 0.165013 0.364842 0.111622
H19   H     H_    0.347934 0.465780 0.732153 0.130285
H20   H     H_    0.486809 0.159306 0.034986 0.116720
H21   H     H_    0.424470 0.097674 0.057340 0.138399
H22   H     H_    0.473937 0.004147 0.099583 0.131516
H23   H     H_    0.118697 0.697120 0.734408 0.167951
H24   H     H_    0.624008 0.787978 0.376579 0.317288
H25   H     H_    0.960420 0.639405 0.802801 0.112225
H26   H     H_    0.671582 0.640354 0.398812 0.144933
H27   H     H_    0.874568 0.631156 0.799230 0.168773
H28   H     H_    0.756497 0.600908 0.419947 0.134762
H29   H     H_    0.032932 0.681627 0.752374 0.111871
H30   H     H_    0.518437 0.118931 0.291077 0.139759
N1    N     N_R   0.199725 0.460008 0.527585 -0.396357
N2    N     N_R   0.792465 0.410479 0.552269 -0.397589
N3    N     N_R   0.500460 0.501210 0.147910 -0.248473
N4    N     N_R   0.500480 0.501290 0.852040 -0.245884
O1    O     O_R   0.500000 0.319640 0.618810 -0.521088
O2    O     O_R   0.569730 0.499970 0.618800 -0.520370
O3    O     O_R   0.569740 0.499990 0.381230 -0.446756
O4    O     O_2   0.199900 0.279814 0.397181 -0.497937
O5    O     O_2   0.620826 0.633793 0.196657 -0.516573
O6    O     O_R   0.592213 0.786713 0.327361 -0.725799
O7    O     O_2   0.790581 0.249299 0.393921 -0.488365
O8    O     O_2   0.200521 0.640410 0.657818 -0.498728
O9    O     O_2   0.792544 0.566904 0.716529 -0.487893
O10   O     O_R   0.500000 0.319660 0.381240 -0.508230
O11   O     O_R   0.430260 0.500010 0.618770 -0.511079
O12   O     O_R   0.430270 0.500030 0.381200 -0.507907
O13   O     O_R   0.500000 0.680340 0.618760 -0.532635
O14   O     O_R   0.500000 0.680360 0.381190 -0.493960

loop_
_geom_bond_atom_site_label_1
_geom_bond_atom_site_label_2
_ccdc_geom_bond_type
C10   C27   A    
C8    C13   A    
C48   N3    A    
C30   H2    S    
C17   H26   S    
C39   H6    S    
Cu1   O2    S    
C40   N1    A    
Cu1   O13   S    
C53   C59   A    
Cu1   N4    S    
C16   O14   A    
C7    C8    A    
C39   C41   A    
C31   C32   A    
C57   O6    S    
C4    O12   A    
C12   C23   A    
C26   C27   A    
C36   C37   A    
C22   C29   A    
C52   H12   S    
C30   C31   A    
Cu2   O12   S    
C54   H1    S    
C38   H30   S    
C44   H9    S    
C53   H19   S    
C18   C19   A    
C15   C60   A    
C14   H15   S    
C24   H18   S    
C20   C24   A    
C45   C56   A    
C26   H25   S    
C11   O9    S    
C47   N4    A    
C13   O7    S    
C9    C10   A    
C46   H10   S    
C1    C37   S    
C1    O10   A    
C15   H14   S    
C56   H13   S    
C49   H7    S    
C21   C22   A    
C2    C6    A    
C35   C41   A    
C42   C57   S    
C44   C46   A    
C16   O13   A    
C54   C59   A    
C28   C60   S    
C25   C29   A    
C40   C45   A    
C4    O11   A    
C2    C20   A    
C18   H28   S    
C50   H11   S    
C1    O1    A    
C34   C45   A    
C8    C9    A    
C21   C34   A    
C51   O8    S    
C23   N1    S    
C35   C36   A    
C43   C44   A    
C5    C9    A    
C37   C38   A    
C47   C48   A    
Cu2   O14   S    
C25   H23   S    
C17   C18   A    
C51   C58   A    
C42   C48   A    
C49   N3    A    
C55   H20   S    
C19   N2    S    
C51   N1    A    
C7    H16   S    
C28   O3    A    
C43   H8    S    
C2    C5    A    
C42   C43   A    
C55   H21   S    
H24   O6    S    
C29   H29   S    
C52   C53   A    
C33   H5    S    
C32   H4    S    
C28   O2    A    
C46   C47   A    
C14   C19   A    
C3    C26   A    
Cu1   O1    S    
C11   N2    A    
C3    C5    A    
C40   O4    S    
C6    C7    A    
Cu2   O10   S    
C24   C56   A    
C57   O5    D    
C12   H3    S    
C30   C36   A    
C13   N2    A    
C32   C33   A    
C50   N4    A    
C23   C52   A    
C38   C39   A    
C4    C59   S    
C33   C35   A    
C27   H27   S    
Cu1   Cu2   S    
Cu1   O11   S    
C10   C11   A    
C17   C60   A    
C6    H17   S    
Cu2   O3    S    
C20   C21   A    
C49   C50   A    
C25   C58   A    
C34   C58   A    
C14   C15   A    
C3    C22   A    
C31   C55   S    
C55   H22   S    
Cu2   N3    S    
C16   C41   S    
C12   C54   A    
