data_mof_unit_20921.cif
_audit_creation_date              2012-12-10T19:05:21-0500
_audit_creation_method            fapswitch 2.2
_symmetry_space_group_name_H-M    P1
_symmetry_Int_Tables_number       1
_space_group_crystal_system       triclinic
_cell_length_a                    9.533104
_cell_length_b                    10.849487
_cell_length_c                    17.289465
_cell_angle_alpha                 90.135649
_cell_angle_beta                  85.826871
_cell_angle_gamma                 89.772932
_cell_volume                      1783.47559831

loop_
_atom_site_label
_atom_site_type_symbol
_atom_type_description
_atom_site_fract_x
_atom_site_fract_y
_atom_site_fract_z
_atom_type_partial_charge
C1    C     C_R   0.500027 0.737513 0.499287 0.829041
C2    C     C_R   0.343376 0.487972 0.777298 -0.213778
C3    C     C_R   0.428357 0.437798 0.146144 -0.066138
C4    C     C_R   0.420459 0.440547 0.226543 -0.235989
C5    C     C_R   0.651184 0.534918 0.223139 -0.197807
C6    C     C_R   0.658907 0.532417 0.142400 -0.183631
C7    C     C_R   0.545634 0.487393 0.103829 0.208965
C8    C     C_2   0.443517 0.538812 0.981440 0.392419
C9    C     C_2   0.550814 0.493221 0.019203 -0.328950
C10   C     C_R   0.530264 0.491555 0.265512 -0.025112
C11   C     C_R   0.382599 0.937162 0.479089 0.134064
C12   C     C_R   0.481458 0.502281 0.650002 0.772975
C13   C     C_R   0.502658 0.870340 0.494129 -0.161221
C14   C     C_R   0.629358 0.933419 0.501018 -0.324680
C15   C     C_R   0.630918 0.062130 0.504386 0.429202
C16   C     C_R   0.504710 0.128648 0.495767 -0.204754
C17   C     C_R   0.383866 0.064062 0.479368 0.060481
C18   C     C_3   0.237970 0.071500 0.517141 -0.446490
C19   C     C_3   0.236919 0.931591 0.516921 -0.456151
C20   C     C_R   0.931301 0.407058 0.464450 0.316023
C21   C     C_R   0.919638 0.584444 0.541710 -0.099188
C22   C     C_R   0.068633 0.584447 0.541719 -0.082288
C23   C     C_R   0.500726 0.262201 0.500198 0.828869
C24   C     C_R   0.078757 0.407311 0.464225 0.247517
C25   C     C_3   0.094554 0.374182 0.380318 -0.529234
C26   C     C_3   0.935428 0.371916 0.381027 -0.481610
C27   C     C_R   0.518736 0.497840 0.350038 0.793333
C28   C     C_R   0.470919 0.512277 0.734481 -0.018836
C29   C     C_R   0.588100 0.550286 0.772764 -0.176480
C30   C     C_R   0.578486 0.562473 0.852888 -0.221124
C31   C     C_R   0.452231 0.534636 0.895976 0.069350
C32   C     C_R   0.334315 0.498759 0.857733 -0.160810
Cu1   Cu    Cu3+1 0.359330 0.500020 0.500000 0.937264
Cu2   Cu    Cu3+1 0.640670 0.499980 0.500000 0.948342
H1    H     H_    0.686824 0.571986 0.740777 0.142653
H2    H     H_    0.751089 0.568933 0.110063 0.129772
H3    H     H_    0.726180 0.883571 0.508278 0.171443
H4    H     H_    0.234490 0.112110 0.576383 0.193964
H5    H     H_    0.162752 0.112408 0.478125 0.203726
H6    H     H_    0.233184 0.890940 0.576027 0.185819
H7    H     H_    0.161011 0.891990 0.477888 0.201641
H8    H     H_    0.859127 0.654244 0.574241 0.133620
H9    H     H_    0.119941 0.654199 0.574272 0.135265
H10   H     H_    0.141123 0.450164 0.344173 0.219047
H11   H     H_    0.329273 0.401610 0.258078 0.143379
H12   H     H_    0.144212 0.282166 0.370096 0.194625
H13   H     H_    0.892845 0.444723 0.344091 0.209884
H14   H     H_    0.892501 0.278089 0.372692 0.215940
H15   H     H_    0.737916 0.573248 0.252296 0.145989
H16   H     H_    0.647730 0.463457 0.987577 0.119256
H17   H     H_    0.236098 0.477107 0.890243 0.153086
H18   H     H_    0.342786 0.397360 0.117018 0.159552
H19   H     H_    0.251408 0.459227 0.748784 0.149083
H20   H     H_    0.669711 0.593723 0.881106 0.123316
N1    N     N_R   0.852130 0.499070 0.499500 -0.194681
N2    N     N_R   0.148040 0.499110 0.499500 -0.184323
O1    O     O_R   0.381190 0.680360 0.500000 -0.581679
O2    O     O_R   0.618770 0.680320 0.499990 -0.591176
O3    O     O_R   0.367430 0.500040 0.613600 -0.588748
O4    O     O_R   0.605020 0.500000 0.613590 -0.594649
O5    O     O_R   0.381230 0.319680 0.500010 -0.587667
O6    O     O_R   0.618810 0.319640 0.500000 -0.528322
O7    O     O_R   0.394980 0.500000 0.386410 -0.581968
O8    O     O_R   0.632570 0.499960 0.386400 -0.590542
O9    O     O_3   0.754845 0.122489 0.517491 -0.566708
C33   C     C_3   0.788225 0.102151 0.594851 0.076311
H21   H     H_    0.842346 0.011697 0.599202 0.136534
H22   H     H_    0.693201 0.104376 0.636643 0.124297
C34   C     C_3   0.886873 0.202875 0.618821 -0.783521
H23   H     H_    0.833079 0.293818 0.618272 0.257746
H24   H     H_    0.918523 0.184756 0.678299 0.189779
H25   H     H_    0.982494 0.205290 0.578312 0.235251
O10   O     O_3   0.320087 0.575998 0.022727 -0.585655
C35   C     C_3   0.293127 0.701015 0.006689 0.074765
H26   H     H_    0.262754 0.712444 0.946187 0.142610
H27   H     H_    0.386646 0.759338 0.015770 0.140925
C36   C     C_3   0.171716 0.746278 0.061510 -0.795711
H28   H     H_    0.199315 0.737169 0.122568 0.254102
H29   H     H_    0.149252 0.844662 0.049617 0.196455
H30   H     H_    0.075981 0.691174 0.053199 0.241939

loop_
_geom_bond_atom_site_label_1
_geom_bond_atom_site_label_2
_ccdc_geom_bond_type
C10   C27   S    
C33   H22   S    
O10   C35   S    
C36   H28   S    
C30   H20   S    
C11   C19   S    
C35   H27   S    
C12   C28   S    
C28   C29   A    
C3    C7    A    
C5    C6    A    
C33   C34   S    
C15   C16   A    
C15   O9    S    
Cu2   O6    S    
C2    C32   A    
C18   C19   S    
C34   H24   S    
C12   O3    A    
C23   O6    A    
C20   C24   A    
C16   C17   A    
C35   C36   S    
C26   H14   S    
Cu1   N2    S    
C33   H21   S    
Cu2   N1    S    
Cu1   O3    S    
C21   C22   A    
Cu2   O4    S    
C5    H15   S    
C20   N1    A    
C25   H10   S    
Cu1   Cu2   S    
C4    H11   S    
C36   H29   S    
C35   H26   S    
C24   C25   S    
C27   O8    A    
C21   N1    A    
C8    C9    D    
C22   N2    A    
C25   C26   S    
C34   H25   S    
C18   H5    S    
C32   H17   S    
C29   C30   A    
C1    O1    A    
C31   C32   A    
Cu1   O7    S    
Cu2   O8    S    
C17   C18   S    
C27   O7    A    
C26   H13   S    
C16   C23   S    
C1    C13   S    
C4    C10   A    
C3    C4    A    
C36   H30   S    
C7    C9    S    
C11   C17   A    
Cu1   O1    S    
C8    C31   S    
C9    H16   S    
C2    H19   S    
C3    H18   S    
C6    C7    A    
C24   N2    A    
C29   H1    S    
C18   H4    S    
C5    C10   A    
C1    O2    A    
C14   H3    S    
C11   C13   A    
C30   C31   A    
C20   C26   S    
C8    O10   S    
C6    H2    S    
C34   H23   S    
C19   H6    S    
C21   H8    S    
C12   O4    A    
C23   O5    A    
Cu1   O5    S    
O9    C33   S    
Cu2   O2    S    
C14   C15   A    
C2    C28   A    
C13   C14   A    
C25   H12   S    
C22   H9    S    
C19   H7    S    
