data_mof_unit_29135.cif
_audit_creation_date              2012-12-10T20:38:24-0500
_audit_creation_method            fapswitch 2.2
_symmetry_space_group_name_H-M    P1
_symmetry_Int_Tables_number       1
_space_group_crystal_system       triclinic
_cell_length_a                    9.861621
_cell_length_b                    10.683868
_cell_length_c                    16.633179
_cell_angle_alpha                 90.398859
_cell_angle_beta                  84.486099
_cell_angle_gamma                 90.53735
_cell_volume                      1744.25811347

loop_
_atom_site_label
_atom_site_type_symbol
_atom_type_description
_atom_site_fract_x
_atom_site_fract_y
_atom_site_fract_z
_atom_type_partial_charge
C1    C     C_R   0.500432 0.740225 0.502861 0.889617
C2    C     C_R   0.535068 0.544684 0.263307 -0.039893
C3    C     C_R   0.377971 0.934999 0.507806 0.090295
C4    C     C_R   0.480234 0.500729 0.653472 0.871867
C5    C     C_R   0.499234 0.872268 0.515469 -0.158610
C6    C     C_R   0.613484 0.939194 0.539548 0.198071
C7    C     C_R   0.608893 0.069079 0.541293 -0.297034
C8    C     C_R   0.494540 0.129591 0.517005 -0.144312
C9    C     C_R   0.375519 0.062431 0.508509 0.134382
C10   C     C_3   0.279983 0.067615 0.444092 -0.469614
C11   C     C_3   0.282584 0.925737 0.443246 -0.471907
C12   C     C_R   0.366079 0.601952 0.773580 -0.265626
C13   C     C_R   0.917277 0.491869 0.570729 0.242358
C14   C     C_R   0.939401 0.499167 0.429521 -0.148632
C15   C     C_R   0.083150 0.499174 0.429511 -0.146248
C16   C     C_R   0.498877 0.260217 0.503010 0.897155
C17   C     C_R   0.059880 0.491768 0.570686 0.220090
C18   C     C_3   0.055781 0.581951 0.639551 -0.541540
C19   C     C_3   0.902030 0.582458 0.639580 -0.499318
C20   C     C_R   0.519825 0.505038 0.346750 0.862407
C21   C     C_R   0.466087 0.518971 0.740359 -0.055402
C22   C     C_R   0.560253 0.467216 0.789050 0.199143
C23   C     C_R   0.467624 0.685744 0.161335 0.132440
C24   C     C_R   0.559114 0.507930 0.868936 -0.230775
C25   C     C_R   0.462894 0.595764 0.900551 0.154294
C26   C     C_R   0.363436 0.638861 0.853750 -0.173220
C27   C     C_3   0.600086 0.254171 0.742776 -0.776361
C28   C     C_3   0.842807 0.879274 0.492649 -0.750669
C29   C     C_R   0.448200 0.637243 0.239116 -0.269969
C30   C     C_R   0.646173 0.504997 0.211173 -0.211660
C31   C     C_R   0.664080 0.550530 0.132829 -0.217742
C32   C     C_R   0.572185 0.637105 0.106694 0.192487
C33   C     C_2   0.458744 0.634551 0.984756 -0.195497
C34   C     C_2   0.573547 0.655174 0.019737 -0.211340
H1    H     H_    0.745238 0.513060 0.091263 0.132762
H2    H     H_    0.367156 0.674016 0.281118 0.144404
H3    H     H_    0.104867 0.673333 0.622395 0.212951
H4    H     H_    0.848920 0.540548 0.694907 0.212078
H5    H     H_    0.861076 0.673942 0.622564 0.225728
H6    H     H_    0.716794 0.436885 0.230521 0.142953
H7    H     H_    0.671275 0.654852 0.983369 0.141043
H8    H     H_    0.286849 0.704250 0.878514 0.138880
H9    H     H_    0.294024 0.643088 0.736517 0.159327
H10   H     H_    0.360382 0.630096 0.020120 0.162908
H11   H     H_    0.631307 0.468912 0.906871 0.128342
H12   H     H_    0.698250 0.121564 0.555455 0.178058
H13   H     H_    0.741963 0.370997 0.789522 0.211814
H14   H     H_    0.681989 0.191804 0.715873 0.231221
H15   H     H_    0.521258 0.260214 0.699640 0.233579
H16   H     H_    0.554343 0.212390 0.800222 0.235664
H17   H     H_    0.768276 0.909587 0.611402 0.210295
H18   H     H_    0.880943 0.976296 0.480896 0.219816
H19   H     H_    0.806348 0.839536 0.436600 0.258294
H20   H     H_    0.928466 0.821238 0.509341 0.224485
H21   H     H_    0.280620 0.752503 0.146840 0.169881
H22   H     H_    0.392116 0.860083 0.176649 0.181653
H23   H     H_    0.179178 0.106209 0.467005 0.203735
H24   H     H_    0.327290 0.110143 0.387180 0.197875
H25   H     H_    0.183330 0.882346 0.465649 0.205884
H26   H     H_    0.331349 0.885563 0.385818 0.193650
H27   H     H_    0.894708 0.500318 0.372685 0.152417
H28   H     H_    0.145722 0.500387 0.372528 0.156608
H29   H     H_    0.090028 0.538528 0.694554 0.205506
N1    N     N_R   0.857140 0.500860 0.500530 -0.104131
N2    N     N_R   0.142780 0.500820 0.500530 -0.104856
N3    N     N_2   0.657050 0.376437 0.758020 -0.308740
N4    N     N_2   0.734440 0.878421 0.557921 -0.287427
N5    N     N_3   0.381698 0.783823 0.137915 -0.469442
O1    O     O_R   0.385310 0.683210 0.499990 -0.620767
O2    O     O_R   0.614650 0.683240 0.500000 -0.584061
O3    O     O_R   0.371780 0.500000 0.615800 -0.625634
O4    O     O_R   0.601120 0.500040 0.615800 -0.589248
O5    O     O_R   0.385350 0.316760 0.500000 -0.612285
O6    O     O_R   0.614690 0.316790 0.500010 -0.615563
O7    O     O_R   0.398880 0.499960 0.384200 -0.625297
O8    O     O_R   0.628220 0.500000 0.384200 -0.622225
Zn1   Zn    Zn3+2 0.346870 0.499980 0.499990 0.933327
Zn2   Zn    Zn3+2 0.653130 0.500020 0.500010 0.955305

loop_
_geom_bond_atom_site_label_1
_geom_bond_atom_site_label_2
_ccdc_geom_bond_type
C27   H14   S    
O2    Zn2   S    
O1    Zn1   S    
C4    O4    A    
H21   N5    S    
C7    C8    A    
C29   H2    S    
C2    C29   A    
C16   O6    A    
C24   H11   S    
C23   C29   A    
C10   H24   S    
C18   H3    S    
O8    Zn2   S    
C12   H9    S    
C30   C31   A    
C18   H29   S    
C15   N2    A    
C20   O8    A    
C18   C19   S    
C22   N3    S    
O4    Zn2   S    
C8    C9    A    
C9    C10   S    
H13   N3    S    
C27   H16   S    
C8    C16   S    
C21   C22   A    
C34   H7    S    
C11   H25   S    
C33   C34   D    
N2    Zn1   S    
C13   C19   S    
C2    C20   S    
C16   O5    A    
C7    H12   S    
C10   H23   S    
C24   C25   A    
C28   H20   S    
C25   C26   A    
H22   N5    S    
C14   H27   S    
C12   C21   A    
C1    O1    A    
C20   O7    A    
C12   C26   A    
C32   C34   S    
C23   N5    S    
C3    C9    A    
C19   H4    S    
C31   C32   A    
C14   N1    A    
C28   N4    S    
C17   C18   S    
C30   H6    S    
H17   N4    S    
O7    Zn1   S    
C19   H5    S    
C6    N4    S    
C1    C5    S    
C11   H26   S    
O3    Zn1   S    
C26   H8    S    
C33   H10   S    
N1    Zn2   S    
C3    C5    A    
C28   H19   S    
C6    C7    A    
C17   N2    A    
C1    O2    A    
C13   C17   A    
C2    C30   A    
C23   C32   A    
C27   N3    S    
C4    C21   S    
C28   H18   S    
C5    C6    A    
C13   N1    A    
C31   H1    S    
C15   H28   S    
C22   C24   A    
C3    C11   S    
C10   C11   S    
O6    Zn2   S    
O5    Zn1   S    
C14   C15   A    
C4    O3    A    
C27   H15   S    
C25   C33   S    
