data_mof_unit_66557.cif
_audit_creation_date              2012-12-11T16:11:55-0500
_audit_creation_method            fapswitch 2.2
_symmetry_space_group_name_H-M    P1
_symmetry_Int_Tables_number       1
_space_group_crystal_system       triclinic
_cell_length_a                    6.933879
_cell_length_b                    14.297494
_cell_length_c                    15.801582
_cell_angle_alpha                 89.981799
_cell_angle_beta                  89.954784
_cell_angle_gamma                 90.031236
_cell_volume                      1566.52211074

loop_
_atom_site_label
_atom_site_type_symbol
_atom_type_description
_atom_site_fract_x
_atom_site_fract_y
_atom_site_fract_z
_atom_type_partial_charge
O1    O     O_R   0.638960 0.835150 0.161940 -0.545465
O2    O     O_R   0.361040 0.164850 0.838060 -0.545466
O3    O     O_R   0.309170 0.846340 0.337470 -0.529825
O4    O     O_R   0.690830 0.153660 0.662530 -0.529825
O5    O     O_R   0.138810 0.664830 0.338070 -0.542372
O6    O     O_R   0.861190 0.335170 0.661930 -0.542372
C1    C     C_R   0.478146 0.868636 0.366436 0.747880
C2    C     C_R   0.521854 0.131365 0.633563 0.747881
O7    O     O_R   0.309250 0.846350 0.162570 -0.522853
O8    O     O_R   0.690750 0.153650 0.837430 -0.522854
O9    O     O_R   0.138880 0.664840 0.161920 -0.534001
O10   O     O_R   0.861120 0.335160 0.838080 -0.534002
C3    C     C_R   0.478414 0.869138 0.133995 0.770523
C4    C     C_R   0.521586 0.130863 0.866005 0.770522
O11   O     O_R   0.638880 0.835150 0.338090 -0.545623
O12   O     O_R   0.361120 0.164850 0.661910 -0.545621
O13   O     O_3   0.472380 0.690440 0.250000 -0.382014
O14   O     O_3   0.527620 0.309560 0.750000 -0.382014
V1    V     V_3+5 0.197550 0.761040 0.250010 1.484355
V2    V     V_3+5 0.802450 0.238960 0.749990 1.484351
O15   O     O_R   0.809160 0.653640 0.162540 -0.549127
O16   O     O_R   0.190840 0.346360 0.837460 -0.549128
C5    C     C_R   0.977935 0.631815 0.133186 0.728328
C6    C     C_R   0.022065 0.368185 0.866814 0.728329
O17   O     O_R   0.809090 0.653640 0.337440 -0.549972
O18   O     O_R   0.190910 0.346360 0.662560 -0.549971
C7    C     C_R   0.977841 0.631611 0.366614 0.680841
C8    C     C_R   0.022159 0.368389 0.633386 0.680844
V3    V     V_3+5 0.697540 0.738950 0.250000 1.415011
V4    V     V_3+5 0.302460 0.261050 0.750000 1.415008
O19   O     O_3   0.972580 0.809550 0.250010 -0.360764
O20   O     O_3   0.027420 0.190450 0.749990 -0.360764
C9    C     C_3   0.087850 0.578333 0.522749 0.226342
C10   C     C_3   0.912149 0.421668 0.477252 0.226336
C11   C     C_3   0.913799 0.535086 0.569663 -0.191148
C12   C     C_3   0.086200 0.464914 0.430337 -0.191149
H1    H     H_    0.844591 0.564281 0.627270 0.102687
H2    H     H_    0.155408 0.435720 0.372731 0.102688
C13   C     C_3   0.011652 0.438384 0.562740 -0.044161
C14   C     C_3   0.988347 0.561616 0.437260 -0.044162
C15   C     C_3   0.187009 0.481884 0.516911 -0.160407
C16   C     C_3   0.812990 0.518116 0.483089 -0.160409
H3    H     H_    0.340824 0.467498 0.531363 0.117391
H4    H     H_    0.659175 0.532503 0.468637 0.117392
C17   C     C_3   0.929439 0.419404 0.025756 0.553645
C18   C     C_3   0.070562 0.580595 0.974245 0.553651
C19   C     C_3   0.103511 0.468825 0.067038 -0.279421
C20   C     C_3   0.896490 0.531174 0.932962 -0.279427
H5    H     H_    0.186478 0.443179 0.122439 0.116380
H6    H     H_    0.813520 0.556819 0.877561 0.116384
C21   C     C_3   0.988212 0.561552 0.062746 -0.123000
C22   C     C_3   0.011788 0.438447 0.937254 -0.123002
C23   C     C_3   0.812635 0.511199 0.022521 -0.245935
C24   C     C_3   0.187364 0.488800 0.977479 -0.245930
H7    H     H_    0.659667 0.520052 0.041677 0.133161
H8    H     H_    0.340333 0.479949 0.958323 0.133161
C25   C     C_3   0.679320 0.968533 0.481560 -0.240475
C26   C     C_3   0.320681 0.031467 0.518440 -0.240481
C27   C     C_3   0.614185 0.072428 0.476289 -0.288998
C28   C     C_3   0.385816 0.927572 0.523710 -0.289006
H9    H     H_    0.707181 0.131732 0.456865 0.137361
H10   H     H_    0.292815 0.868269 0.543132 0.137358
H11   H     H_    0.826118 0.941860 0.467177 0.143424
H12   H     H_    0.173883 0.058141 0.532822 0.143425
C29   C     C_3   0.510589 0.061727 0.562661 -0.128496
C30   C     C_3   0.489412 0.938273 0.437338 -0.128492
C31   C     C_3   0.574199 0.959220 0.567216 0.556172
C32   C     C_3   0.425802 0.040781 0.432783 0.556179
C33   C     C_3   0.680342 0.981284 0.028311 -0.254098
C34   C     C_3   0.319659 0.018717 0.971690 -0.254096
C35   C     C_3   0.603243 0.963848 0.938111 0.542125
C36   C     C_3   0.396757 0.036154 0.061890 0.542129
H13   H     H_    0.828037 0.965623 0.051423 0.151653
H14   H     H_    0.171962 0.034378 0.948579 0.151650
C37   C     C_3   0.509978 0.061033 0.936780 -0.123687
C38   C     C_3   0.490021 0.938968 0.063221 -0.123690
C39   C     C_3   0.584956 0.079704 0.027544 -0.279696
C40   C     C_3   0.415044 0.920297 0.972456 -0.279691
H15   H     H_    0.653154 0.145553 0.049303 0.157975
H16   H     H_    0.346850 0.854447 0.950697 0.157974
O21   O     O_3   0.711598 0.929781 0.869067 -0.542013
C41   C     C_3   0.787334 0.841168 0.889538 -0.189819
H17   H     H_    0.670675 0.789708 0.902646 0.120840
H18   H     H_    0.888669 0.845322 0.943919 0.146171
H19   H     H_    0.870717 0.814957 0.834559 0.163080
O22   O     O_3   0.288387 0.070218 0.130931 -0.542008
C42   C     C_3   0.212744 0.158855 0.110477 -0.189817
H20   H     H_    0.111514 0.154755 0.056054 0.146160
H21   H     H_    0.329465 0.210306 0.097443 0.120828
H22   H     H_    0.129265 0.185041 0.165437 0.163103
C43   C     C_3   0.189185 0.667858 0.549324 -0.845630
H23   H     H_    0.244297 0.660366 0.614895 0.204212
H24   H     H_    0.311754 0.682180 0.505972 0.206700
H25   H     H_    0.085870 0.726953 0.546761 0.196681
C44   C     C_3   0.810812 0.332142 0.450677 -0.845616
H26   H     H_    0.755701 0.339632 0.385106 0.204216
H27   H     H_    0.914127 0.273047 0.453243 0.196678
H28   H     H_    0.688244 0.317822 0.494029 0.206700
O23   O     O_3   0.857256 0.330771 0.049146 -0.566112
C45   C     C_3   0.785970 0.334964 0.132626 -0.324222
H29   H     H_    0.658533 0.381912 0.136876 0.143864
H30   H     H_    0.899404 0.357138 0.178165 0.132163
H31   H     H_    0.738349 0.264032 0.151846 0.168014
O24   O     O_3   0.142758 0.669226 0.950856 -0.566107
C46   C     C_3   0.213962 0.665045 0.867365 -0.324285
H32   H     H_    0.100459 0.642932 0.821846 0.132182
H33   H     H_    0.341306 0.618057 0.863074 0.143880
H34   H     H_    0.261674 0.735962 0.848156 0.168023
O25   O     O_3   0.655095 0.920512 0.641268 -0.536139
C47   C     C_3   0.683405 0.823780 0.629475 -0.220771
H35   H     H_    0.771486 0.808789 0.572163 0.110863
H36   H     H_    0.543066 0.786332 0.626142 0.127892
H37   H     H_    0.763096 0.795782 0.684748 0.160539
O26   O     O_3   0.344913 0.079489 0.358730 -0.536137
C48   C     C_3   0.316566 0.176212 0.370522 -0.220917
H38   H     H_    0.456838 0.213657 0.373881 0.127923
H39   H     H_    0.228468 0.191184 0.427800 0.110921
H40   H     H_    0.236928 0.204224 0.315256 0.160535

loop_
_geom_bond_atom_site_label_1
_geom_bond_atom_site_label_2
_ccdc_geom_bond_type
C6    C22   S    
C30   C32   S    
C42   H20   S    
C34   C40   S    
O13   V3    S    
C33   C39   S    
C44   H26   S    
C10   C16   S    
C25   C30   S    
O4    C2    A    
V1    O19   S    
O26   C48   S    
C44   H28   S    
C13   C15   S    
C46   H33   S    
O9    V1    S    
C11   H1    S    
C38   C40   S    
O3    C1    A    
C9    C43   S    
C40   H16   S    
C25   C27   S    
O12   V4    S    
C48   H38   S    
C33   C38   S    
C28   H10   S    
C17   C19   S    
C33   C35   S    
C11   C16   S    
O7    C3    A    
C47   H35   S    
O13   V1    S    
O5    C7    A    
O7    V1    S    
O6    C8    A    
C28   C31   S    
O8    V2    S    
C29   C31   S    
C34   H14   S    
O3    V1    S    
O14   V4    S    
V4    O20   S    
C10   C12   S    
C36   C38   S    
C20   H6    S    
C17   C23   S    
C2    C29   S    
C2    O12   A    
C26   H12   S    
C15   H3    S    
O10   V2    S    
C12   C15   S    
C16   H4    S    
C25   C31   S    
O1    V3    S    
O24   C46   S    
C22   C24   S    
O11   V3    S    
C18   C20   S    
C23   H7    S    
O17   V3    S    
C20   C23   S    
C46   H34   S    
C24   H8    S    
C27   H9    S    
C9    C14   S    
C10   C13   S    
C12   C14   S    
C10   C44   S    
C19   H5    S    
C17   O23   S    
C43   H23   S    
O22   C42   S    
C19   C21   S    
C1    O11   A    
C8    C13   S    
C48   H39   S    
O15   V3    S    
C18   C21   S    
C45   H31   S    
O21   C41   S    
C21   C23   S    
C11   C13   S    
C36   C39   S    
C27   C32   S    
C43   H24   S    
C26   C29   S    
C5    C21   S    
O23   C45   S    
C3    C38   S    
C7    C14   S    
C48   H40   S    
C18   C24   S    
C45   H30   S    
C39   H15   S    
C33   H13   S    
C37   C39   S    
C47   H37   S    
C19   C24   S    
C26   C32   S    
O18   V4    S    
C41   H18   S    
O15   C5    A    
O8    C4    A    
O16   C6    A    
O1    C3    A    
V2    O20   S    
O16   V4    S    
C25   H11   S    
C14   C16   S    
C36   O22   S    
C44   H27   S    
O5    V1    S    
O17   C7    A    
C41   H19   S    
O6    V2    S    
C46   H32   S    
O10   C6    A    
O18   C8    A    
C17   C22   S    
O2    V4    S    
C9    C15   S    
C4    C37   S    
C12   H2    S    
V3    O19   S    
O25   C47   S    
C27   C29   S    
C43   H25   S    
C35   C37   S    
C31   O25   S    
C18   O24   S    
O9    C5    A    
C45   H29   S    
C9    C11   S    
O14   V2    S    
O2    C4    A    
C47   H36   S    
C28   C30   S    
O4    V2    S    
C20   C22   S    
C41   H17   S    
C42   H22   S    
C34   C37   S    
C42   H21   S    
C34   C36   S    
C35   O21   S    
C26   C28   S    
C35   C40   S    
C32   O26   S    
C1    C30   S    
