data_mof_unit_43834.cif
_audit_creation_date              2012-10-26T21:05:44-0400
_audit_creation_method            fapswitch 2.2
_symmetry_space_group_name_H-M    P1
_symmetry_Int_Tables_number       1
_space_group_crystal_system       triclinic
_cell_length_a                    13.005915
_cell_length_b                    9.083943
_cell_length_c                    7.908364
_cell_angle_alpha                 89.999567
_cell_angle_beta                  94.945437
_cell_angle_gamma                 90.025656
_cell_volume                      930.855201131

loop_
_atom_site_label
_atom_site_type_symbol
_atom_type_description
_atom_site_fract_x
_atom_site_fract_y
_atom_site_fract_z
_atom_type_partial_charge
C1    C     C_R   0.500038 0.220530 0.500006 0.550341
C2    C     C_R   0.866566 0.564327 0.700885 0.069145
C3    C     C_R   0.132908 0.477836 0.598308 0.238565
C4    C     C_R   0.867092 0.522165 0.401691 0.238565
C5    C     C_R   0.027259 0.508607 0.580556 -0.017332
C6    C     C_R   0.972741 0.491393 0.419444 -0.017332
C7    C     C_1   0.500009 0.065504 0.500002 -0.000082
C8    C     C_1   0.499990 0.934496 0.499998 -0.000082
C9    C     C_R   0.499962 0.779470 0.499994 0.550341
C10   C     C_R   0.300641 0.488428 0.470026 0.583212
C11   C     C_R   0.699359 0.511572 0.529974 0.583212
C12   C     C_R   0.812494 0.529323 0.545456 0.015771
C13   C     C_R   0.187505 0.470677 0.454544 0.015771
C14   C     C_R   0.025094 0.439715 0.282650 0.312646
C15   C     C_R   0.974906 0.560286 0.717350 0.312646
C16   C     C_R   0.133434 0.435674 0.299115 0.069146
Cl1   Cl    Cl    0.817277 0.623929 0.225219 -0.534077
Cl2   Cl    Cl    0.182723 0.376072 0.774781 -0.534077
Cl3   Cl    Cl    0.956846 0.355805 0.105246 -0.504170
Cl4   Cl    Cl    0.043154 0.644196 0.894754 -0.504169
Cu1   Cu    Cu3+1 0.500010 0.500000 0.669080 1.135023
Cu2   Cu    Cu3+1 0.499990 0.500000 0.330920 1.135023
H1    H     H_    0.841147 0.708662 0.889561 0.320466
H2    H     H_    0.815170 0.525157 0.925014 0.341102
H3    H     H_    0.158852 0.291338 0.110438 0.320467
H4    H     H_    0.184831 0.474843 0.074986 0.341102
N1    N     N_1   0.499980 0.500000 0.076820 -0.045315
N2    N     N_1   0.500020 0.500000 0.923180 -0.045314
N3    N     N_3   0.810180 0.610829 0.837751 -0.532163
N4    N     N_3   0.189819 0.389171 0.162248 -0.532163
O1    O     O_R   0.500000 0.288400 0.642760 -0.492688
O2    O     O_R   0.500000 0.711600 0.357240 -0.492688
O3    O     O_R   0.500000 0.288400 0.357240 -0.497447
O4    O     O_R   0.500000 0.711600 0.642760 -0.497447
O5    O     O_R   0.349000 0.500000 0.619590 -0.458512
O6    O     O_R   0.651000 0.500000 0.380410 -0.458512
O7    O     O_R   0.348990 0.500000 0.334020 -0.484488
O8    O     O_R   0.651010 0.500000 0.665980 -0.484487

loop_
_geom_bond_atom_site_label_1
_geom_bond_atom_site_label_2
_ccdc_geom_bond_type
C11   O8    A    
C11   C12   S    
C10   O5    A    
Cu1   O5    S    
C4    C12   A    
Cu2   O6    S    
C3    C13   A    
C2    C12   A    
C1    O3    A    
C7    C8    T    
Cu1   Cu2   S    
C2    C15   A    
Cu1   O1    S    
C15   Cl4   S    
Cu2   O2    S    
C10   O7    A    
C5    C6    A    
C4    Cl1   S    
H1    N3    S    
C11   O6    A    
Cu1   N2    S    
H4    N4    S    
Cu2   N1    S    
C2    N3    S    
C9    O4    A    
C14   C16   A    
C5    C15   A    
C6    C14   A    
C16   N4    S    
C1    O1    A    
C3    Cl2   S    
C4    C6    A    
C13   C16   A    
N1    N2    T    
Cu2   O3    S    
H2    N3    S    
H3    N4    S    
Cu1   O4    S    
C9    O2    A    
C1    C7    S    
Cu2   O7    S    
C14   Cl3   S    
Cu1   O8    S    
C8    C9    S    
C3    C5    A    
C10   C13   S    
