data_mof_unit_28876.cif
_audit_creation_date              2012-12-11T15:16:40-0500
_audit_creation_method            fapswitch 2.2
_symmetry_space_group_name_H-M    P1
_symmetry_Int_Tables_number       1
_space_group_crystal_system       triclinic
_cell_length_a                    25.123247
_cell_length_b                    7.235427
_cell_length_c                    21.930568
_cell_angle_alpha                 90.000312
_cell_angle_beta                  110.258364
_cell_angle_gamma                 89.967672
_cell_volume                      3739.88079975

loop_
_atom_site_label
_atom_site_type_symbol
_atom_type_description
_atom_site_fract_x
_atom_site_fract_y
_atom_site_fract_z
_atom_type_partial_charge
O1    O     O_R   0.554350 0.505270 0.581390 -0.531797
O2    O     O_R   0.445650 0.005270 0.418610 -0.532018
O3    O     O_R   0.553380 0.177580 0.454800 -0.540420
O4    O     O_R   0.446620 0.677580 0.545200 -0.540333
C1    C     C_R   0.565697 0.344299 0.438177 0.696142
C2    C     C_R   0.434107 0.844451 0.561609 0.696325
O5    O     O_R   0.560970 0.175640 0.583140 -0.533174
O6    O     O_R   0.439030 0.675640 0.416860 -0.532998
O7    O     O_R   0.453290 0.004120 0.547860 -0.539905
O8    O     O_R   0.546710 0.504120 0.452140 -0.539470
C3    C     C_R   0.576076 0.343841 0.607556 0.699145
C4    C     C_R   0.423938 0.843938 0.392444 0.699226
O9    O     O_3   0.464660 0.338800 0.488280 -0.374461
O10   O     O_3   0.535340 0.838800 0.511720 -0.374583
V1    V     V_3+5 0.506560 0.064420 0.502170 1.416139
V2    V     V_3+5 0.493440 0.564420 0.497830 1.416436
C5    C     C_R   0.148375 0.980548 0.288835 -0.157452
C6    C     C_R   0.851310 0.486733 0.711355 -0.158205
H1    H     H_    0.063030 0.008184 0.222477 0.109786
H2    H     H_    0.936642 0.514316 0.777707 0.110028
H3    H     H_    0.233903 0.977248 0.401070 0.129778
H4    H     H_    0.765630 0.486698 0.599247 0.128591
H5    H     H_    0.136020 0.009216 0.330595 0.121816
H6    H     H_    0.863514 0.518338 0.669701 0.120989
C7    C     C_R   0.120834 0.942266 0.172382 -0.037051
C8    C     C_R   0.879139 0.442892 0.827610 -0.037434
C9    C     C_R   0.396917 0.814419 0.273889 -0.259008
C10   C     C_R   0.603320 0.309999 0.725996 -0.258542
C11   C     C_R   0.357503 0.811691 0.210408 0.422078
C12   C     C_R   0.642822 0.305446 0.789413 0.422087
C13   C     C_R   0.300155 0.843373 0.199792 -0.155739
C14   C     C_R   0.700077 0.338887 0.800072 -0.155490
C15   C     C_R   0.280448 0.878822 0.251769 -0.002547
C16   C     C_R   0.719599 0.377980 0.748207 -0.002711
C17   C     C_R   0.321350 0.883027 0.316333 0.063421
C18   C     C_R   0.678591 0.384288 0.683722 0.063544
C19   C     C_R   0.221516 0.910050 0.241753 0.095741
C20   C     C_R   0.778456 0.410723 0.758257 0.095731
C21   C     C_R   0.205398 0.946592 0.296655 0.138728
C22   C     C_R   0.794382 0.451025 0.703482 0.139142
C23   C     C_R   0.246172 0.949846 0.359159 -0.195252
C24   C     C_R   0.753506 0.456388 0.641060 -0.196103
C25   C     C_R   0.303101 0.918206 0.368947 -0.168811
C26   C     C_R   0.696659 0.423162 0.631228 -0.168631
C27   C     C_R   0.177795 0.907173 0.179419 -0.209680
C28   C     C_R   0.822278 0.405873 0.820507 -0.209700
C29   C     C_R   0.106646 0.979587 0.227305 -0.163932
C30   C     C_R   0.893122 0.483996 0.772820 -0.163538
C31   C     C_R   0.379725 0.850160 0.326897 -0.114391
C32   C     C_R   0.620312 0.349535 0.673103 -0.114410
H7    H     H_    0.186457 0.880461 0.135430 0.098570
H8    H     H_    0.813753 0.376457 0.864403 0.098945
H9    H     H_    0.441371 0.788254 0.282137 0.107148
H10   H     H_    0.558955 0.282164 0.717698 0.106486
H11   H     H_    0.272067 0.839127 0.149950 0.137405
H12   H     H_    0.728245 0.332993 0.849857 0.137616
H13   H     H_    0.332850 0.921949 0.418355 0.107711
H14   H     H_    0.666830 0.428629 0.581881 0.107614
C33   C     C_R   0.120160 0.765001 0.881221 -0.157208
C34   C     C_R   0.878596 0.265171 0.117265 -0.157291
H15   H     H_    0.104495 0.637253 0.894434 0.124378
H16   H     H_    0.893260 0.137316 0.102806 0.124651
C35   C     C_R   0.155895 0.754651 0.844531 -0.130079
C36   C     C_R   0.842784 0.254849 0.153864 -0.129560
H17   H     H_    0.166528 0.619523 0.830842 0.136787
H18   H     H_    0.831130 0.119621 0.166274 0.136825
C37   C     C_R   0.177369 0.915885 0.825637 0.027118
C38   C     C_R   0.822538 0.416185 0.174306 0.026955
C39   C     C_R   0.162280 0.088025 0.844826 -0.126142
C40   C     C_R   0.838968 0.588445 0.156777 -0.126295
H19   H     H_    0.177954 0.215240 0.831251 0.141846
H20   H     H_    0.824232 0.715737 0.171529 0.141701
C41   C     C_R   0.126460 0.098496 0.881593 -0.156543
C42   C     C_R   0.874804 0.598884 0.120018 -0.156072
H21   H     H_    0.115650 0.233598 0.895108 0.122743
H22   H     H_    0.886633 0.734045 0.107763 0.122227
C43   C     C_R   0.104733 0.937030 0.900218 -0.047133
C44   C     C_R   0.895278 0.437270 0.099824 -0.047180
N1    N     N_R   0.236395 0.058229 0.767814 -0.268803
N2    N     N_R   0.765704 0.558409 0.234914 -0.269012
N3    N     N_R   0.269765 0.046358 0.732044 -0.274299
N4    N     N_R   0.731777 0.546222 0.270023 -0.273357
C45   C     C_R   0.283149 0.879506 0.712571 0.541113
C46   C     C_R   0.715136 0.378966 0.285435 0.540883
N5    N     N_R   0.261761 0.725278 0.730950 -0.195604
N6    N     N_R   0.734362 0.224751 0.264318 -0.196282
N7    N     N_R   0.228440 0.736981 0.766699 -0.280742
N8    N     N_R   0.768266 0.236774 0.229282 -0.280178
C47   C     C_R   0.214927 0.903670 0.785937 0.498447
C48   C     C_R   0.784673 0.403806 0.213650 0.498287
C49   C     C_R   0.327812 0.699974 0.642363 0.388757
C50   C     C_R   0.649877 0.198183 0.330570 0.390212
C51   C     C_R   0.364824 0.694745 0.606334 -0.252758
C52   C     C_R   0.614379 0.192931 0.368412 -0.245980
H23   H     H_    0.369968 0.566380 0.583564 0.120833
H24   H     H_    0.593783 0.064309 0.372418 0.117427
C53   C     C_R   0.394647 0.852813 0.599120 -0.074783
C54   C     C_R   0.604369 0.351843 0.399736 -0.072874
C55   C     C_R   0.386725 0.018075 0.628502 -0.168701
C56   C     C_R   0.630951 0.517533 0.393143 -0.176314
H25   H     H_    0.409011 0.142754 0.624227 0.133815
H26   H     H_    0.624444 0.642651 0.416763 0.134912
C57   C     C_R   0.350650 0.024658 0.664819 -0.213398
C58   C     C_R   0.666838 0.524001 0.356553 -0.215273
H27   H     H_    0.346599 0.154256 0.687480 0.171742
H28   H     H_    0.687104 0.653938 0.353560 0.169369
C59   C     C_R   0.320866 0.866842 0.672680 -0.010015
C60   C     C_R   0.676890 0.365797 0.324679 -0.009836
O11   O     O_R   0.953220 0.285790 0.047790 -0.538031
O12   O     O_R   0.046780 0.785790 0.952210 -0.538050
O13   O     O_R   0.939020 0.617570 0.916840 -0.533445
O14   O     O_R   0.060980 0.117570 0.083160 -0.533450
C61   C     C_R   0.923959 0.448790 0.892460 0.683815
C62   C     C_R   0.076034 0.948692 0.107534 0.683683
O15   O     O_R   0.946600 0.615450 0.045180 -0.540947
O16   O     O_R   0.053400 0.115450 0.954820 -0.541016
O17   O     O_R   0.054370 0.786770 0.081410 -0.531536
O18   O     O_R   0.945630 0.286770 0.918590 -0.531528
C63   C     C_R   0.934281 0.447014 0.061677 0.677926
C64   C     C_R   0.065728 0.946945 0.938346 0.677849
O19   O     O_3   0.035300 0.454160 0.011680 -0.373216
O20   O     O_3   0.964700 0.954160 0.988320 -0.373217
V3    V     V_3+5 0.993450 0.728620 0.997830 1.417301
V4    V     V_3+5 0.006550 0.228620 0.002170 1.417110
O21   O     O_3   0.297883 0.544321 0.647654 -0.623789
H29   H     H_    0.306609 0.441964 0.622547 0.285031
O22   O     O_3   0.657633 0.042095 0.298332 -0.621304
H30   H     H_    0.634436 0.939701 0.305864 0.286486
O23   O     O_3   0.373659 0.777471 0.157399 -0.630562
H31   H     H_    0.415293 0.757803 0.172650 0.296997
O24   O     O_3   0.626853 0.267525 0.842306 -0.630364
H32   H     H_    0.585266 0.246949 0.827033 0.296355

loop_
_geom_bond_atom_site_label_1
_geom_bond_atom_site_label_2
_ccdc_geom_bond_type
C55   C57   A    
C35   H17   S    
C51   C53   A    
C9    C11   A    
C23   C25   A    
O1    C3    A    
C37   C47   S    
C43   C64   S    
O2    C4    A    
C33   C43   A    
C2    O7    A    
C58   H28   S    
C4    C31   S    
O3    V1    S    
C21   C23   A    
O5    C3    A    
C34   C44   A    
C5    H5    S    
C42   H22   S    
C6    H6    S    
C36   C38   A    
C20   C22   A    
C46   N6    A    
O14   V4    S    
H1    C29   S    
C27   H7    S    
C12   O24   S    
C28   H8    S    
C56   C58   A    
C34   H16   S    
C5    C21   A    
C39   H19   S    
C6    C22   A    
O19   V4    S    
N3    C45   A    
C10   C32   A    
C50   C60   A    
C11   O23   S    
O13   C61   A    
C26   H14   S    
C40   C42   A    
C38   C48   S    
C13   C15   A    
C39   C41   A    
C17   C25   A    
C7    C29   A    
C16   C18   A    
C8    C30   A    
O5    V1    S    
C51   H23   S    
C11   C13   A    
C41   H21   S    
C24   C26   A    
O14   C62   A    
C53   C55   A    
N5    N7    A    
C35   C37   A    
C33   H15   S    
O15   V3    S    
O13   V3    S    
C2    C53   S    
C49   C59   A    
N2    N4    A    
O12   C64   A    
N1    N3    A    
C10   H10   S    
C15   C19   A    
O16   C64   A    
C37   C39   A    
C36   H18   S    
O4    V2    S    
C17   C31   A    
O12   V3    S    
C49   C51   A    
O6    C4    A    
C56   H26   S    
C25   H13   S    
C57   H27   S    
O1    V2    S    
O18   V4    S    
C52   H24   S    
O2    V1    S    
H2    C30   S    
H3    C23   S    
O4    C2    A    
C45   N5    A    
N8    C48   A    
N4    C46   A    
N7    C47   A    
O21   H29   S    
C18   C26   A    
C19   C27   A    
O22   H30   S    
C50   O22   S    
C7    C27   A    
C58   C60   A    
C18   C32   A    
O11   C63   A    
O23   H31   S    
C41   C43   A    
O16   V4    S    
C55   H25   S    
C16   C20   A    
C33   C35   A    
C5    C29   A    
O3    C1    A    
C6    C30   A    
C57   C59   A    
C9    H9    S    
O11   V4    S    
O15   C63   A    
C49   O21   S    
C34   C36   A    
C10   C12   A    
C44   C63   S    
O17   V3    S    
C8    C61   S    
C1    O8    A    
C19   C21   A    
C3    C32   S    
O8    V2    S    
C7    C62   S    
C12   C14   A    
C50   C52   A    
H4    C24   S    
C22   C24   A    
C15   C17   A    
C45   C59   S    
N6    N8    A    
N2    C48   A    
C54   C56   A    
C20   C28   A    
C62   O17   A    
C8    C28   A    
C61   O18   A    
C9    C31   A    
C46   C60   S    
C1    C54   S    
O6    V2    S    
C42   C44   A    
O9    V2    S    
C38   C40   A    
C52   C54   A    
O10   V1    S    
N1    C47   A    
C40   H20   S    
C13   H11   S    
O20   V3    S    
C14   H12   S    
O24   H32   S    
O7    V1    S    
C14   C16   A    
