data_mof_unit_65812.cif
_audit_creation_date              2012-10-26T19:31:53-0400
_audit_creation_method            fapswitch 2.2
_symmetry_space_group_name_H-M    P1
_symmetry_Int_Tables_number       1
_space_group_crystal_system       triclinic
_cell_length_a                    19.378838
_cell_length_b                    18.157479
_cell_length_c                    23.268517
_cell_angle_alpha                 89.991107
_cell_angle_beta                  91.452593
_cell_angle_gamma                 90.00021
_cell_volume                      8184.88149325

loop_
_atom_site_label
_atom_site_type_symbol
_atom_type_description
_atom_site_fract_x
_atom_site_fract_y
_atom_site_fract_z
_atom_type_partial_charge
C1    C     C_R   0.367332 0.500001 0.499860 0.603881
C2    C     C_R   0.565257 0.493379 0.701823 0.303161
C3    C     C_R   0.432210 0.493410 0.238132 0.020828
C4    C     C_R   0.566931 0.489476 0.761985 0.020822
C5    C     C_R   0.494185 0.479726 0.207910 0.043628
C6    C     C_R   0.504224 0.479805 0.792087 0.043451
C7    C     C_R   0.254933 0.566664 0.499614 -0.061427
C8    C     C_R   0.745078 0.433354 0.500489 -0.066658
C9    C     C_R   0.745057 0.566674 0.500331 -0.062884
C10   C     C_R   0.254931 0.433342 0.499554 -0.068314
C11   C     C_R   0.183033 0.566901 0.499525 0.370498
C12   C     C_R   0.632668 0.500001 0.500138 0.604364
C13   C     C_R   0.816978 0.433128 0.500578 0.370780
C14   C     C_R   0.816956 0.566920 0.500384 0.370268
C15   C     C_R   0.183033 0.433107 0.499501 0.370524
C16   C     C_R   0.146169 0.500003 0.499540 0.038572
C17   C     C_R   0.853833 0.500030 0.500456 0.038567
C18   C     C_R   0.291460 0.500003 0.499661 -0.073918
C19   C     C_R   0.708540 0.500009 0.500333 -0.073496
C20   C     C_R   0.499666 0.499952 0.390844 0.657427
C21   C     C_R   0.500318 0.499956 0.609160 0.656693
C22   C     C_R   0.929993 0.500045 0.500266 0.375460
C23   C     C_R   0.556232 0.502108 0.237530 0.018511
C24   C     C_R   0.070013 0.499995 0.499736 0.375610
C25   C     C_R   0.543762 0.277835 0.536365 0.094569
C26   C     C_R   0.456264 0.722158 0.463611 0.096337
C27   C     C_R   0.456239 0.277872 0.463615 0.095332
C28   C     C_R   0.543734 0.722122 0.536408 0.097323
C29   C     C_R   0.544440 0.199998 0.536928 0.314155
C30   C     C_R   0.455582 0.799994 0.463049 0.312970
C31   C     C_R   0.455530 0.200029 0.463055 0.314337
C32   C     C_R   0.544442 0.799964 0.536968 0.313200
C33   C     C_R   0.499977 0.159348 0.499996 0.027695
C34   C     C_R   0.443646 0.506208 0.762401 0.018402
C35   C     C_R   0.500018 0.840645 0.500005 0.028001
C36   C     C_R   0.500010 0.924189 0.500004 0.372908
C37   C     C_R   0.499984 0.075803 0.499998 0.373116
C38   C     C_R   0.560055 0.425443 0.880628 0.421016
C39   C     C_R   0.435216 0.429340 0.119273 0.421082
C40   C     C_R   0.440798 0.431660 0.876034 0.423594
C41   C     C_R   0.554594 0.427479 0.123877 0.423711
C42   C     C_R   0.436083 0.431047 0.936687 0.010324
C43   C     C_R   0.559274 0.426680 0.063223 0.010251
C44   C     C_R   0.498446 0.431841 0.969625 -0.040140
C45   C     C_R   0.558185 0.507165 0.297656 0.301557
C46   C     C_R   0.497089 0.431799 0.030291 -0.040147
C47   C     C_R   0.561969 0.426092 0.941428 0.011131
C48   C     C_R   0.433349 0.430293 0.058478 0.011069
C49   C     C_R   0.372034 0.429596 0.964986 -0.037592
C50   C     C_R   0.623108 0.420953 0.034916 -0.037670
C51   C     C_R   0.370709 0.428997 0.025586 -0.037912
C52   C     C_R   0.624403 0.420445 0.974314 -0.037926
C53   C     C_1   0.306890 0.433164 0.932752 0.296606
C54   C     C_1   0.688329 0.419974 0.067156 0.296604
C55   C     C_1   0.304343 0.432006 0.053239 0.293199
C56   C     C_R   0.442119 0.511328 0.702275 0.301535
C57   C     C_1   0.690822 0.419007 0.946671 0.293283
C58   C     C_1   0.614357 0.532301 0.207636 0.361453
C59   C     C_1   0.387324 0.540207 0.792231 0.361808
C60   C     C_1   0.370040 0.520351 0.209615 0.369254
C61   C     C_1   0.630428 0.512390 0.790652 0.369593
C62   C     C_1   0.590519 0.315870 0.575198 0.365380
C63   C     C_1   0.409558 0.684105 0.424742 0.361878
C64   C     C_1   0.409600 0.315973 0.424701 0.365356
C65   C     C_1   0.590332 0.684007 0.575349 0.362243
C66   C     C_R   0.497579 0.499261 0.328126 0.015579
C67   C     C_R   0.502208 0.499303 0.671889 0.015508
C68   C     C_R   0.434247 0.497246 0.298293 0.302971
Cu1   Cu    Cu3+1 0.500000 0.573360 0.500000 1.058997
Cu2   Cu    Cu3+1 0.500000 0.426640 0.500000 1.044437
F1    F     F_    0.588791 0.164685 0.573785 -0.558249
F2    F     F_    0.850094 0.367277 0.499504 -0.539435
F3    F     F_    0.850127 0.632777 0.501502 -0.539932
F4    F     F_    0.149846 0.367260 0.498273 -0.539356
F5    F     F_    0.411259 0.835305 0.426167 -0.560935
F6    F     F_    0.411190 0.164742 0.426182 -0.558179
F7    F     F_    0.588752 0.835251 0.573866 -0.560814
F8    F     F_    0.618633 0.521960 0.326337 -0.594214
F9    F     F_    0.382691 0.530007 0.673514 -0.593579
F10   F     F_    0.374646 0.503061 0.327603 -0.587582
F11   F     F_    0.625146 0.495860 0.672630 -0.587680
F12   F     F_    0.149923 0.632751 0.500710 -0.539806
H1    H     H_    0.281944 0.618892 0.499908 0.189851
H2    H     H_    0.718076 0.381124 0.500282 0.188037
H3    H     H_    0.718052 0.618899 0.500406 0.189389
H4    H     H_    0.281926 0.381113 0.499391 0.187938
N1    N     N_R   0.502075 0.448958 0.850933 -0.382827
N2    N     N_R   0.543202 0.963175 0.535635 -0.093520
N3    N     N_R   0.543189 0.036819 0.535631 -0.093067
N4    N     N_R   0.456805 0.963174 0.464370 -0.093470
N5    N     N_1   0.254877 0.436085 0.907273 -0.155369
N6    N     N_1   0.740408 0.419267 0.092641 -0.155198
N7    N     N_1   0.251379 0.434466 0.075069 -0.155464
N8    N     N_1   0.743832 0.417918 0.924850 -0.155238
N9    N     N_1   0.660841 0.556767 0.183862 -0.190497
N10   N     N_1   0.342299 0.567714 0.815954 -0.190179
N11   N     N_1   0.320272 0.542384 0.187049 -0.175663
N12   N     N_R   0.494467 0.448841 0.149017 -0.382785
N13   N     N_1   0.681282 0.531187 0.813343 -0.176014
N14   N     N_1   0.628355 0.345810 0.606599 -0.159394
N15   N     N_1   0.371778 0.654136 0.393311 -0.171979
N16   N     N_1   0.371897 0.346004 0.393233 -0.165664
N17   N     N_1   0.627991 0.653949 0.606839 -0.178826
N18   N     N_R   0.035013 0.441180 0.520087 -0.096923
N19   N     N_R   0.964994 0.558860 0.479916 -0.097094
N20   N     N_R   0.966403 0.441201 0.520340 -0.095601
N21   N     N_R   0.033605 0.558841 0.479663 -0.096208
N22   N     N_R   0.500000 0.316380 0.500000 -0.344274
N23   N     N_R   0.500000 0.683620 0.500000 -0.342736
N24   N     N_R   0.456792 0.036818 0.464367 -0.093144
O1    O     O_R   0.400150 0.561970 0.500010 -0.502684
O2    O     O_2   0.381776 0.400570 0.147554 -0.434585
O3    O     O_2   0.387032 0.408438 0.842934 -0.437869
O4    O     O_2   0.606876 0.400637 0.156933 -0.437546
O5    O     O_R   0.599850 0.438030 0.499990 -0.508167
O6    O     O_R   0.599850 0.561970 0.499990 -0.504317
O7    O     O_R   0.400150 0.438030 0.500010 -0.509513
O8    O     O_R   0.499980 0.561970 0.417880 -0.483929
O9    O     O_R   0.500020 0.438030 0.582120 -0.496055
O10   O     O_R   0.500020 0.561970 0.582120 -0.482150
O11   O     O_R   0.499980 0.438030 0.417880 -0.495270
O12   O     O_2   0.611720 0.393275 0.852260 -0.434957

loop_
_geom_bond_atom_site_label_1
_geom_bond_atom_site_label_2
_ccdc_geom_bond_type
C68   F10   S    
C23   C58   S    
C7    H1    S    
Cu1   O6    S    
C34   C56   A    
C8    C13   A    
C23   C45   A    
C66   C68   A    
C3    C68   A    
C41   O4    S    
C63   N15   T    
N18   N20   A    
C58   N9    T    
C36   N2    A    
C64   N16   T    
N19   N21   A    
C1    C18   S    
C50   C54   S    
C56   F9    S    
C30   C35   A    
C40   N1    A    
C20   C66   S    
C21   O10   A    
C10   C15   A    
Cu2   O7    S    
C15   C16   A    
C29   C33   A    
Cu1   O8    S    
C9    H3    S    
C32   F7    S    
Cu1   N23   S    
C9    C19   A    
C48   C51   A    
C35   C36   S    
C49   C51   A    
C53   N5    T    
C50   C52   A    
C31   C33   A    
C45   F8    S    
C44   C47   A    
C55   N7    T    
C12   O5    A    
C3    C60   S    
C40   C42   A    
C16   C24   S    
C21   C67   S    
C41   C43   A    
C14   C17   A    
C61   N13   T    
C42   C44   A    
C20   O8    A    
C44   C46   A    
C7    C11   A    
C11   F12   S    
C25   C29   A    
C46   C48   A    
C8    C19   A    
C27   C31   A    
C14   F3    S    
C28   C32   A    
C4    C6    A    
C2    C67   A    
C52   C57   S    
C9    C14   A    
C39   N12   A    
C22   N20   A    
C4    C61   S    
C33   C37   S    
C6    N1    S    
C6    C34   A    
C24   N18   A    
C2    C4    A    
C26   C63   S    
C32   C35   A    
C54   N6    T    
C11   C16   A    
C40   O3    S    
C5    C23   A    
Cu2   O9    S    
C7    C18   A    
C38   C47   A    
C24   N21   A    
C1    O7    A    
N2    N3    A    
C26   N23   A    
C20   O11   A    
C38   O12   S    
C62   N14   T    
C39   O2    S    
C60   N11   T    
C57   N8    T    
C34   C59   S    
C28   N23   A    
C37   N24   A    
C59   N10   T    
N4    N24   A    
C22   N19   A    
C36   N4    A    
C10   H4    S    
C8    H2    S    
C3    C5    A    
C43   C50   A    
C26   C30   A    
C47   C52   A    
C13   F2    S    
C37   N3    A    
Cu2   O5    S    
C56   C67   A    
Cu1   O10   S    
C17   C22   S    
C13   C17   A    
C38   N1    A    
C28   C65   S    
C21   O9    A    
Cu2   N22   S    
C1    O1    A    
C30   F5    S    
Cu1   O1    S    
Cu2   O11   S    
C31   F6    S    
C27   N22   A    
C10   C18   A    
C49   C53   S    
C12   C19   S    
C51   C55   S    
C25   C62   S    
Cu1   Cu2   S    
C43   C46   A    
C27   C64   S    
C42   C49   A    
C15   F4    S    
C5    N12   S    
C45   C66   A    
C65   N17   T    
C41   N12   A    
C2    F11   S    
C29   F1    S    
C25   N22   A    
C39   C48   A    
C12   O6    A    
