data_mof_unit_58743.cif
_audit_creation_date              2013-03-05T16:48:18-0500
_audit_creation_method            fapswitch 2.2
_symmetry_space_group_name_H-M    P1
_symmetry_Int_Tables_number       1
_space_group_crystal_system       triclinic
_cell_length_a                    23.445869
_cell_length_b                    8.926812
_cell_length_c                    8.098018
_cell_angle_alpha                 89.993618
_cell_angle_beta                  90.000287
_cell_angle_gamma                 90.000252
_cell_volume                      1694.88976745

loop_
_atom_site_label
_atom_site_type_symbol
_atom_site_description
_atom_site_fract_x
_atom_site_fract_y
_atom_site_fract_z
_atom_type_partial_charge
O1    O     O_R   0.500000 0.285350 0.636850 -0.614284
O2    O     O_R   0.500000 0.714650 0.363150 -0.614284
O3    O     O_R   0.500000 0.714650 0.636850 -0.614712
O4    O     O_R   0.500000 0.285350 0.363150 -0.614711
H1    H     H_    0.948190 0.127587 0.579614 0.192685
H2    H     H_    0.051806 0.872446 0.420391 0.192681
H3    H     H_    0.948188 0.872444 0.420390 0.192686
H4    H     H_    0.051808 0.127588 0.579604 0.192681
C1    C     C_R   0.500000 0.217972 0.500006 0.941907
C2    C     C_R   0.500000 0.782027 0.499994 0.941906
O5    O     O_R   0.416160 0.500000 0.636910 -0.622721
O6    O     O_R   0.583840 0.500000 0.363090 -0.622715
O7    O     O_R   0.583840 0.500000 0.636910 -0.622716
O8    O     O_R   0.416160 0.500000 0.363090 -0.622722
C3    C     C_R   0.208129 0.500019 0.499996 0.013575
C4    C     C_R   0.791869 0.500012 0.500004 0.013670
C5    C     C_R   0.388969 0.500000 0.499999 0.955557
C6    C     C_R   0.611031 0.500000 0.500000 0.955550
Zn1   Zn    Zn3+2 0.500000 0.500000 0.682780 1.008896
Zn2   Zn    Zn3+2 0.500000 0.500000 0.317220 1.008896
C7    C     C_R   0.296832 0.503828 0.650121 -0.284443
C8    C     C_R   0.703168 0.495795 0.349887 -0.284415
C9    C     C_R   0.296832 0.496190 0.349874 -0.284442
C10   C     C_R   0.703168 0.504216 0.650117 -0.284417
H5    H     H_    0.319111 0.507002 0.767280 0.210385
H6    H     H_    0.680888 0.492302 0.232737 0.210378
H7    H     H_    0.319112 0.493013 0.232717 0.210385
H8    H     H_    0.680888 0.507706 0.767266 0.210378
C11   C     C_R   0.326768 0.500004 0.499998 -0.234638
C12   C     C_R   0.673231 0.500004 0.500002 -0.234622
C13   C     C_R   0.880615 0.631671 0.472159 0.623487
C14   C     C_R   0.119381 0.368360 0.527829 0.623494
C15   C     C_R   0.880615 0.368358 0.527849 0.623486
C16   C     C_R   0.119381 0.631676 0.472161 0.623504
N1    N     N_R   0.852486 0.500014 0.500005 -0.323046
N2    N     N_R   0.147512 0.500019 0.499995 -0.323068
C17   C     C_R   0.940158 0.365496 0.528615 -0.032853
C18   C     C_R   0.059839 0.634537 0.471388 -0.032873
C19   C     C_R   0.940157 0.634535 0.471389 -0.032853
C20   C     C_R   0.059839 0.365497 0.528606 -0.032869
C21   C     C_R   0.970043 0.500016 0.500001 -0.009111
C22   C     C_R   0.029953 0.500017 0.499998 -0.009126
C23   C     C_R   0.970315 0.232115 0.557072 -0.135096
C24   C     C_R   0.029682 0.767917 0.442931 -0.135094
C25   C     C_R   0.970313 0.767916 0.442930 -0.135095
C26   C     C_R   0.029683 0.232116 0.557066 -0.135093
C27   C     C_1   0.500000 0.065197 0.500008 -0.168528
C28   C     C_1   0.500000 0.934803 0.499992 -0.168528
C29   C     C_R   0.237620 0.503867 0.650020 0.668196
C30   C     C_R   0.762379 0.495765 0.349989 0.668163
C31   C     C_R   0.237620 0.496166 0.349973 0.668200
C32   C     C_R   0.762379 0.504254 0.650017 0.668166
N3    N     N_1   0.500000 0.500000 0.073640 -0.028047
N4    N     N_1   0.500000 0.500000 0.926360 -0.028047
O9    O     O_2   0.850898 0.758979 0.445860 -0.503216
O10   O     O_2   0.149097 0.241046 0.554103 -0.503184
O11   O     O_2   0.850899 0.241048 0.554150 -0.503216
O12   O     O_2   0.149096 0.758991 0.445883 -0.503179
F1    F     F_    0.208805 0.508147 0.795320 -0.580214
F2    F     F_    0.791195 0.491110 0.204702 -0.580260
F3    F     F_    0.208806 0.491897 0.204673 -0.580214
F4    F     F_    0.791195 0.508911 0.795305 -0.580260

loop_
_geom_bond_atom_site_label_1
_geom_bond_atom_site_label_2
_geom_bond_distance
_ccdc_geom_bond_type
C10   C32   1.388265 A    
C9    C11   1.404189 A    
C18   C24   1.403801 A    
C6    C12   1.458349 S    
C9    H7    1.083423 S    
C5    C11   1.458354 S    
C21   C22   1.404654 A    
C9    C31   1.388263 A    
C27   C28   1.164009 T    
C31   F3    1.357335 S    
C19   C25   1.403798 A    
C8    C30   1.388265 A    
C30   F2    1.357363 S    
O3    Zn1   1.951864 S    
O6    Zn2   2.000489 S    
C7    C29   1.388263 A    
H1    C23   1.083076 S    
C19   C21   1.409468 A    
O3    C2    1.260894 A    
H2    C24   1.083075 S    
N3    N4    1.192675 T    
C20   C26   1.403800 A    
O8    C5    1.278919 A    
O5    Zn1   2.000491 S    
O7    C6    1.278918 A    
C17   C21   1.409467 A    
C14   N2    1.366395 A    
Zn1   N4    1.972515 S    
C20   C22   1.409463 A    
C15   N1    1.366385 A    
C16   N2    1.366395 A    
C13   C19   1.396269 A    
C1    C27   1.363795 S    
C3    C31   1.398305 A    
C3    C29   1.398303 A    
C4    N1    1.421204 S    
C2    C28   1.363795 S    
C4    C30   1.398315 A    
C23   C26   1.391937 A    
C13   N1    1.366386 A    
C17   C23   1.403799 A    
O1    Zn1   1.951946 S    
C10   C12   1.404219 A    
O7    Zn1   2.000493 S    
O2    Zn2   1.951945 S    
O4    Zn2   1.951865 S    
C18   C22   1.409463 A    
H3    C25   1.083076 S    
C3    N2    1.421230 S    
C14   C20   1.396269 A    
O1    C1    1.260930 A    
C24   C25   1.391937 A    
O8    Zn2   2.000495 S    
Zn2   N3    1.972515 S    
C8    H6    1.083443 S    
O6    C6    1.278919 A    
C16   O12   1.349919 S    
C7    H5    1.083421 S    
O5    C5    1.278920 A    
C15   O11   1.349922 S    
C8    C12   1.404220 A    
H4    C26   1.083077 S    
C13   O9    1.349922 S    
O4    C1    1.260894 A    
C16   C18   1.396271 A    
C7    C11   1.404193 A    
C32   F4    1.357362 S    
O2    C2    1.260930 A    
C15   C17   1.396269 A    
C4    C32   1.398315 A    
C10   H8    1.083445 S    
C14   O10   1.349922 S    
C29   F1    1.357342 S    
