data_mof_unit_64267.cif
_audit_creation_date              2012-12-10T18:12:13-0500
_audit_creation_method            fapswitch 2.2
_symmetry_space_group_name_H-M    P1
_symmetry_Int_Tables_number       1
_space_group_crystal_system       triclinic
_cell_length_a                    18.687713
_cell_length_b                    18.767635
_cell_length_c                    18.758829
_cell_angle_alpha                 109.656363
_cell_angle_beta                  109.387733
_cell_angle_gamma                 109.610967
_cell_volume                      5049.48231861

loop_
_atom_site_label
_atom_site_type_symbol
_atom_type_description
_atom_site_fract_x
_atom_site_fract_y
_atom_site_fract_z
_atom_type_partial_charge
C1    C     C_R   0.619977 0.620349 0.499580 0.864382
C2    C     C_R   0.337801 0.772923 0.212041 -0.283623
C3    C     C_R   0.309282 0.822959 0.255411 -0.257226
C4    C     C_R   0.379565 0.499416 0.380000 0.901225
C5    C     C_R   0.268766 0.796963 0.300213 0.270150
C6    C     C_R   0.257210 0.718769 0.301816 0.133891
C7    C     C_R   0.285104 0.667402 0.255842 -0.071957
C8    C     C_R   0.742905 0.769146 0.573074 -0.172118
C9    C     C_R   0.807483 0.831520 0.572410 -0.237782
C10   C     C_R   0.813517 0.811483 0.496688 0.002852
C11   C     C_R   0.756060 0.728216 0.420755 0.185918
C12   C     C_R   0.156585 0.187360 0.263868 -0.189377
C13   C     C_R   0.691750 0.665910 0.422501 -0.181007
C14   C     C_R   0.685502 0.686361 0.498317 -0.069583
C15   C     C_R   0.674139 0.492976 0.754473 0.634933
C16   C     C_R   0.379670 0.379678 0.499954 0.886914
C17   C     C_R   0.737636 0.491714 0.817511 -0.246394
C18   C     C_R   0.812954 0.499297 0.813339 -0.103105
C19   C     C_R   0.824645 0.506661 0.745801 -0.167019
C20   C     C_R   0.760083 0.505407 0.681388 -0.264340
C21   C     C_R   0.685536 0.499393 0.686387 -0.155817
C22   C     C_R   0.247711 0.326297 0.511099 -0.152720
C23   C     C_R   0.170027 0.427764 0.192772 -0.242632
C24   C     C_R   0.183071 0.261717 0.509797 -0.093116
C25   C     C_R   0.186703 0.186278 0.500650 -0.009280
C26   C     C_R   0.253368 0.173905 0.491354 -0.192455
C27   C     C_R   0.316454 0.237226 0.489785 -0.165037
C28   C     C_R   0.619873 0.499731 0.620250 0.933325
C29   C     C_R   0.313700 0.313454 0.500268 -0.025199
C30   C     C_R   0.999585 0.620345 0.119815 0.921808
C31   C     C_R   0.120743 0.502211 0.122155 0.896029
C32   C     C_R   0.000009 0.379513 0.879573 0.891412
C33   C     C_R   0.879537 0.499762 0.879616 0.908600
C34   C     C_R   0.188473 0.504909 0.190168 -0.127563
C35   C     C_R   0.000039 0.879907 0.379704 0.879343
C36   C     C_R   0.879822 0.879014 0.498792 0.848498
C37   C     C_R   0.999883 0.119591 0.619840 0.882724
C38   C     C_R   0.120345 0.120069 0.500110 0.849640
C39   C     C_R   0.006356 0.761846 0.181548 0.628965
C40   C     C_R   0.213708 0.210282 0.232404 -0.233337
C41   C     C_R   0.005641 0.825198 0.245344 -0.271369
C42   C     C_R   0.999714 0.813919 0.313422 -0.092956
C43   C     C_R   0.992401 0.739130 0.317521 -0.186908
C44   C     C_R   0.990232 0.674430 0.252310 -0.279939
C45   C     C_R   0.270672 0.582568 0.251202 0.106374
C46   C     C_R   0.998764 0.686543 0.185349 -0.143128
C47   C     C_R   0.070574 0.334909 0.798203 -0.165737
C48   C     C_R   0.071331 0.271177 0.734584 0.136303
C49   C     C_R   0.999609 0.185036 0.685852 -0.018852
C50   C     C_R   0.927951 0.162403 0.700429 0.152510
C51   C     C_R   0.929132 0.227340 0.764662 -0.188671
C52   C     C_R   0.238420 0.287577 0.228910 -0.091512
C53   C     C_R   0.999912 0.312933 0.813113 -0.122486
C54   C     C_R   0.207642 0.343496 0.258904 0.018653
C55   C     C_R   0.149659 0.319697 0.289695 -0.286374
C56   C     C_R   0.336079 0.580186 0.312715 0.136936
C57   C     C_R   0.123874 0.241597 0.291658 0.682442
C58   C     C_3   0.240001 0.855320 0.345354 -0.889602
C59   C     C_3   0.217235 0.691914 0.353149 -0.910377
C60   C     C_3   0.762224 0.702270 0.338524 -0.889528
C61   C     C_3   0.147677 0.295991 0.718418 -0.878688
C62   C     C_3   0.850075 0.070806 0.650652 -0.905507
C63   C     C_3   0.427143 0.660498 0.377177 -0.814768
C64   C     C_R   0.315464 0.501207 0.314077 -0.100606
C65   C     C_R   0.232609 0.425161 0.254776 -0.008183
C66   C     C_R   0.325832 0.695601 0.211983 0.654929
F1    F     F_    0.601047 0.485958 0.758563 -0.657611
F2    F     F_    0.012740 0.773119 0.115644 -0.658954
F3    F     F_    0.066865 0.218328 0.320240 -0.673116
F4    F     F_    0.353102 0.647259 0.168235 -0.656806
H1    H     H_    0.137261 0.127320 0.266165 0.166324
H2    H     H_    0.245170 0.385040 0.518396 0.149050
H3    H     H_    0.130853 0.270674 0.516505 0.149004
H4    H     H_    0.255453 0.114907 0.483816 0.144097
H5    H     H_    0.367890 0.227533 0.481792 0.152596
H6    H     H_    0.011120 0.883472 0.242633 0.173321
H7    H     H_    0.986936 0.730434 0.370121 0.160281
H8    H     H_    0.983900 0.615993 0.255056 0.174998
H9    H     H_    0.125333 0.401521 0.836532 0.175188
H10   H     H_    0.281451 0.303861 0.202937 0.157564
H11   H     H_    0.874326 0.210945 0.776414 0.174168
H12   H     H_    0.318869 0.882644 0.254109 0.180848
H13   H     H_    0.124306 0.361516 0.311789 0.167890
H14   H     H_    0.106397 0.368886 0.146051 0.181279
H15   H     H_    0.368935 0.794037 0.177827 0.182128
H16   H     H_    0.196685 0.865389 0.297469 0.248863
H17   H     H_    0.203195 0.828504 0.374415 0.254880
H18   H     H_    0.298559 0.919983 0.398270 0.234112
H19   H     H_    0.215642 0.632424 0.353213 0.242894
H20   H     H_    0.256137 0.745340 0.422532 0.252575
H21   H     H_    0.148687 0.678282 0.324809 0.240756
H22   H     H_    0.819559 0.753534 0.345239 0.241319
H23   H     H_    0.738677 0.785019 0.632127 0.164960
H24   H     H_    0.768420 0.642771 0.321197 0.236495
H25   H     H_    0.701706 0.687396 0.283927 0.258554
H26   H     H_    0.196662 0.367079 0.761094 0.246152
H27   H     H_    0.181454 0.259443 0.731674 0.258599
H28   H     H_    0.123516 0.279988 0.649369 0.221105
H29   H     H_    0.854902 0.022256 0.601869 0.236742
H30   H     H_    0.844075 0.048465 0.697270 0.237881
H31   H     H_    0.789225 0.070986 0.615620 0.251141
H32   H     H_    0.439085 0.714814 0.363173 0.236896
H33   H     H_    0.436997 0.686187 0.444320 0.244491
H34   H     H_    0.852373 0.895673 0.630630 0.150345
H35   H     H_    0.477861 0.642860 0.375360 0.227704
H36   H     H_    0.646679 0.601406 0.364718 0.166481
H37   H     H_    0.728897 0.486276 0.870119 0.177895
H38   H     H_    0.882856 0.512052 0.742386 0.161668
H39   H     H_    0.238356 0.167840 0.210142 0.164566
H40   H     H_    0.768722 0.510536 0.628625 0.170721
O1    O     O_R   0.591640 0.539900 0.448310 -0.628454
O2    O     O_R   0.948270 0.908330 0.356580 -0.613732
O3    O     O_R   0.960090 0.908280 0.551610 -0.620576
O4    O     O_R   0.591610 0.643330 0.551710 -0.628494
O5    O     O_R   0.856650 0.908310 0.448190 -0.614291
O6    O     O_R   0.051730 0.091500 0.643240 -0.620508
O7    O     O_R   0.948290 0.091530 0.539820 -0.615977
O8    O     O_R   0.143350 0.091510 0.551630 -0.622910
O9    O     O_R   0.039910 0.091550 0.448210 -0.593847
O10   O     O_R   0.408400 0.448280 0.356670 -0.627638
O11   O     O_R   0.408370 0.551710 0.460080 -0.628667
O12   O     O_R   0.051750 0.643320 0.091550 -0.571265
O13   O     O_R   0.408390 0.356670 0.448290 -0.627244
O14   O     O_R   0.408360 0.460100 0.551690 -0.607589
O15   O     O_R   0.591630 0.448290 0.539920 -0.633139
O16   O     O_R   0.591600 0.551720 0.643330 -0.573184
O17   O     O_R   0.948300 0.539910 0.091570 -0.634706
O18   O     O_R   0.039910 0.448280 0.091610 -0.631596
O19   O     O_R   0.143370 0.551700 0.091590 -0.608042
O20   O     O_R   0.948300 0.356650 0.908390 -0.629138
O21   O     O_R   0.051750 0.460070 0.908380 -0.625603
O22   O     O_R   0.856690 0.448280 0.908350 -0.627936
O23   O     O_R   0.960140 0.551690 0.908340 -0.607789
O24   O     O_R   0.051710 0.908290 0.460000 -0.623591
Zn1   Zn    Zn3+2 0.500020 0.430940 0.430950 0.956433
Zn2   Zn    Zn3+2 0.499980 0.569060 0.569050 0.999053
Zn3   Zn    Zn3+2 0.930950 0.430940 0.999980 0.966782
Zn4   Zn    Zn3+2 0.069100 0.569040 0.999960 1.026320
Zn5   Zn    Zn3+2 0.069070 0.999890 0.568970 0.966539
Zn6   Zn    Zn3+2 0.930930 0.999930 0.430860 1.007866

loop_
_geom_bond_atom_site_label_1
_geom_bond_atom_site_label_2
_ccdc_geom_bond_type
C22   C29   A    
C27   C29   A    
C39   F2    S    
O2    Zn6   S    
C61   H28   S    
C47   H9    S    
C43   C44   A    
O1    Zn1   S    
C58   H17   S    
C32   O20   A    
C61   H26   S    
C39   C41   A    
C37   O6    A    
C26   C27   A    
C5    C58   S    
O9    Zn6   S    
C7    C45   S    
C16   O13   A    
C17   H37   S    
C59   H19   S    
C5    C6    A    
C24   H3    S    
C2    H15   S    
C18   C19   A    
C41   C42   A    
C35   C42   S    
C54   C55   A    
O19   Zn4   S    
C30   O12   A    
C45   C56   A    
C44   C46   A    
C8    C9    A    
C56   C64   A    
C63   H35   S    
C9    C10   A    
C51   H11   S    
C47   C53   A    
C62   H31   S    
C19   H38   S    
O15   Zn1   S    
O16   Zn2   S    
O23   Zn4   S    
C13   C14   A    
C31   O18   A    
C63   H32   S    
C27   H5    S    
C36   O3    A    
C58   H16   S    
C35   O24   A    
C22   H2    S    
C52   C54   A    
C50   C51   A    
C60   H22   S    
C31   C34   S    
C23   H14   S    
O14   Zn2   S    
C24   C25   A    
O12   Zn4   S    
C63   H33   S    
O24   Zn5   S    
C54   C65   S    
C3    C5    A    
C25   C26   A    
C40   C52   A    
O13   Zn1   S    
C51   C53   A    
C59   H20   S    
C12   C40   A    
O18   Zn3   S    
C25   C38   S    
C37   C49   S    
C47   C48   A    
C23   C34   A    
C15   F1    S    
C3    H12   S    
O3    Zn5   S    
C17   C18   A    
C56   C63   S    
C34   C45   A    
C59   H21   S    
O5    Zn6   S    
C6    C7    A    
C39   C46   A    
C20   H40   S    
C12   C57   A    
C33   O22   A    
C48   C49   A    
C12   H1    S    
C55   C57   A    
C50   C62   S    
C62   H30   S    
O7    Zn6   S    
C42   C43   A    
C38   O9    A    
C55   H13   S    
C11   C60   S    
C32   C53   S    
C28   O15   A    
C15   C17   A    
C30   O17   A    
C8    C14   A    
C6    C59   S    
C21   C28   S    
C61   H27   S    
C8    H23   S    
C13   H36   S    
C2    C66   A    
C58   H18   S    
C40   H39   S    
C43   H7    S    
C4    C64   S    
C30   C46   S    
O10   Zn1   S    
C28   O16   A    
C64   C65   A    
O6    Zn5   S    
C19   C20   A    
C44   H8    S    
C2    C3    A    
C16   O14   A    
C31   O19   A    
O21   Zn4   S    
C1    O1    A    
C7    C66   A    
C11   C13   A    
C23   C65   A    
C48   C61   S    
C66   F4    S    
C9    H34   S    
C26   H4    S    
C4    O11   A    
C22   C24   A    
O11   Zn2   S    
C18   C33   S    
C10   C11   A    
O20   Zn3   S    
C62   H29   S    
C38   O8    A    
C60   H25   S    
C33   O23   A    
C15   C21   A    
C37   O7    A    
C20   C21   A    
C16   C29   S    
C49   C50   A    
C1    O4    A    
O4    Zn2   S    
C4    O10   A    
C10   C36   S    
C1    C14   S    
O17   Zn3   S    
C57   F3    S    
O22   Zn3   S    
C52   H10   S    
C36   O5    A    
C32   O21   A    
C35   O2    A    
O8    Zn5   S    
C41   H6    S    
C60   H24   S    
