data_mof_unit_32952.cif
_audit_creation_date              2012-12-11T15:41:21-0500
_audit_creation_method            fapswitch 2.2
_symmetry_space_group_name_H-M    P1
_symmetry_Int_Tables_number       1
_space_group_crystal_system       triclinic
_cell_length_a                    14.86902
_cell_length_b                    15.013427
_cell_length_c                    14.86812
_cell_angle_alpha                 109.15967
_cell_angle_beta                  108.982196
_cell_angle_gamma                 109.428191
_cell_volume                      2581.26045634

loop_
_atom_site_label
_atom_site_type_symbol
_atom_type_description
_atom_site_fract_x
_atom_site_fract_y
_atom_site_fract_z
_atom_type_partial_charge
C1    C     C_R   0.250201 0.064678 0.972961 -0.128871
C2    C     C_R   0.805464 0.007379 0.097535 -0.160561
C3    C     C_R   0.790994 0.322955 0.323840 0.071633
C4    C     C_R   0.145078 0.694042 0.694084 0.062255
C5    C     C_R   0.499742 0.933478 0.302026 0.047365
C6    C     C_R   0.502413 0.948497 0.675616 0.039852
C7    C     C_R   0.500244 0.299781 0.931077 0.070456
C8    C     C_R   0.505932 0.678781 0.952737 0.049544
C9    C     C_R   0.198034 0.094098 0.618744 0.202178
C10   C     C_R   0.819938 0.833101 0.257370 0.208984
C11   C     C_R   0.293271 0.195236 0.674388 -0.247483
C12   C     C_R   0.722864 0.736664 0.174470 -0.215060
C13   C     C_R   0.305959 0.284997 0.757921 0.107677
C14   C     C_R   0.714913 0.676237 0.074204 0.083943
C15   C     C_R   0.220183 0.275607 0.781186 -0.179400
C16   C     C_R   0.807450 0.706795 0.060790 -0.163051
C17   C     C_R   0.126104 0.175665 0.727382 -0.184769
C18   C     C_R   0.905808 0.798413 0.144894 -0.144585
C19   C     C_R   0.115111 0.085199 0.647523 -0.114596
C20   C     C_R   0.912157 0.861453 0.242072 -0.158632
C21   C     C_R   0.420010 0.481732 0.841016 -0.251955
C22   C     C_R   0.605429 0.482088 0.966022 -0.242946
C23   C     C_R   0.757429 0.221527 0.314620 -0.137151
C24   C     C_R   0.202082 0.787872 0.696459 -0.160776
C25   C     C_R   0.514529 0.580162 0.922564 0.068048
C26   C     C_R   0.505453 0.385881 0.902645 0.056443
C27   C     C_R   0.610432 0.579673 0.982948 0.040867
C28   C     C_R   0.413201 0.383981 0.831710 0.047043
C29   C     C_R   0.987365 0.433383 0.446903 0.209323
C30   C     C_R   0.946908 0.589688 0.571207 0.144171
C31   C     C_R   0.072274 0.526642 0.539660 -0.248249
C32   C     C_R   0.860305 0.494231 0.478291 -0.239200
C33   C     C_R   0.051782 0.601704 0.600893 0.029298
C34   C     C_R   0.880982 0.417630 0.418560 0.020348
C35   C     C_R   0.601375 0.942025 0.570083 -0.166321
C36   C     C_R   0.402685 0.840845 0.379842 -0.169539
C37   C     C_R   0.600231 0.939425 0.475774 -0.189018
C38   C     C_R   0.403967 0.841800 0.473720 -0.168420
C39   C     C_R   0.500833 0.899468 0.383888 0.139187
C40   C     C_R   0.502874 0.904113 0.572280 0.141099
C41   C     C_R   0.128507 0.061580 0.159510 -0.168995
C42   C     C_R   0.035878 0.159680 0.058259 -0.174716
C43   C     C_R   0.038865 0.067119 0.164222 -0.182291
C44   C     C_R   0.126443 0.155741 0.054930 -0.170119
C45   C     C_R   0.408950 0.905112 0.209705 -0.137694
C46   C     C_R   0.593023 0.025521 0.777722 -0.125051
C47   C     C_R   0.984862 0.104857 0.102832 0.138731
C48   C     C_R   0.164752 0.095252 0.094396 0.147218
C49   C     C_R   0.590733 0.296441 0.992327 -0.131562
C50   C     C_R   0.411615 0.686305 0.938793 -0.128628
C51   C     C_R   0.590248 0.994999 0.299076 -0.151640
C52   C     C_R   0.410224 0.934021 0.686731 -0.139919
C53   C     C_R   0.409389 0.209354 0.905995 -0.150682
C54   C     C_R   0.593100 0.782175 0.018497 -0.129280
C55   C     C_R   0.758138 0.313987 0.221852 -0.155558
C56   C     C_R   0.202421 0.696334 0.788345 -0.146690
C57   C     C_R   0.250317 0.973634 0.065867 -0.131313
C58   C     C_R   0.804620 0.096959 0.005142 -0.140945
C59   C     C_R   0.223797 0.050083 0.050285 0.039223
C60   C     C_R   0.869553 0.070288 0.069042 0.048112
H1    H     H_    0.239593 0.116588 0.939777 0.096878
H2    H     H_    0.832820 0.984139 0.158188 0.100232
H3    H     H_    0.359941 0.202745 0.656934 0.128022
H4    H     H_    0.651558 0.711449 0.185155 0.122751
H5    H     H_    0.229160 0.343935 0.845910 0.120121
H6    H     H_    0.803006 0.659968 0.984835 0.119664
H7    H     H_    0.062072 0.167837 0.748927 0.127391
H8    H     H_    0.977171 0.821686 0.134249 0.118546
H9    H     H_    0.347982 0.480994 0.790455 0.131398
H10   H     H_    0.679025 0.485897 0.016916 0.127276
H11   H     H_    0.155556 0.542239 0.563871 0.150129
H12   H     H_    0.776844 0.478105 0.450841 0.130829
H13   H     H_    0.679541 0.983783 0.642993 0.109039
H14   H     H_    0.324384 0.802821 0.308195 0.107262
H15   H     H_    0.677595 0.978355 0.479522 0.125379
H16   H     H_    0.326715 0.803263 0.470549 0.107580
H17   H     H_    0.161418 0.021358 0.197783 0.102990
H18   H     H_    0.000550 0.196014 0.016093 0.104390
H19   H     H_    0.775380 0.201169 0.379220 0.100883
H20   H     H_    0.175028 0.812981 0.637924 0.106166
H21   H     H_    0.006490 0.032261 0.206966 0.106888
H22   H     H_    0.157698 0.190103 0.011035 0.107893
H23   H     H_    0.325509 0.845440 0.177967 0.082862
H24   H     H_    0.678056 0.057057 0.799422 0.093545
H25   H     H_    0.674310 0.342762 0.012346 0.084743
H26   H     H_    0.328213 0.621055 0.891922 0.092402
H27   H     H_    0.672678 0.015230 0.346662 0.106091
H28   H     H_    0.326388 0.881017 0.624152 0.098153
H29   H     H_    0.324974 0.178874 0.853063 0.130024
H30   H     H_    0.676018 0.808760 0.035373 0.133379
H31   H     H_    0.778182 0.378158 0.201408 0.105919
H32   H     H_    0.175109 0.638493 0.814888 0.094534
H33   H     H_    0.240010 0.941914 0.119405 0.092217
H34   H     H_    0.831332 0.157102 0.981100 0.082688
H35   H     H_    0.041322 0.009130 0.609169 0.108751
H36   H     H_    0.989664 0.932623 0.304045 0.105323
N1    N     N_R   0.293810 0.002730 0.945950 -0.039815
N2    N     N_R   0.706190 0.997270 0.054050 -0.038652
N3    N     N_R   0.706160 0.152130 0.208910 -0.041536
N4    N     N_R   0.293840 0.847870 0.791090 -0.035096
N5    N     N_R   0.443140 0.945920 0.152090 -0.036326
N6    N     N_R   0.556860 0.054080 0.847910 -0.039777
N7    N     N_R   0.556830 0.208940 0.002760 -0.037505
N8    N     N_R   0.443170 0.791060 0.997240 -0.040076
N9    N     N_R   0.556790 0.002750 0.208910 -0.034680
N10   N     N_R   0.443210 0.997250 0.791090 -0.037191
N11   N     N_R   0.443180 0.152110 0.945950 -0.041084
N12   N     N_R   0.556820 0.847890 0.054050 -0.042613
N13   N     N_R   0.706170 0.208950 0.152090 -0.040619
N14   N     N_R   0.293830 0.791050 0.847910 -0.036237
N15   N     N_R   0.293800 0.945910 0.002760 -0.040093
N16   N     N_R   0.706200 0.054090 0.997240 -0.035797
Ni1   Ni    Ni4+2 0.369690 0.999990 0.869700 0.214224
Ni2   Ni    Ni4+2 0.630310 0.000010 0.130300 0.205349
Ni3   Ni    Ni4+2 0.369670 0.869670 0.000000 0.208485
Ni4   Ni    Ni4+2 0.630330 0.130330 0.000000 0.205584
C61   C     C_3   0.191287 0.998731 0.533281 -0.463732
C62   C     C_3   0.090494 0.889098 0.485534 -0.271262
C63   C     C_3   0.091613 0.796011 0.404677 -0.909574
H37   H     H_    0.102605 0.813127 0.340613 0.261494
H38   H     H_    0.158253 0.783104 0.447697 0.245528
H39   H     H_    0.012867 0.720461 0.364995 0.254128
H40   H     H_    0.084749 0.872728 0.551353 0.183310
H41   H     H_    0.016509 0.891784 0.442947 0.206524
H42   H     H_    0.191964 0.015481 0.465933 0.186430
H43   H     H_    0.265677 0.993206 0.570721 0.199045
C64   C     C_3   0.823308 0.901940 0.361042 -0.469498
C65   C     C_3   0.891162 0.024765 0.406332 -0.248385
C66   C     C_3   0.894240 0.092454 0.511201 -0.957882
H44   H     H_    0.826943 0.111278 0.494053 0.239742
H45   H     H_    0.890576 0.050864 0.560428 0.263155
H46   H     H_    0.970722 0.171650 0.560987 0.269106
H47   H     H_    0.976978 0.047444 0.426652 0.200534
H48   H     H_    0.857184 0.046457 0.343612 0.181906
H49   H     H_    0.738798 0.882503 0.344928 0.193672
H50   H     H_    0.856244 0.879910 0.423701 0.178654
C67   C     C_3   0.014017 0.356666 0.378377 -0.424043
C68   C     C_3   0.027166 0.277062 0.418064 -0.249692
C69   C     C_3   0.135252 0.328878 0.521856 -0.889243
H51   H     H_    0.205225 0.371606 0.511969 0.257317
H52   H     H_    0.136843 0.386501 0.592733 0.255873
H53   H     H_    0.144265 0.264771 0.538942 0.253581
H54   H     H_    0.958997 0.241544 0.432860 0.204799
H55   H     H_    0.022835 0.210047 0.352718 0.185976
H56   H     H_    0.949521 0.309350 0.291601 0.166662
H57   H     H_    0.089527 0.403684 0.378055 0.184662
C70   C     C_3   0.932045 0.678979 0.639480 -0.415312
C71   C     C_3   0.814599 0.659868 0.596813 -0.270288
C72   C     C_3   0.810581 0.756261 0.669167 -0.906444
H58   H     H_    0.841536 0.769431 0.753823 0.263791
H59   H     H_    0.860801 0.830776 0.670208 0.254352
H60   H     H_    0.724923 0.740244 0.636820 0.252200
H61   H     H_    0.782050 0.648394 0.512730 0.199598
H62   H     H_    0.761898 0.586423 0.595748 0.200489
H63   H     H_    0.963091 0.690347 0.723551 0.190859
H64   H     H_    0.983421 0.755512 0.644208 0.185754

loop_
_geom_bond_atom_site_label_1
_geom_bond_atom_site_label_2
_ccdc_geom_bond_type
C23   N3    A    
N4    N14   A    
C61   C62   S    
C9    C61   S    
C3    C23   A    
C70   C71   S    
N8    N12   A    
C65   C66   S    
N3    Ni2   S    
C30   C70   S    
C32   H12   S    
C38   H16   S    
C50   N8    A    
C46   N6    A    
C7    C26   S    
C71   H62   S    
C58   N16   A    
C67   H56   S    
C35   C37   A    
C64   H49   S    
C54   H30   S    
C44   H22   S    
C68   H54   S    
C72   H59   S    
C41   H17   S    
N1    N15   A    
C69   H53   S    
C2    C60   A    
N2    Ni2   S    
C58   C60   A    
N3    N13   A    
C11   C13   A    
N12   Ni2   S    
C62   C63   S    
N11   Ni1   S    
C55   H31   S    
N13   Ni4   S    
C47   C60   S    
C3    C55   A    
C24   H20   S    
C35   H13   S    
C10   C20   A    
C31   C33   A    
C13   C28   S    
N6    N10   A    
C14   C27   S    
C30   C32   A    
C70   H63   S    
C61   H43   S    
C18   C20   A    
C42   C47   A    
C66   H46   S    
C31   H11   S    
C20   H36   S    
C52   N10   A    
C57   H33   S    
C4    C56   A    
C8    C25   S    
C41   C43   A    
C1    C59   A    
C45   H23   S    
C42   C44   A    
C10   C12   A    
C56   N14   A    
C9    C19   A    
C63   H38   S    
N5    N9    A    
C69   H51   S    
C17   H7    S    
N2    N16   A    
N10   Ni1   S    
C49   H25   S    
N9    Ni2   S    
C52   H28   S    
N6    Ni4   S    
C71   C72   S    
C7    C49   A    
C72   H60   S    
C51   H27   S    
C3    C34   S    
C5    C45   A    
C29   C34   A    
C21   H9    S    
C32   C34   A    
C65   H48   S    
N8    Ni3   S    
C53   N11   A    
C1    N1    A    
C51   N9    A    
C62   H41   S    
C64   H50   S    
C70   H64   S    
C9    C11   A    
C45   N5    A    
C46   H24   S    
C16   C18   A    
C21   C28   A    
C12   C14   A    
C42   H18   S    
C22   C27   A    
C13   C15   A    
C53   H29   S    
N5    Ni3   S    
C14   C16   A    
C16   H6    S    
C71   H61   S    
C7    C53   A    
N1    Ni1   S    
C10   C64   S    
C8    C50   A    
N16   Ni4   S    
C19   H35   S    
C43   H21   S    
C48   C59   S    
C66   H44   S    
C63   H39   S    
C15   C17   A    
C12   H4    S    
C21   C25   A    
C4    C33   S    
C36   H14   S    
C6    C46   A    
C30   C33   A    
C24   N4    A    
C36   C39   A    
N4    Ni1   S    
C43   C47   A    
C1    H1    S    
C49   N7    A    
N7    N11   A    
C63   H37   S    
C54   N12   A    
C25   C27   A    
C29   C67   S    
C67   C68   S    
C26   C28   A    
C8    C54   A    
C23   H19   S    
C67   H57   S    
C5    C39   S    
C35   C40   A    
C58   H34   S    
C37   C39   A    
C68   H55   S    
C65   H47   S    
C38   C40   A    
C69   H52   S    
C57   N15   A    
C61   H42   S    
C4    C24   A    
C36   C38   A    
C17   C19   A    
C41   C48   A    
N7    Ni4   S    
C6    C40   S    
C62   H40   S    
C37   H15   S    
C57   C59   A    
C68   C69   S    
C50   H26   S    
C44   C48   A    
C56   H32   S    
C2    N2    A    
C29   C31   A    
C22   C26   A    
C2    H2    S    
C5    C51   A    
N15   Ni3   S    
C6    C52   A    
C72   H58   S    
C11   H3    S    
C18   H8    S    
N14   Ni3   S    
C22   H10   S    
C55   N13   A    
C64   C65   S    
C66   H45   S    
C15   H5    S    
