data_mof_unit_35065.cif
_audit_creation_date              2012-12-10T17:12:27-0500
_audit_creation_method            fapswitch 2.2
_symmetry_space_group_name_H-M    P1
_symmetry_Int_Tables_number       1
_space_group_crystal_system       triclinic
_cell_length_a                    11.729042
_cell_length_b                    12.993239
_cell_length_c                    11.756984
_cell_angle_alpha                 100.814221
_cell_angle_beta                  94.821054
_cell_angle_gamma                 91.001002
_cell_volume                      1752.68558101

loop_
_atom_site_label
_atom_site_type_symbol
_atom_type_description
_atom_site_fract_x
_atom_site_fract_y
_atom_site_fract_z
_atom_type_partial_charge
C1    C     C_R   0.501775 0.299154 0.477762 0.880553
C2    C     C_R   0.498193 0.700846 0.522242 0.880580
C3    C     C_R   0.388954 0.405585 0.015953 -0.306878
C4    C     C_R   0.611063 0.594405 0.984044 -0.306842
C5    C     C_R   0.397096 0.413997 0.138017 0.288340
C6    C     C_R   0.602912 0.586000 0.861979 0.288345
C7    C     C_R   0.549633 0.540171 0.158913 0.038268
C8    C     C_R   0.450375 0.459823 0.841087 0.038238
C9    C     C_R   0.540451 0.534070 0.036121 0.024788
C10   C     C_R   0.459564 0.465922 0.963878 0.024804
C11   C     C_R   0.283901 0.500133 0.499450 0.817972
C12   C     C_R   0.716099 0.499865 0.500549 0.817967
C13   C     C_1   0.162175 0.500343 0.498746 -0.178217
C14   C     C_1   0.837825 0.499650 0.501252 -0.178240
C15   C     C_1   0.059826 0.500202 0.499400 0.000848
C16   C     C_1   0.940173 0.499787 0.500597 0.000804
C17   C     C_R   0.488990 0.814611 0.535580 -0.308391
C18   C     C_R   0.510938 0.185389 0.464428 -0.308327
C19   C     C_R   0.588621 0.019270 0.380323 0.685841
C20   C     C_R   0.411208 0.980712 0.619623 0.685894
C21   C     C_R   0.581104 0.128041 0.383866 -0.136252
C22   C     C_R   0.418872 0.871964 0.616200 -0.136283
C23   C     C_R   0.453445 0.136009 0.540162 0.626197
C24   C     C_R   0.546392 0.863981 0.459778 0.626187
C25   C     C_R   0.465930 0.029308 0.540270 -0.262103
C26   C     C_R   0.533888 0.970674 0.459667 -0.262159
Cu1   Cu    Cu3+1 0.508350 0.507730 0.615930 0.950223
Cu2   Cu    Cu3+1 0.491650 0.492270 0.384070 0.950262
H1    H     H_    0.387133 0.406939 0.786385 0.175366
H2    H     H_    0.612874 0.593055 0.213616 0.175367
H3    H     H_    0.325726 0.352161 0.961496 0.163453
H4    H     H_    0.674292 0.647829 0.038499 0.163455
N1    N     N_R   0.520920 0.519350 0.790130 -0.198383
N2    N     N_R   0.479080 0.480650 0.209870 -0.198384
O1    O     O_R   0.505930 0.354460 0.582000 -0.525852
O2    O     O_R   0.494070 0.645540 0.418000 -0.525776
O3    O     O_R   0.491820 0.341410 0.386200 -0.630394
O4    O     O_R   0.508180 0.658590 0.613800 -0.630478
O5    O     O_R   0.344250 0.506540 0.597900 -0.575770
O6    O     O_R   0.655750 0.493460 0.402100 -0.575764
O7    O     O_R   0.330140 0.493480 0.402100 -0.594562
O8    O     O_R   0.669860 0.506520 0.597900 -0.594536
F1    F     F_    0.616104 0.806800 0.386962 -0.611839
F2    F     F_    0.383722 0.193201 0.612956 -0.611830
C27   C     C_3   0.353179 0.813766 0.693711 -0.332494
C28   C     C_3   0.256702 0.871036 0.757612 -0.264586
C29   C     C_3   0.187172 0.796080 0.812643 -0.902466
H5    H     H_    0.146968 0.731934 0.744359 0.260421
H6    H     H_    0.243051 0.761795 0.875943 0.265665
H7    H     H_    0.118635 0.839248 0.859018 0.256784
H8    H     H_    0.293555 0.934586 0.828654 0.271124
H9    H     H_    0.198002 0.904225 0.695564 0.257058
H10   H     H_    0.312828 0.741692 0.637513 0.197713
H11   H     H_    0.415556 0.789765 0.759595 0.215655
C30   C     C_3   0.647048 0.186249 0.306559 -0.332403
C31   C     C_3   0.743832 0.129019 0.243142 -0.264481
C32   C     C_3   0.813885 0.204049 0.188717 -0.902839
H12   H     H_    0.758389 0.238710 0.125445 0.265683
H13   H     H_    0.854083 0.267913 0.257348 0.260553
H14   H     H_    0.882448 0.160835 0.142435 0.256835
H15   H     H_    0.802128 0.095671 0.305391 0.256967
H16   H     H_    0.707246 0.065585 0.171827 0.271119
H17   H     H_    0.584880 0.210168 0.240440 0.215518
H18   H     H_    0.687186 0.258378 0.362833 0.197735
F3    F     F_    0.647116 0.959468 0.298992 -0.637577
F4    F     F_    0.352572 0.040502 0.700836 -0.637610
C33   C     C_3   0.690947 0.652660 0.818857 -0.371293
C34   C     C_3   0.810955 0.608264 0.831970 -0.360150
C35   C     C_3   0.900179 0.674464 0.788259 -0.830584
H19   H     H_    0.877274 0.679083 0.695834 0.261466
H20   H     H_    0.906663 0.754930 0.841421 0.257253
H21   H     H_    0.984630 0.637912 0.795473 0.247850
H22   H     H_    0.836488 0.606532 0.924761 0.215766
H23   H     H_    0.810897 0.526580 0.782362 0.244009
H24   H     H_    0.671696 0.662437 0.729317 0.251042
H25   H     H_    0.691850 0.733606 0.870978 0.174158
C36   C     C_3   0.309038 0.347366 0.181137 -0.371166
C37   C     C_3   0.189058 0.391815 0.168016 -0.360071
C38   C     C_3   0.099787 0.325623 0.211660 -0.830956
H26   H     H_    0.093326 0.245160 0.158491 0.257282
H27   H     H_    0.122627 0.320996 0.304093 0.261518
H28   H     H_    0.015346 0.362185 0.204386 0.248046
H29   H     H_    0.189137 0.473487 0.217656 0.244019
H30   H     H_    0.163556 0.393589 0.075230 0.215775
H31   H     H_    0.308102 0.266421 0.129011 0.174150
H32   H     H_    0.328281 0.337577 0.270676 0.251020

loop_
_geom_bond_atom_site_label_1
_geom_bond_atom_site_label_2
_ccdc_geom_bond_type
C30   C31   S    
C18   C21   A    
C29   H6    S    
C36   C37   S    
Cu1   N1    S    
C1    C18   S    
C8    H1    S    
C20   F4    S    
C19   C21   A    
C24   C26   A    
C32   H13   S    
C20   C25   A    
Cu2   O6    S    
Cu1   O4    S    
C34   H23   S    
C15   C16   S    
C28   H9    S    
Cu2   O7    S    
C31   C32   S    
C35   H20   S    
C19   C26   A    
C12   O8    A    
C37   H29   S    
Cu1   O5    S    
C34   C35   S    
C30   H17   S    
C19   F3    S    
C9    C10   A    
C1    O3    A    
Cu2   N2    S    
C7    H2    S    
C30   H18   S    
C2    C17   S    
C29   H7    S    
C17   C24   A    
C33   C34   S    
C4    C6    A    
C38   H27   S    
C37   C38   S    
C32   H14   S    
Cu1   O1    S    
C34   H22   S    
C27   C28   S    
C28   H8    S    
C27   H10   S    
C23   F2    S    
C18   C23   A    
C12   O6    A    
C35   H21   S    
C3    H3    S    
C2    O4    A    
C29   H5    S    
C5    N2    A    
C11   O5    A    
C4    H4    S    
C6    C33   S    
C12   C14   S    
C36   H32   S    
C13   C15   T    
C7    N2    A    
C31   H16   S    
C33   H24   S    
C5    C36   S    
C1    O1    A    
C21   C30   S    
C2    O2    A    
C7    C9    A    
C28   C29   S    
C20   C22   A    
C3    C5    A    
C27   H11   S    
C38   H28   S    
C17   C22   A    
C6    N1    A    
C25   C26   A    
C3    C10   A    
C11   C13   S    
Cu1   O8    S    
C32   H12   S    
Cu2   O3    S    
C11   O7    A    
C14   C16   T    
C8    N1    A    
C23   C25   A    
C35   H19   S    
C36   H31   S    
C38   H26   S    
C37   H30   S    
C22   C27   S    
Cu2   O2    S    
C8    C10   A    
Cu1   Cu2   S    
C24   F1    S    
C31   H15   S    
C33   H25   S    
C4    C9    A    
