data_mof_unit_59992.cif
_audit_creation_date              2013-03-05T16:35:51-0500
_audit_creation_method            fapswitch 2.2
_symmetry_space_group_name_H-M    P1
_symmetry_Int_Tables_number       1
_space_group_crystal_system       triclinic
_cell_length_a                    23.538372
_cell_length_b                    9.105315
_cell_length_c                    7.795429
_cell_angle_alpha                 89.999903
_cell_angle_beta                  90.000069
_cell_angle_gamma                 89.921657
_cell_volume                      1670.74823667

loop_
_atom_site_label
_atom_site_type_symbol
_atom_site_description
_atom_site_fract_x
_atom_site_fract_y
_atom_site_fract_z
_atom_type_partial_charge
O1    O     O_R   0.500000 0.288390 0.642760 -0.576987
O2    O     O_R   0.500000 0.711610 0.357240 -0.577818
O3    O     O_R   0.500000 0.711610 0.642760 -0.576987
O4    O     O_R   0.500000 0.288390 0.357240 -0.577818
H1    H     H_    0.950234 0.127674 0.508535 0.178627
H2    H     H_    0.049766 0.872323 0.508501 0.178626
H3    H     H_    0.946442 0.869172 0.496309 0.181004
H4    H     H_    0.053557 0.130824 0.496343 0.181003
C1    C     C_R   0.500007 0.220039 0.500000 0.843704
C2    C     C_R   0.499993 0.779961 0.499999 0.843704
O5    O     O_R   0.417880 0.500000 0.642820 -0.585853
O6    O     O_R   0.582120 0.500000 0.357180 -0.582933
O7    O     O_R   0.582120 0.500000 0.642820 -0.585853
O8    O     O_R   0.417880 0.500000 0.357180 -0.582933
C3    C     C_R   0.209193 0.506189 0.502192 0.177962
C4    C     C_R   0.790807 0.493807 0.502192 0.177961
C5    C     C_R   0.390760 0.500370 0.500032 0.846135
C6    C     C_R   0.609240 0.499630 0.500033 0.846136
Cu1   Cu    Cu3+1 0.500000 0.500000 0.669080 1.000002
Cu2   Cu    Cu3+1 0.500000 0.500000 0.330920 1.000228
C7    C     C_R   0.298644 0.568838 0.365430 -0.343798
C8    C     C_R   0.701355 0.431156 0.365433 -0.343818
C9    C     C_R   0.298570 0.439109 0.636700 -0.303430
C10   C     C_R   0.701430 0.560893 0.636697 -0.303432
H5    H     H_    0.322114 0.615229 0.259154 0.170445
H6    H     H_    0.677884 0.384763 0.259161 0.170441
H7    H     H_    0.321211 0.385356 0.740232 0.181601
H8    H     H_    0.678789 0.614651 0.740226 0.181599
C11   C     C_R   0.328443 0.502743 0.500582 -0.145532
C12   C     C_R   0.671557 0.497256 0.500582 -0.145526
C13   C     C_R   0.879929 0.627333 0.492365 0.606038
C14   C     C_R   0.120071 0.372663 0.492375 0.606039
C15   C     C_R   0.881257 0.365461 0.512280 0.587690
C16   C     C_R   0.118743 0.634536 0.512271 0.587681
N1    N     N_R   0.851980 0.495526 0.502068 -0.440502
N2    N     N_R   0.148019 0.504470 0.502069 -0.440501
C17   C     C_R   0.940816 0.364437 0.506688 -0.025160
C18   C     C_R   0.059183 0.635559 0.506677 -0.025154
C19   C     C_R   0.939460 0.631935 0.497853 -0.035507
C20   C     C_R   0.060539 0.368061 0.497865 -0.035508
C21   C     C_R   0.970026 0.499090 0.502197 -0.016985
C22   C     C_R   0.029973 0.500907 0.502197 -0.016986
C23   C     C_R   0.971742 0.232472 0.505836 -0.156487
C24   C     C_R   0.028258 0.767525 0.505812 -0.156491
C25   C     C_R   0.969031 0.765729 0.498880 -0.155477
C26   C     C_R   0.030968 0.234268 0.498904 -0.155477
C27   C     C_1   0.500003 0.065356 0.499998 -0.171981
C28   C     C_1   0.499997 0.934644 0.499998 -0.171981
C29   C     C_R   0.238820 0.575852 0.367914 0.471687
C30   C     C_R   0.761180 0.424142 0.367915 0.471713
C31   C     C_R   0.239206 0.440059 0.638113 0.465455
C32   C     C_R   0.760794 0.559942 0.638111 0.465455
N3    N     N_1   0.500000 0.500000 0.076820 -0.050553
N4    N     N_1   0.500000 0.500000 0.923180 -0.050333
O9    O     O_2   0.850194 0.753470 0.476770 -0.502666
O10   O     O_2   0.149805 0.246526 0.476788 -0.502672
O11   O     O_2   0.852825 0.237643 0.528791 -0.527553
O12   O     O_2   0.147174 0.762355 0.528777 -0.527583
O13   O     O_3   0.207510 0.638727 0.235639 -0.596568
C33   C     C_3   0.230043 0.775853 0.185590 -0.244331
H9    H     H_    0.265266 0.760538 0.092499 0.139733
H10   H     H_    0.244117 0.843103 0.297202 0.192959
H11   H     H_    0.196176 0.838663 0.119042 0.210103
O14   O     O_3   0.792492 0.361264 0.235645 -0.596546
C34   C     C_3   0.769946 0.224169 0.185535 -0.244363
H12   H     H_    0.734735 0.239537 0.092415 0.139733
H13   H     H_    0.755851 0.156909 0.297113 0.192930
H14   H     H_    0.803811 0.161344 0.119001 0.210112
O15   O     O_3   0.210195 0.367096 0.766313 -0.557036
C35   C     C_3   0.207573 0.458857 0.911279 -0.216252
H15   H     H_    0.185850 0.564554 0.881234 0.175997
H16   H     H_    0.250686 0.479405 0.964677 0.166148
H17   H     H_    0.182336 0.402676 0.011921 0.217942
O16   O     O_3   0.789805 0.632911 0.766306 -0.557029
C36   C     C_3   0.792425 0.541160 0.911282 -0.216268
H18   H     H_    0.814147 0.435459 0.881250 0.176001
H19   H     H_    0.749311 0.520620 0.964679 0.166133
H20   H     H_    0.817662 0.597348 0.011921 0.217940

loop_
_geom_bond_atom_site_label_1
_geom_bond_atom_site_label_2
_geom_bond_distance
_ccdc_geom_bond_type
C10   C32   1.397381 A    
C9    C11   1.398996 A    
C5    C11   1.466974 S    
C21   C22   1.411179 A    
Cu1   Cu2   2.636103 S    
C7    C29   1.409662 A    
C19   C21   1.406959 A    
N3    N4    1.197690 T    
C20   C26   1.403912 A    
O5    Cu1   1.943783 S    
O7    C6    1.283147 A    
C33   H11   1.109247 S    
H3    C25   1.081156 S    
C4    C30   1.409110 A    
C18   C22   1.406937 A    
C32   O16   1.381185 S    
C4    N1    1.440027 S    
C30   O14   1.390334 S    
C33   H10   1.114573 S    
C34   H13   1.114562 S    
O3    Cu1   1.937669 S    
C35   H15   1.114082 S    
C6    C12   1.466974 S    
C9    H7    1.083623 S    
C10   H8    1.083623 S    
C19   C25   1.403912 A    
C20   C22   1.406959 A    
H1    C23   1.081021 S    
O13   C33   1.412192 S    
H2    C24   1.081019 S    
O8    C5    1.283588 A    
C36   H20   1.109475 S    
C10   C12   1.398995 A    
O1    Cu1   1.937670 S    
O16   C36   1.406708 S    
O7    Cu1   1.943781 S    
O2    Cu2   1.937670 S    
O8    Cu2   1.943783 S    
O1    C1    1.275079 A    
C7    C11   1.401078 A    
C15   C17   1.402630 A    
C33   H9    1.110474 S    
C17   C23   1.404054 A    
C36   H18   1.114085 S    
C18   C24   1.404055 A    
C9    C31   1.397383 A    
C27   C28   1.190168 T    
C34   H14   1.109246 S    
O6    Cu2   1.943780 S    
C35   H17   1.109473 S    
C36   H19   1.112935 S    
Cu1   N4    1.980818 S    
C1    C27   1.408441 S    
C3    C31   1.408256 A    
C2    C28   1.408441 S    
C13   N1    1.371500 A    
O2    C2    1.275073 A    
C14   N2    1.371500 A    
C3    N2    1.440027 S    
C14   C20   1.402609 A    
C24   C25   1.395254 A    
C7    H5    1.081944 S    
O5    C5    1.283147 A    
C15   O11   1.349460 S    
C8    C12   1.401078 A    
C16   C18   1.402630 A    
C4    C32   1.408255 A    
Cu2   N3    1.980818 S    
C29   O13   1.390325 S    
C8    C30   1.409672 A    
O14   C34   1.412182 S    
O3    C2    1.275079 A    
C15   N1    1.371683 A    
C13   C19   1.402606 A    
C16   N2    1.371683 A    
C3    C29   1.409109 A    
C17   C21   1.406937 A    
O15   C35   1.406705 S    
C23   C26   1.395254 A    
H4    C26   1.081157 S    
O4    Cu2   1.937670 S    
C34   H12   1.110463 S    
C8    H6    1.081943 S    
O6    C6    1.283587 A    
C16   O12   1.349458 S    
C35   H16   1.112936 S    
C31   O15   1.381183 S    
C13   O9    1.349647 S    
O4    C1    1.275072 A    
C14   O10   1.349645 S    
