data_mof_unit_66997.cif
_audit_creation_date              2013-03-05T15:58:13-0500
_audit_creation_method            fapswitch 2.2
_symmetry_space_group_name_H-M    P1
_symmetry_Int_Tables_number       1
_space_group_crystal_system       triclinic
_cell_length_a                    8.219265
_cell_length_b                    12.671711
_cell_length_c                    14.357978
_cell_angle_alpha                 93.181179
_cell_angle_beta                  90.892393
_cell_angle_gamma                 98.475585
_cell_volume                      1476.37604986

loop_
_atom_site_label
_atom_site_type_symbol
_atom_site_description
_atom_site_fract_x
_atom_site_fract_y
_atom_site_fract_z
_atom_type_partial_charge
P1    P     P_3+3 0.054400 0.427280 0.286870 0.480663
O1    O     O_2   0.887370 0.460630 0.272300 -0.300390
O2    O     O_3   0.129410 0.451380 0.388510 -0.419761
O3    O     O_3   0.670210 0.653170 0.329170 -0.328659
O4    O     O_2   0.773836 0.578116 0.167711 -0.331087
O5    O     O_3   0.009932 0.288914 0.263564 -0.568364
O6    O     O_3   0.748252 0.777609 0.170339 -0.533104
C1    C     C_3   0.682867 0.944381 0.125097 -0.903557
H1    H     H_    0.602424 0.006223 0.139715 0.241491
H2    H     H_    0.813346 0.982329 0.132720 0.242882
P2    P     P_3+3 0.668300 0.742890 0.573060 0.456513
P3    P     P_3+3 0.131871 0.843164 0.378282 0.495674
O7    O     O_2   0.845380 0.761330 0.544970 -0.395304
O8    O     O_3   0.088930 0.704860 0.376040 -0.363547
O9    O     O_2   0.009250 0.887087 0.444953 -0.341458
O10   O     O_3   0.657532 0.767011 0.694583 -0.598169
O11   O     O_3   0.075828 0.883180 0.269189 -0.505608
C2    C     C_3   0.203498 0.872098 0.207561 0.285805
H3    H     H_    0.229079 0.788095 0.202870 0.069631
H4    H     H_    0.315716 0.927793 0.231189 0.032755
C3    C     C_3   0.152889 0.901100 0.110750 0.033914
H5    H     H_    0.054963 0.837939 0.080462 0.180604
H6    H     H_    0.103873 0.978402 0.116181 0.125078
C4    C     C_3   0.235893 0.757860 0.646276 0.426096
H7    H     H_    0.357643 0.733747 0.636581 0.107311
H8    H     H_    0.157069 0.733464 0.583000 0.110258
C5    C     C_3   0.252885 0.878935 0.661945 -0.835966
H9    H     H_    0.284122 0.903203 0.736109 0.296706
H10   H     H_    0.350523 0.919608 0.619407 0.187180
H11   H     H_    0.135672 0.906617 0.643047 0.275640
Ba1   Ba    Ba6+2 0.855630 0.555280 0.454520 1.612058
C6    C     C_3   0.959767 0.239163 0.345036 0.381645
H12   H     H_    0.859468 0.276413 0.377533 0.118123
H13   H     H_    0.064132 0.244707 0.395555 0.122161
C7    C     C_3   0.898284 0.121944 0.319540 -0.872578
H14   H     H_    0.785873 0.114780 0.274580 0.281500
H15   H     H_    0.870516 0.077635 0.383013 0.243276
H16   H     H_    0.992731 0.084654 0.281054 0.262577
C8    C     C_3   0.784572 0.733527 0.745888 0.801029
H17   H     H_    0.857676 0.682618 0.703914 0.059606
C9    C     C_3   0.708319 0.671202 0.825905 -0.907135
H18   H     H_    0.637262 0.722014 0.869691 0.291968
H19   H     H_    0.805407 0.647150 0.871073 0.221525
H20   H     H_    0.624538 0.599284 0.798182 0.257940
P4    P     P_3+3 0.135310 0.572810 0.713130 0.514133
O12   O     O_2   0.302330 0.539400 0.727760 -0.334418
O13   O     O_3   0.060300 0.548700 0.611500 -0.419300
O14   O     O_3   0.519500 0.346920 0.670840 -0.378440
O15   O     O_3   0.167366 0.712486 0.725755 -0.502311
P5    P     P_3+3 0.060409 0.155910 0.626362 0.451584
O16   O     O_3   0.614310 0.373510 0.452640 -0.362385
O17   O     O_3   0.100780 0.295230 0.623970 -0.397072
O18   O     O_2   0.190246 0.110916 0.565254 -0.383281
O19   O     O_3   0.102000 0.117995 0.738714 -0.500322
Ba2   Ba    Ba6+2 0.334200 0.444810 0.545490 1.582775
P6    P     P_3+3 0.658269 0.653771 0.207825 0.545785
C10   C     C_3   0.646963 0.854841 0.192307 1.074361
H21   H     H_    0.514550 0.821674 0.183059 -0.121138
H22   H     H_    0.658626 0.911520 0.051957 0.261207
O20   O     O_3   0.575400 0.626570 0.547370 -0.386746
C11   C     C_3   0.416765 0.258532 0.257010 0.794450
H23   H     H_    0.331638 0.299011 0.300576 0.051602
C12   C     C_3   0.317072 0.178277 0.187832 -0.951479
H24   H     H_    0.249237 0.113247 0.226427 0.214391
H25   H     H_    0.228377 0.217393 0.147756 0.253832
H26   H     H_    0.399361 0.142856 0.138293 0.296114
P7    P     P_3+3 0.527586 0.240001 0.426444 0.427121
O21   O     O_2   0.344320 0.238700 0.455090 -0.401607
O22   O     O_3   0.525780 0.205717 0.306556 -0.606208
C13   C     C_3   0.054763 0.193678 0.804164 0.486277
H27   H     H_    0.133548 0.272210 0.799301 0.133668
H28   H     H_    0.923792 0.203092 0.793314 0.008599
C14   C     C_3   0.076005 0.156451 0.902059 -0.860698
H29   H     H_    0.203378 0.139774 0.913537 0.289441
H30   H     H_    0.051813 0.219385 0.954658 0.224909
H31   H     H_    0.988494 0.082655 0.911928 0.270608
P8    P     P_3+3 0.538656 0.341748 0.791461 0.510980
C15   C     C_3   0.539831 0.139623 0.756661 0.443095
H32   H     H_    0.659706 0.175359 0.729020 0.018613
O23   O     O_2   0.411505 0.407058 0.835596 -0.370802
O24   O     O_3   0.469604 0.209836 0.818140 -0.474638
H33   H     H_    0.453007 0.114006 0.696883 0.126717
H34   H     H_    0.672984 0.063808 0.859172 0.280787
C16   C     C_3   0.569716 0.041910 0.807725 -0.881235
H35   H     H_    0.602022 0.979376 0.757024 0.243159
H36   H     H_    0.458023 0.009512 0.845352 0.280053
C17   C     C_R   0.996959 0.435078 0.059197 -0.076870
C18   C     C_R   0.183119 0.498885 0.197080 0.245600
C19   C     C_R   0.333168 0.557356 0.229204 -0.399592
C20   C     C_R   0.447051 0.603797 0.166898 0.194886
C21   C     C_R   0.404620 0.604041 0.073355 -0.189628
C22   C     C_R   0.247930 0.556162 0.039310 0.020839
C23   C     C_R   0.141261 0.495012 0.099120 -0.055398
H37   H     H_    0.367537 0.559096 0.302390 0.166914
C24   C     C_R   0.055159 0.507722 0.904515 -0.132735
C25   C     C_R   0.953771 0.438776 0.963197 -0.083792
C26   C     C_R   0.007980 0.507038 0.806766 0.272363
C27   C     C_R   0.855281 0.451946 0.776019 -0.563364
C28   C     C_R   0.750049 0.393787 0.835701 0.169757
C29   C     C_R   0.805552 0.378107 0.926185 0.234619
C30   C     C_R   0.197100 0.572059 0.947354 0.353285
H38   H     H_    0.496791 0.640423 0.027239 0.170040
H39   H     H_    0.815053 0.457030 0.704474 0.191311
H40   H     H_    0.916739 0.386246 0.103613 0.224928
C31   C     C_R   0.760697 0.176996 0.542895 -0.531648
C32   C     C_R   0.433763 0.812137 0.457463 -0.446529
C33   C     C_R   0.403070 0.995012 0.433767 -0.227235
C34   C     C_R   0.342597 0.886946 0.423416 0.141949
C35   C     C_R   0.578700 0.845170 0.510303 0.330105
C36   C     C_R   0.641012 0.956408 0.523227 -0.055009
C37   C     C_R   0.552589 0.031601 0.482619 -0.046569
C38   C     C_R   0.614905 0.141729 0.492766 0.275062
C39   C     C_R   0.851872 0.104527 0.579739 0.216238
C40   C     C_R   0.789714 0.995331 0.573578 -0.190457
H41   H     H_    0.329007 0.048992 0.404484 0.182572
H42   H     H_    0.861555 0.942593 0.606117 0.191345
H43   H     H_    0.809293 0.261326 0.547650 0.171843
H44   H     H_    0.384340 0.728050 0.449768 0.151402
O25   O     O_3   0.681811 0.895186 0.284428 -0.716055
H45   H     H_    0.602780 0.945464 0.298480 0.270043
Br1   Br    Br    0.920193 0.860206 0.801455 -0.568476
Br2   Br    Br    0.545747 0.364112 0.188835 -0.467362
O26   O     O_3   0.289370 0.910327 0.053093 -0.724643
H46   H     H_    0.252192 0.936358 0.993573 0.372154
Br3   Br    Br    0.689350 0.263395 0.992612 -0.513649
Br4   Br    Br    0.292527 0.707988 0.904084 -0.507345

loop_
_geom_bond_atom_site_label_1
_geom_bond_atom_site_label_2
_geom_bond_distance
_ccdc_geom_bond_type
O14   P8    1.742304 S    
O14   Ba2   2.795848 S    
O5    C6    1.398588 S    
C12   H25   1.110563 S    
C5    H10   1.100448 S    
C2    C3    1.524462 S    
C14   H30   1.109254 S    
C14   H29   1.109748 S    
O4    P6    1.541827 D    
C24   C25   1.434079 A    
C4    C5    1.523651 S    
O8    Ba1   2.787894 S    
Ba2   O21   2.864281 S    
C20   C21   1.382654 A    
O26   H46   0.992664 S    
C8    C9    1.521078 S    
P4    O12   1.509998 D    
P5    O19   1.751349 S    
C31   C39   1.388933 A    
C7    H15   1.106066 S    
C4    H8    1.110033 S    
C2    H3    1.113674 S    
C1    H22   1.111936 S    
P2    C35   1.850502 S    
C27   H39   1.082464 S    
C17   C23   1.406085 A    
P1    Ba1   3.400651 S    
P1    O1    1.509636 D    
C9    H18   1.108270 S    
C19   H37   1.082042 S    
C11   C12   1.519574 S    
C36   C37   1.424281 A    
O2    Ba2   2.804330 S    
H34   C16   1.109680 S    
C1    H1    1.110905 S    
C30   Br4   1.924507 S    
O12   Ba2   2.849542 S    
P5    O17   1.749973 S    
C33   C34   1.385217 A    
C13   H27   1.110713 S    
P8    O24   1.749616 S    
C17   H40   1.077480 S    
C36   C40   1.419485 A    
O16   Ba2   2.910194 S    
O17   Ba2   2.788481 S    
C10   O25   1.401013 S    
P1    C18   1.869220 S    
P6    C20   1.833871 S    
C12   H26   1.110800 S    
P2    Ba1   3.410398 S    
Ba1   O13   2.803766 S    
Ba2   O20   2.807351 S    
O3    P6    1.744011 S    
C5    H11   1.107632 S    
C9    H19   1.108052 S    
C31   H43   1.082302 S    
O6    P6    1.750200 S    
C26   C27   1.395608 A    
P4    O13   1.571524 S    
P5    O18   1.544894 D    
P7    O21   1.565618 D    
C6    C7    1.519315 S    
C7    H16   1.106235 S    
C4    H7    1.097224 S    
Ba1   O16   2.808018 S    
C8    H17   1.105802 S    
P3    C34   1.835613 S    
C15   H32   1.110835 S    
P1    O5    1.749832 S    
C11   Br2   1.905663 S    
P1    O2    1.571644 S    
C7    H14   1.108517 S    
C6    H13   1.106392 S    
Ba1   O20   2.910975 S    
C3    O26   1.399416 S    
C1    C10   1.528848 S    
P2    O10   1.760467 S    
C15   H33   1.110412 S    
C28   C29   1.404389 A    
O19   C13   1.405226 S    
P3    O9    1.542132 D    
P4    O15   1.749397 S    
C17   C25   1.423001 A    
C13   C14   1.522790 S    
O11   C2    1.400853 S    
O16   P7    1.754212 S    
C16   H35   1.110127 S    
O2    Ba1   2.914903 S    
C33   H41   1.077922 S    
C22   C30   1.412607 A    
C31   C38   1.390416 A    
P3    O8    1.734388 S    
C3    H6    1.112082 S    
C14   H31   1.109730 S    
C21   H38   1.082327 S    
P2    O20   1.578231 S    
C21   C22   1.408121 A    
O13   Ba2   2.915667 S    
C39   C40   1.400037 A    
P8    O23   1.547920 D    
C11   O22   1.402344 S    
C4    O15   1.395510 S    
C18   C23   1.439210 A    
C37   C38   1.412593 A    
C33   C37   1.409376 A    
O7    Ba1   2.864076 S    
C16   H36   1.110031 S    
C40   H42   1.075129 S    
O25   H45   0.990133 S    
C24   C26   1.449450 A    
C29   Br3   1.925568 S    
C8    Br1   1.938710 S    
P5    C39   1.843050 S    
Ba1   Ba2   4.561135 S    
C6    H12   1.105598 S    
P4    C26   1.873089 S    
C35   C36   1.427878 A    
P3    O11   1.748509 S    
P2    O7    1.504707 D    
C15   O24   1.408557 S    
C10   H21   1.110510 S    
C32   C34   1.395886 A    
C25   C29   1.419855 A    
C22   C23   1.415493 A    
C9    H20   1.108768 S    
P8    C28   1.854343 S    
C2    H4    1.111621 S    
C11   H23   1.108040 S    
O3    Ba1   2.796440 S    
O10   C8    1.397961 S    
C12   H24   1.105386 S    
C15   C16   1.521767 S    
P7    C38   1.829312 S    
C18   C19   1.399180 A    
P4    Ba2   3.401107 S    
C1    H2    1.109884 S    
C27   C28   1.389545 A    
C5    H9    1.107349 S    
O1    Ba1   2.849013 S    
C13   H28   1.109961 S    
P7    O22   1.751088 S    
C19   C20   1.394588 A    
C3    H5    1.112697 S    
O6    C10   1.401586 S    
C32   H44   1.081898 S    
C24   C30   1.430266 A    
C32   C35   1.399845 A    
