data_mof_unit_68025.cif
_audit_creation_date              2012-12-11T14:03:32-0500
_audit_creation_method            fapswitch 2.2
_symmetry_space_group_name_H-M    P1
_symmetry_Int_Tables_number       1
_space_group_crystal_system       triclinic
_cell_length_a                    6.9666
_cell_length_b                    11.522312
_cell_length_c                    18.785916
_cell_angle_alpha                 90.000537
_cell_angle_beta                  92.991841
_cell_angle_gamma                 89.999274
_cell_volume                      1505.9152292

loop_
_atom_site_label
_atom_site_type_symbol
_atom_type_description
_atom_site_fract_x
_atom_site_fract_y
_atom_site_fract_z
_atom_type_partial_charge
O1    O     O_R   0.330540 0.606360 0.598870 -0.557797
O2    O     O_R   0.669460 0.106360 0.401130 -0.557806
O3    O     O_R   0.026770 0.620470 0.750430 -0.516654
O4    O     O_R   0.973230 0.120470 0.249570 -0.516683
O5    O     O_R   0.856460 0.393640 0.750930 -0.521324
O6    O     O_R   0.143540 0.893640 0.249070 -0.521357
C1    C     C_R   0.199044 0.649598 0.773178 0.744978
C2    C     C_R   0.800954 0.149592 0.226820 0.744928
O7    O     O_R   0.000920 0.620350 0.599420 -0.529187
O8    O     O_R   0.999080 0.120350 0.400580 -0.529179
O9    O     O_R   0.830430 0.393520 0.598850 -0.506213
O10   O     O_R   0.169570 0.893520 0.401150 -0.506220
C3    C     C_R   0.167182 0.648117 0.574833 0.718192
C4    C     C_R   0.832816 0.148120 0.425165 0.718129
O11   O     O_R   0.356570 0.606480 0.750960 -0.567296
O12   O     O_R   0.643430 0.106480 0.249040 -0.567286
O13   O     O_3   0.176990 0.425580 0.674890 -0.354636
O14   O     O_3   0.823010 0.925580 0.325110 -0.354614
V1    V     V_3+5 0.902170 0.513810 0.674910 1.634509
V2    V     V_3+5 0.097830 0.013810 0.325090 1.634490
O15   O     O_R   0.500800 0.379530 0.599380 -0.519145
O16   O     O_R   0.499200 0.879530 0.400620 -0.519122
C5    C     C_R   0.667454 0.350134 0.575785 0.803011
C6    C     C_R   0.332546 0.850134 0.424215 0.802975
O17   O     O_R   0.526650 0.379650 0.750390 -0.545373
O18   O     O_R   0.473350 0.879650 0.249610 -0.545324
C7    C     C_R   0.698490 0.353758 0.775129 0.762977
C8    C     C_R   0.301513 0.853756 0.224872 0.762863
V3    V     V_3+5 0.402160 0.486190 0.674900 1.586332
V4    V     V_3+5 0.597840 0.986190 0.325100 1.586420
O19   O     O_3   0.677210 0.574420 0.674910 -0.390427
O20   O     O_3   0.322790 0.074420 0.325090 -0.390418
C9    C     C_R   0.645499 0.088478 0.887733 -0.168502
C10   C     C_R   0.354500 0.588472 0.112266 -0.168494
H1    H     H_    0.600750 0.969654 0.003032 0.130083
H2    H     H_    0.399134 0.469631 0.996965 0.130110
H3    H     H_    0.602513 0.998423 0.880937 0.146291
H4    H     H_    0.397498 0.498419 0.119061 0.146265
C11   C     C_R   0.712401 0.275006 0.837000 -0.162336
C12   C     C_R   0.287614 0.775003 0.163001 -0.162340
C13   C     C_R   0.825172 0.355079 0.187912 -0.137155
C14   C     C_R   0.174861 0.855091 0.812094 -0.137150
C15   C     C_R   0.854399 0.434177 0.132155 -0.070856
C16   C     C_R   0.145633 0.934187 0.867854 -0.070859
C17   C     C_R   0.876964 0.389062 0.063607 0.356650
C18   C     C_R   0.123030 0.889068 0.936398 0.356583
C19   C     C_R   0.787073 0.283191 0.042253 -0.065938
C20   C     C_R   0.212883 0.783184 0.957750 -0.065962
C21   C     C_R   0.747324 0.205238 0.098495 0.009803
C22   C     C_R   0.252618 0.705230 0.901507 0.009865
C23   C     C_R   0.745246 0.248542 0.968580 0.019331
C24   C     C_R   0.254705 0.748532 0.031422 0.019310
C25   C     C_R   0.679537 0.132701 0.956379 0.165095
C26   C     C_R   0.320409 0.632688 0.043621 0.165139
C27   C     C_R   0.650060 0.057870 0.012770 -0.038198
C28   C     C_R   0.349842 0.557851 0.987229 -0.038196
C29   C     C_R   0.680121 0.093481 0.082278 -0.062817
C30   C     C_R   0.319781 0.593464 0.917722 -0.062882
C31   C     C_R   0.758178 0.321252 0.906321 -0.126717
C32   C     C_R   0.241783 0.821240 0.093683 -0.126679
C33   C     C_R   0.664670 0.156834 0.827749 -0.047633
C34   C     C_R   0.335390 0.656837 0.172250 -0.047626
C35   C     C_R   0.785989 0.238105 0.170473 -0.163177
C36   C     C_R   0.213999 0.738109 0.829529 -0.163157
H5    H     H_    0.650559 0.031021 0.123259 0.128821
H6    H     H_    0.349324 0.531000 0.876739 0.128774
C37   C     C_2   0.826055 0.241990 0.480019 0.140066
C38   C     C_2   0.173937 0.741982 0.519977 0.140129
C39   C     C_2   0.675666 0.252569 0.524027 -0.249712
C40   C     C_2   0.324337 0.752569 0.475973 -0.249806
C41   C     C_2   0.644215 0.098942 0.756659 0.863217
O21   O     O_2   0.606221 0.154458 0.702343 -0.560675
O22   O     O_R   0.671888 0.978953 0.751982 -0.643908
H7    H     H_    0.658700 0.949392 0.701123 0.338045
C42   C     C_2   0.355955 0.598959 0.243341 0.863119
O23   O     O_2   0.394199 0.654474 0.297639 -0.560610
O24   O     O_R   0.328125 0.478986 0.248037 -0.643861
H8    H     H_    0.341405 0.449436 0.298897 0.338078
C43   C     C_2   0.527988 0.160173 0.529714 0.792374
O25   O     O_2   0.357614 0.185674 0.529582 -0.535662
O26   O     O_R   0.585310 0.044471 0.538322 -0.648200
H9    H     H_    0.472835 0.990294 0.544578 0.279191
C44   C     C_2   0.472042 0.660182 0.470294 0.792311
O27   O     O_2   0.642430 0.685704 0.470417 -0.535614
O28   O     O_R   0.414735 0.544465 0.461710 -0.648213
H10   H     H_    0.527230 0.490300 0.455450 0.279189
C45   C     C_2   0.820193 0.444613 0.909073 0.761639
O29   O     O_2   0.961861 0.473911 0.877956 -0.565872
O30   O     O_R   0.721861 0.526869 0.947188 -0.662233
H11   H     H_    0.778280 0.607624 0.943186 0.322424
C46   C     C_2   0.179686 0.944584 0.090938 0.761700
O31   O     O_2   0.037949 0.973829 0.122028 -0.565897
O32   O     O_R   0.278036 0.026883 0.052869 -0.662244
H12   H     H_    0.221549 0.107621 0.056867 0.322421
C47   C     C_2   0.850832 0.390277 0.263921 0.815280
O33   O     O_2   0.984777 0.351061 0.301034 -0.568050
O34   O     O_R   0.722414 0.467608 0.293089 -0.640002
H13   H     H_    0.755535 0.484536 0.345256 0.315853
C48   C     C_2   0.149264 0.890303 0.736084 0.815239
O35   O     O_2   0.015405 0.851052 0.698943 -0.568105
O36   O     O_R   0.277647 0.967690 0.706947 -0.639976
H14   H     H_    0.244583 0.984619 0.654776 0.315855
O37   O     O_3   0.029439 0.432232 0.028628 -0.633329
H15   H     H_    0.085257 0.367733 0.001414 0.282675
O38   O     O_3   0.970527 0.932238 0.971364 -0.633325
H16   H     H_    0.914673 0.867734 0.998563 0.282705
C49   C     C_2   0.877938 0.561790 0.143120 0.822430
O39   O     O_2   0.911984 0.602831 0.202389 -0.549716
O40   O     O_R   0.853978 0.636304 0.084615 -0.649520
H17   H     H_    0.862344 0.721145 0.098674 0.288381
C50   C     C_2   0.122107 0.061805 0.856897 0.822424
O41   O     O_2   0.088066 0.102856 0.797631 -0.549727
O42   O     O_R   0.146069 0.136309 0.915407 -0.649519
H18   H     H_    0.137695 0.221152 0.901354 0.288348
O43   O     O_3   0.968263 0.326296 0.482998 -0.610072
H19   H     H_    0.059162 0.311943 0.445187 0.340792
O44   O     O_3   0.031705 0.826276 0.516987 -0.610034
H20   H     H_    0.940798 0.811922 0.554795 0.340810

loop_
_geom_bond_atom_site_label_1
_geom_bond_atom_site_label_2
_ccdc_geom_bond_type
C45   O29   D    
O32   H12   S    
C21   C35   A    
C22   C36   A    
O22   H7    S    
C5    C39   S    
C47   O33   D    
O4    C2    A    
V1    O19   S    
O26   H9    S    
C6    C40   S    
C19   C21   A    
O24   H8    S    
O9    V1    S    
O36   H14   S    
C44   O27   D    
C12   C32   A    
O7    V1    S    
C20   C22   A    
O3    C1    A    
O13   V3    S    
C8    C12   S    
O12   V4    S    
O43   H19   S    
C18   O38   S    
O34   H13   S    
C10   C34   A    
C12   C34   A    
O7    C3    A    
C37   O43   S    
C24   C32   A    
O5    C7    A    
C30   H6    S    
O6    C8    A    
C50   O41   D    
C7    C11   S    
C49   O39   D    
O3    V1    S    
O14   V4    S    
C17   O37   S    
C13   C15   A    
C33   C41   S    
C25   C27   A    
C2    O12   A    
C9    C25   A    
C49   O40   S    
C14   C16   A    
C24   C26   A    
O11   V3    S    
C18   C20   A    
C17   C19   A    
O17   V3    S    
C11   C33   A    
C26   C28   A    
H1    C27   S    
C22   C30   A    
O8    C4    A    
O8    V2    S    
C46   O31   D    
C43   O26   S    
C19   C23   A    
C1    O11   A    
C16   C18   A    
O28   H10   S    
O15   V3    S    
C9    H3    S    
C37   C39   D    
C42   O23   D    
H2    C28   S    
C38   O44   S    
C46   O32   S    
C42   O24   S    
C48   O35   D    
C4    C37   S    
C11   C31   A    
O10   V2    S    
O1    V3    S    
C50   O42   S    
C15   C49   S    
C40   C44   S    
C15   C17   A    
C9    C33   A    
C48   O36   S    
C10   C26   A    
O15   C5    A    
O16   C6    A    
C34   C42   S    
C39   C43   S    
O1    C3    A    
C13   C35   A    
C14   C36   A    
C41   O22   S    
O42   H18   S    
V2    O20   S    
C32   C46   S    
O16   V4    S    
C44   O28   S    
C10   H4    S    
C29   H5    S    
C21   C29   A    
C47   O34   S    
O18   V4    S    
O5    V1    S    
O17   C7    A    
O6    V2    S    
O38   H16   S    
O10   C6    A    
O18   C8    A    
O2    V4    S    
C27   C29   A    
C41   O21   D    
V3    O19   S    
C14   C48   S    
V4    O20   S    
C13   C47   S    
O9    C5    A    
O13   V1    S    
C28   C30   A    
O14   V2    S    
O2    C4    A    
C31   C45   S    
C1    C36   S    
C2    C35   S    
C43   O25   D    
O4    V2    S    
C16   C50   S    
C20   C24   A    
C23   C31   A    
C38   C40   D    
O40   H17   S    
O37   H15   S    
C45   O30   S    
C23   C25   A    
O30   H11   S    
O44   H20   S    
C3    C38   S    
