data_mof_unit_5421.cif
_audit_creation_date              2012-12-10T19:41:55-0500
_audit_creation_method            fapswitch 2.2
_symmetry_space_group_name_H-M    P1
_symmetry_Int_Tables_number       1
_space_group_crystal_system       triclinic
_cell_length_a                    18.17994
_cell_length_b                    18.317174
_cell_length_c                    18.443525
_cell_angle_alpha                 120.215878
_cell_angle_beta                  89.624066
_cell_angle_gamma                 119.741872
_cell_volume                      4359.60773483

loop_
_atom_site_label
_atom_site_type_symbol
_atom_type_description
_atom_site_fract_x
_atom_site_fract_y
_atom_site_fract_z
_atom_type_partial_charge
C1    C     C_R   0.140510 0.780196 0.141040 0.940481
C2    C     C_R   0.807462 0.109169 0.805577 -0.120948
C3    C     C_R   0.758337 0.055115 0.841401 -0.261289
C4    C     C_R   0.861609 0.220414 0.860325 0.790435
C5    C     C_R   0.700677 0.946960 0.787746 0.522038
C6    C     C_R   0.692051 0.891211 0.696355 -0.174692
C7    C     C_R   0.739817 0.947959 0.663528 -0.123427
C8    C     C_3   0.758048 0.935979 0.580549 0.373383
C9    C     C_3   0.829744 0.055591 0.641361 0.345623
C10   C     C_R   0.826073 0.507299 0.270218 -0.079960
C11   C     C_R   0.800121 0.494963 0.191736 -0.233884
C12   C     C_R   0.796654 0.687528 0.802123 0.454329
C13   C     C_R   0.715620 0.473730 0.163740 0.400928
C14   C     C_R   0.663253 0.476425 0.220375 0.427708
C15   C     C_R   0.694817 0.497385 0.303000 -0.207898
C16   C     C_R   0.140264 0.501834 0.860455 0.815287
C17   C     C_R   0.773985 0.506281 0.324362 -0.210276
C18   C     C_3   0.856256 0.589033 0.406869 0.787834
C19   C     C_3   0.913936 0.588161 0.343483 0.857675
C20   C     C_R   0.162312 0.947633 0.217971 -0.006379
C21   C     C_R   0.198303 0.891634 0.201878 -0.246382
C22   C     C_R   0.290311 0.945182 0.246671 0.411296
C23   C     C_R   0.759407 0.586889 0.777377 -0.050083
C24   C     C_R   0.344520 0.053723 0.300613 0.428231
C25   C     C_R   0.306439 0.108213 0.309384 -0.299989
C26   C     C_R   0.214285 0.053139 0.270859 -0.000145
C27   C     C_3   0.160009 0.058043 0.213896 -0.184010
C28   C     C_R   0.859527 0.499671 0.139434 0.952532
C29   C     C_3   0.101135 0.938161 0.155240 0.318785
C30   C     C_R   0.287199 0.576452 0.237315 0.042433
C31   C     C_R   0.196039 0.498625 0.193677 -0.081528
C32   C     C_R   0.159601 0.414049 0.198820 -0.340195
C33   C     C_R   0.211546 0.412911 0.253858 0.542596
C34   C     C_R   0.780960 0.573830 0.840347 0.047168
C35   C     C_R   0.303300 0.494974 0.300243 -0.195006
C36   C     C_R   0.339072 0.573645 0.288055 -0.207885
C37   C     C_3   0.406458 0.690273 0.345647 0.897074
C38   C     C_3   0.346122 0.692674 0.287962 -0.210821
C39   C     C_R   0.277145 0.523082 0.827751 -0.074913
C40   C     C_R   0.140148 0.500841 0.140521 0.929656
C41   C     C_R   0.197504 0.512068 0.806174 -0.107662
C42   C     C_R   0.176751 0.514967 0.733741 -0.073691
C43   C     C_R   0.232892 0.517194 0.679146 -0.028632
C44   C     C_R   0.303408 0.507898 0.694581 -0.062975
C45   C     C_R   0.784656 0.487379 0.809201 -0.175526
C46   C     C_R   0.325886 0.516518 0.771442 -0.056686
C47   C     C_3   0.357348 0.466958 0.795034 -0.205848
C48   C     C_3   0.303584 0.477375 0.861860 0.369198
C49   C     C_R   0.642062 0.501687 0.362034 0.901825
C50   C     C_R   0.359685 0.501548 0.639285 0.805039
C51   C     C_R   0.638365 0.779640 0.639800 0.811188
C52   C     C_R   0.854099 0.495773 0.861178 0.807800
C53   C     C_R   0.360389 0.219710 0.360456 0.908112
C54   C     C_R   0.359680 0.498698 0.359092 0.840648
C55   C     C_R   0.642513 0.500865 0.639063 0.925941
C56   C     C_R   0.728814 0.397496 0.723003 -0.142584
C57   C     C_R   0.792237 0.644867 0.929518 -0.119099
C58   C     C_R   0.813859 0.742794 0.956077 -0.197399
C59   C     C_R   0.827659 0.767922 0.893505 -0.094976
C60   C     C_2   0.705846 0.296468 0.700840 0.505930
C61   C     C_2   0.674602 0.894759 0.514590 0.312346
C62   C     C_3   0.984469 0.177461 0.720318 -0.104562
C63   C     C_2   0.811196 0.115958 0.620231 0.430633
C64   C     C_3   0.659354 0.360129 0.012753 -0.206190
C65   C     C_3   0.511993 0.365556 0.157004 -0.273627
C66   C     C_3   0.910603 0.744668 0.547963 -0.267086
C67   C     C_R   0.686463 0.403343 0.663861 0.475161
C68   C     C_3   0.796204 0.508345 0.479775 -0.208840
C69   C     C_3   0.016681 0.769338 0.413327 -0.249492
C70   C     C_3   0.041356 0.606046 0.401307 -0.193459
C71   C     C_3   0.367763 0.877735 0.175282 -0.206013
C72   C     C_2   0.767452 0.611502 0.989805 0.544634
C73   C     C_3   0.489995 0.125107 0.299035 -0.208164
C74   C     C_2   0.111858 0.106358 0.261379 0.627394
C75   C     C_2   0.215159 0.105974 0.169058 0.370627
C76   C     C_2   0.006594 0.879252 0.156794 0.438905
C77   C     C_3   0.056630 0.886073 0.009154 -0.350537
C78   C     C_R   0.700825 0.498539 0.691986 -0.193138
C79   C     C_3   0.117330 0.340348 0.314390 -0.184820
C80   C     C_3   0.341732 0.697292 0.462545 -0.364766
C81   C     C_3   0.504451 0.656595 0.266731 -0.188976
C82   C     C_2   0.303665 0.747896 0.337594 0.414008
C83   C     C_2   0.820371 0.816000 0.047496 0.469662
C84   C     C_2   0.390796 0.731316 0.234197 0.457873
C85   C     C_2   0.096150 0.513181 0.715037 0.566715
C86   C     C_2   0.222165 0.535511 0.611006 0.415137
C87   C     C_2   0.320745 0.356252 0.720210 0.575797
C88   C     C_2   0.458461 0.535107 0.835725 0.420193
C89   C     C_R   0.798876 0.051409 0.716272 -0.140469
C90   C     C_3   0.246384 0.338150 0.873091 -0.256534
C91   C     C_2   0.357385 0.557427 0.959791 0.356741
C92   C     C_2   0.872611 0.875294 0.921417 0.483224
C93   C     C_3   0.786313 0.759330 0.731508 -0.262935
C94   C     C_3   0.671266 0.295023 0.520374 -0.091637
C95   C     C_3   0.574616 0.889264 0.824466 -0.267600
C96   C     C_3   0.815451 0.865737 0.471531 -0.036192
H1    H     H_    0.090040 0.349902 0.162388 0.197311
H2    H     H_    0.717286 0.362774 0.991294 0.129220
H3    H     H_    0.610101 0.335529 0.956243 0.213668
H4    H     H_    0.449820 0.360519 0.142808 0.198410
H5    H     H_    0.506766 0.338999 0.200576 0.122199
H6    H     H_    0.515057 0.313310 0.092747 0.161654
H7    H     H_    0.968636 0.741740 0.559837 0.167422
H8    H     H_    0.867901 0.725024 0.586957 0.202602
H9    H     H_    0.937344 0.825382 0.573783 0.192163
H10   H     H_    0.746087 0.427759 0.422640 0.172563
H11   H     H_    0.765413 0.551880 0.504755 0.166406
H12   H     H_    0.763325 0.096184 0.910701 0.191257
H13   H     H_    0.818636 0.506464 0.534220 0.181596
H14   H     H_    0.076341 0.815075 0.400434 0.203801
H15   H     H_    0.041445 0.770044 0.468301 0.112076
H16   H     H_    0.982368 0.808957 0.433866 0.207623
H17   H     H_    0.035824 0.642534 0.468768 0.159214
H18   H     H_    0.091327 0.664383 0.391444 0.205712
H19   H     H_    0.066573 0.560021 0.396048 0.189083
H20   H     H_    0.368410 0.914358 0.141651 0.095918
H21   H     H_    0.333422 0.794287 0.123716 0.217279
H22   H     H_    0.437599 0.907390 0.204492 0.161573
H23   H     H_    0.726386 0.291219 0.752145 0.042257
H24   H     H_    0.796830 0.666802 0.061198 0.045758
H25   H     H_    0.546036 0.207812 0.339977 0.192153
H26   H     H_    0.457416 0.106637 0.235577 0.094536
H27   H     H_    0.520872 0.082376 0.285049 0.154049
H28   H     H_    0.060828 0.099447 0.223083 0.091207
H29   H     H_    0.257124 0.082228 0.137435 0.087903
H30   H     H_    0.955963 0.804915 0.097278 0.067850
H31   H     H_    0.092544 0.897566 0.963059 0.201407
H32   H     H_    0.041294 0.944861 0.041008 0.177974
H33   H     H_    0.993477 0.807967 0.969153 0.180382
H34   H     H_    0.608630 0.848981 0.516707 0.154498
H35   H     H_    0.154169 0.417294 0.379220 0.135899
H36   H     H_    0.094573 0.282174 0.328948 0.212159
H37   H     H_    0.056640 0.324940 0.279110 0.158461
H38   H     H_    0.350921 0.653139 0.481623 0.163141
H39   H     H_    0.275462 0.647602 0.411471 0.168751
H40   H     H_    0.340983 0.757838 0.522323 0.207492
H41   H     H_    0.455339 0.615728 0.202067 0.184066
H42   H     H_    0.499889 0.600718 0.277948 0.205496
H43   H     H_    0.572193 0.698362 0.262622 0.215049
H44   H     H_    0.346408 0.829311 0.390773 0.117001
H45   H     H_    0.982194 0.181923 0.782468 0.123541
H46   H     H_    0.775595 0.787317 0.079717 0.071739
H47   H     H_    0.447159 0.810977 0.267860 0.093378
H48   H     H_    0.076219 0.552296 0.769319 0.014874
H49   H     H_    0.234263 0.499113 0.549175 0.077522
H50   H     H_    0.343013 0.315875 0.730057 0.067875
H51   H     H_    0.492659 0.617381 0.884389 0.086838
H52   H     H_    0.310164 0.345411 0.866657 0.174592
H53   H     H_    0.191916 0.254937 0.834471 0.165563
H54   H     H_    0.248819 0.372492 0.943478 0.200532
H55   H     H_    0.352499 0.622266 0.997866 0.122216
H56   H     H_    0.980925 0.237768 0.723693 0.205076
H57   H     H_    0.931541 0.909086 0.903770 0.045502
H58   H     H_    0.750537 0.717550 0.660597 0.166750
H59   H     H_    0.843700 0.837190 0.753749 0.166688
H60   H     H_    0.739808 0.766452 0.769795 0.225289
H61   H     H_    0.734294 0.307978 0.547821 0.154897
H62   H     H_    0.686471 0.342381 0.494848 0.113614
H63   H     H_    0.627103 0.213177 0.463232 0.205773
H64   H     H_    0.537344 0.846824 0.853175 0.194246
H65   H     H_    0.531525 0.845158 0.755331 0.137332
H66   H     H_    0.586793 0.966565 0.865396 0.141879
H67   H     H_    0.050594 0.193354 0.713871 0.204418
H68   H     H_    0.847577 0.938229 0.475697 0.199535
H69   H     H_    0.754589 0.802745 0.412049 0.169791
H70   H     H_    0.863528 0.843984 0.462959 0.173534
H71   H     H_    0.760008 0.128717 0.639943 0.062079
H72   H     H_    0.626266 0.300360 0.026324 0.091052
O1    O     O_3   1.000000 0.500000 0.000000 -0.507592
O2    O     O_R   0.323450 0.268330 0.384170 -0.581489
O3    O     O_R   0.444860 0.560620 0.384150 -0.641478
O4    O     O_R   0.055050 0.731580 0.115780 -0.649682
O5    O     O_R   0.615780 0.439200 0.555040 -0.643988
O6    O     O_R   0.323420 0.439190 0.384160 -0.606360
O7    O     O_R   0.615760 0.560630 0.676470 -0.621987
O8    O     O_R   0.615740 0.731500 0.676460 -0.627316
O9    O     O_R   0.444900 0.268330 0.384170 -0.626882
O10   O     O_R   0.615750 0.560630 0.384150 -0.592889
O11   O     O_R   0.323430 0.439200 0.555040 -0.625385
O12   O     O_R   0.055090 0.439280 0.823480 -0.652011
O13   O     O_R   0.884220 0.268410 0.823490 -0.681276
O14   O     O_R   0.176520 0.560720 0.944920 -0.661749
O15   O     O_R   0.884200 0.439290 0.115800 -0.636611
O16   O     O_R   0.176530 0.560720 0.115800 -0.586206
O17   O     O_R   0.884180 0.560710 0.944910 -0.645844
O18   O     O_R   0.055100 0.439290 0.115810 -0.647233
O19   O     O_R   0.884190 0.439280 0.823480 -0.653990
O20   O     O_2   0.661371 0.217114 0.626516 -0.535146
O21   O     O_2   0.680567 0.911103 0.457567 -0.523349
O22   O     O_3   0.917360 0.078051 0.645978 -0.571765
O23   O     O_R   0.884180 0.560710 0.115790 -0.606536
O24   O     O_2   0.851679 0.148248 0.578822 -0.484565
O25   O     O_3   0.686193 0.458847 0.085421 -0.534068
O26   O     O_3   0.585708 0.468375 0.198333 -0.569255
O27   O     O_3   0.858797 0.680617 0.457410 -0.666701
O28   O     O_3   0.871046 0.554485 0.455908 -0.646141
O29   O     O_3   0.959758 0.670756 0.333590 -0.642675
O30   O     O_3   0.958120 0.539579 0.334333 -0.603766
O31   O     O_3   0.326682 0.892614 0.242299 -0.568712
O32   O     O_2   0.712422 0.521089 0.959770 -0.527126
O33   O     O_3   0.432713 0.105360 0.348905 -0.537090
O34   O     O_R   0.176500 0.731590 0.115790 -0.623519
O35   O     O_2   0.129036 0.152619 0.341751 -0.507343
O36   O     O_2   0.213645 0.171261 0.167821 -0.550420
O37   O     O_2   0.987579 0.910170 0.224951 -0.558309
O38   O     O_3   0.110297 0.892117 0.069796 -0.641591
O39   O     O_3   0.172674 0.331110 0.261152 -0.556668
O40   O     O_3   0.415240 0.746065 0.437896 -0.611702
O41   O     O_3   0.494585 0.729127 0.338242 -0.599643
O42   O     O_2   0.222551 0.703629 0.318422 -0.603996
O43   O     O_2   0.876709 0.908494 0.088808 -0.540937
O44   O     O_2   0.364508 0.674796 0.153485 -0.570651
O45   O     O_R   0.884220 0.268420 0.944930 -0.643535
O46   O     O_2   0.049416 0.464869 0.639037 -0.508797
O47   O     O_2   0.202778 0.595361 0.624931 -0.571339
O48   O     O_2   0.265602 0.310629 0.649536 -0.540964
O49   O     O_2   0.502916 0.499541 0.814521 -0.551555
O50   O     O_3   0.225981 0.383248 0.840305 -0.619630
O51   O     O_2   0.406908 0.550487 0.996424 -0.558788
O52   O     O_2   0.841257 0.924297 0.959351 -0.497109
O53   O     O_3   0.818450 0.706156 0.738011 -0.670192
O54   O     O_3   0.625122 0.314708 0.581968 -0.543580
O55   O     O_3   0.655820 0.897075 0.826238 -0.563701
O56   O     O_3   0.499960 0.499910 0.499960 -0.516405
O57   O     O_3   0.793769 0.876208 0.548394 -0.577808
O58   O     O_R   0.615770 0.439200 0.384160 -0.707309
O59   O     O_R   0.444870 0.560630 0.676470 -0.640496
O60   O     O_R   0.615730 0.731500 0.555020 -0.635979
Zn1   Zn    Zn3+2 0.956630 0.413250 0.869870 0.952692
Zn2   Zn    Zn3+2 0.130130 0.586750 0.043370 1.018913
Zn3   Zn    Zn3+2 0.956630 0.413250 0.043380 1.000467
Zn4   Zn    Zn3+2 0.956610 0.586750 0.043370 1.009688
Zn5   Zn    Zn3+2 0.543330 0.586660 0.630080 0.991501
Zn6   Zn    Zn3+2 0.543320 0.586660 0.456570 0.991370
Zn7   Zn    Zn3+2 0.369830 0.413160 0.456580 1.044678
Zn8   Zn    Zn3+2 0.543350 0.413170 0.456590 0.956756

loop_
_geom_bond_atom_site_label_1
_geom_bond_atom_site_label_2
_ccdc_geom_bond_type
C37   O41   S    
C74   H28   S    
C86   H49   S    
C1    C21   S    
C94   H63   S    
C87   H50   S    
C27   C29   S    
C76   H30   S    
C41   C42   A    
C81   O41   S    
C35   C36   A    
C65   H5    S    
C90   H54   S    
O6    Zn7   S    
C66   O27   S    
O4    Zn4   S    
O58   Zn8   S    
C7    C8    S    
C39   C41   A    
C29   C76   S    
C48   O50   S    
C49   O58   A    
C88   O49   D    
C15   C49   S    
C81   H41   S    
C12   C23   A    
C26   C27   S    
C80   H39   S    
C62   H56   S    
C47   C88   S    
C5    O55   S    
C36   C37   S    
C28   O15   A    
C25   C53   S    
C49   O10   A    
C95   H65   S    
C30   C31   A    
C69   H16   S    
C16   O14   A    
C40   O18   A    
C74   O35   D    
C10   C17   A    
C58   C83   S    
C63   O24   D    
C7    C89   A    
C80   H38   S    
C32   H1    S    
C30   C38   S    
C60   H23   S    
C15   C17   A    
C18   C19   S    
C92   O52   D    
O56   Zn6   S    
C86   O47   D    
C55   O5    A    
C90   H52   S    
C31   C40   S    
C12   C59   A    
O14   Zn2   S    
C64   H3    S    
C47   C48   S    
C45   C56   A    
O13   Zn1   S    
C8    C9    S    
C73   H27   S    
C48   C91   S    
C34   C57   A    
C82   H44   S    
C87   O48   D    
C92   H57   S    
C68   H11   S    
C6    C51   S    
C27   C74   S    
O60   Zn6   S    
O45   Zn3   S    
O5    Zn8   S    
C8    C61   S    
O34   Zn2   S    
C64   H2    S    
C14   O26   S    
C94   H62   S    
C13   O25   S    
C21   C22   A    
C38   C82   S    
C35   C54   S    
C69   O29   S    
C93   H58   S    
C50   O59   A    
C67   C78   A    
C68   H10   S    
C65   H6    S    
C90   H53   S    
C79   H37   S    
C1    O34   A    
C54   O3    A    
C85   H48   S    
C70   H19   S    
C44   C46   A    
C45   C52   S    
O9    Zn8   S    
C20   C29   S    
C93   H60   S    
C70   H17   S    
C81   H42   S    
O59   Zn5   S    
O12   Zn1   S    
C19   O29   S    
C71   H21   S    
C18   O28   S    
C95   H64   S    
C66   H8    S    
C22   O31   S    
C93   H59   S    
C24   C25   A    
C62   O22   S    
C95   H66   S    
C9    C89   S    
O10   Zn6   S    
C55   C78   S    
O23   Zn4   S    
O18   Zn3   S    
C84   H47   S    
O7    Zn5   S    
C25   C26   A    
C73   O33   S    
C70   H18   S    
C29   O38   S    
C96   H68   S    
C75   H29   S    
C47   C87   S    
C2    C89   A    
C2    C4    S    
C43   C44   A    
C37   C38   S    
C72   O32   D    
C69   H14   S    
C62   H67   S    
C14   C15   A    
C10   C19   S    
C75   O36   D    
C23   C34   A    
C79   H35   S    
C64   O25   S    
C72   H24   S    
C17   C18   S    
C60   O20   D    
C77   O38   S    
C68   O28   S    
C42   C85   S    
C77   H33   S    
C23   C78   A    
C8    O57   S    
C55   O7    A    
C77   H32   S    
C34   C45   A    
C53   O2    A    
C39   C46   A    
C61   H34   S    
O11   Zn7   S    
C52   O19   A    
C68   H13   S    
O8    Zn5   S    
C94   H61   S    
C73   H25   S    
O56   Zn5   S    
C91   O51   D    
C4    O13   A    
C37   O40   S    
C96   H70   S    
C52   O17   A    
C62   H45   S    
C9    O22   S    
C28   O23   A    
O15   Zn3   S    
C76   O37   D    
C65   O26   S    
C44   C50   S    
C81   H43   S    
O17   Zn4   S    
C46   C47   S    
C33   O39   S    
C19   O30   S    
C4    O45   A    
C71   H22   S    
C38   C84   S    
C18   O27   S    
C9    C63   S    
C43   C86   S    
C66   H7    S    
O56   Zn7   S    
C31   C32   A    
C65   H4    S    
C3    C5    A    
C53   O9    A    
C83   H46   S    
C24   O33   S    
C84   O44   D    
C71   O31   S    
C6    C7    A    
C3    H12   S    
C56   C67   A    
O2    Zn7   S    
C1    O4    A    
C80   H40   S    
O1    Zn4   S    
C30   C36   A    
C32   C33   A    
C54   O6    A    
C2    C3    A    
C58   C59   A    
O16   Zn2   S    
C64   H72   S    
C85   O46   D    
C96   O57   S    
C77   H31   S    
C91   H55   S    
C11   C13   A    
C57   C58   A    
C5    C6    A    
C20   C26   A    
C11   C28   S    
C79   O39   S    
C79   H36   S    
C67   O54   S    
C63   H71   S    
C33   C35   A    
C88   H51   S    
O1    Zn1   S    
C71   H20   S    
C50   O11   A    
C22   C24   A    
C59   C92   S    
C80   O40   S    
C57   C72   S    
O56   Zn8   S    
C51   O8    A    
C69   H15   S    
C95   O55   S    
C12   O53   S    
C90   O50   S    
C10   C11   A    
C27   C75   S    
O19   Zn1   S    
O1    Zn3   S    
C56   C60   S    
C20   C21   A    
C70   O30   S    
C73   H26   S    
C42   C43   A    
C51   O60   A    
C94   O54   S    
C96   H69   S    
C93   O53   S    
C66   H9    S    
C61   O21   D    
C82   O42   D    
O1    Zn2   S    
C13   C14   A    
C16   C41   S    
C83   O43   D    
C16   O12   A    
C39   C48   S    
C40   O16   A    
O3    Zn6   S    
