data_mof_unit_24531.cif
_audit_creation_date              2012-12-10T17:55:05-0500
_audit_creation_method            fapswitch 2.2
_symmetry_space_group_name_H-M    P1
_symmetry_Int_Tables_number       1
_space_group_crystal_system       triclinic
_cell_length_a                    8.854532
_cell_length_b                    10.79276
_cell_length_c                    9.538827
_cell_angle_alpha                 90.521188
_cell_angle_beta                  98.489772
_cell_angle_gamma                 89.96649
_cell_volume                      901.550056685

loop_
_atom_site_label
_atom_site_type_symbol
_atom_type_description
_atom_site_fract_x
_atom_site_fract_y
_atom_site_fract_z
_atom_type_partial_charge
C1    C     C_R   0.501360 0.262696 0.499771 0.764988
C2    C     C_R   0.498640 0.737304 0.500229 0.764988
C3    C     C_R   0.204335 0.501508 0.463832 0.812719
C4    C     C_R   0.795665 0.498492 0.536168 0.812719
C5    C     C_2   0.039817 0.493136 0.443897 -0.215663
C6    C     C_2   0.960183 0.506863 0.556103 -0.215663
C7    C     C_R   0.628957 0.063803 0.463026 -0.088118
C8    C     C_R   0.371043 0.936197 0.536973 -0.088118
C9    C     C_R   0.626367 0.933726 0.463240 -0.030113
C10   C     C_R   0.373632 0.066274 0.536760 -0.030113
C11   C     C_R   0.498252 0.871449 0.500106 -0.160868
C12   C     C_R   0.501748 0.128551 0.499893 -0.160868
C13   C     C_R   0.404675 0.422968 0.059323 0.073145
C14   C     C_R   0.595325 0.577032 0.940677 0.073146
C15   C     C_R   0.405000 0.423443 0.910867 -0.029750
C16   C     C_R   0.595000 0.576557 0.089133 -0.029750
Cu1   Cu    Cu3+1 0.500000 0.500020 0.640660 0.995904
Cu2   Cu    Cu3+1 0.500000 0.499980 0.359340 0.995904
H1    H     H_    0.329369 0.362267 0.842529 0.132737
H2    H     H_    0.670631 0.637733 0.157471 0.132737
N1    N     N_R   0.500040 0.500030 0.852080 -0.181706
N2    N     N_R   0.499960 0.499970 0.147920 -0.181705
O1    O     O_R   0.499990 0.319660 0.618740 -0.585975
O2    O     O_R   0.500010 0.680340 0.381260 -0.585975
O3    O     O_R   0.499990 0.319630 0.381170 -0.564591
O4    O     O_R   0.500010 0.680370 0.618830 -0.564590
O5    O     O_R   0.274840 0.500010 0.591370 -0.555942
O6    O     O_R   0.725160 0.499990 0.408630 -0.555941
O7    O     O_R   0.274830 0.499980 0.353800 -0.602834
O8    O     O_R   0.725170 0.500020 0.646200 -0.602833
C17   C     C_2   0.970849 0.457745 0.296905 0.445450
H3    H     H_    0.990941 0.515093 0.208591 0.059348
O9    O     O_2   0.900593 0.360728 0.273110 -0.498147
C18   C     C_2   0.029151 0.542255 0.703095 0.445451
H4    H     H_    0.009059 0.484907 0.791409 0.059348
O10   O     O_2   0.099407 0.639272 0.726890 -0.498146
C19   C     C_2   0.765137 0.133765 0.430807 0.481690
H5    H     H_    0.789074 0.225790 0.475004 0.076758
O11   O     O_2   0.850205 0.091070 0.352903 -0.486961
C20   C     C_2   0.234863 0.866235 0.569193 0.481689
H6    H     H_    0.210926 0.774210 0.524996 0.076759
O12   O     O_2   0.149795 0.908930 0.647096 -0.486961
C21   C     C_1   0.757699 0.862785 0.433234 0.373057
N3    N     N_1   0.861915 0.805897 0.409279 -0.273729
C22   C     C_1   0.242301 0.137215 0.566766 0.373057
N4    N     N_1   0.138085 0.194103 0.590721 -0.273729
C23   C     C_1   0.303112 0.338756 0.115062 0.283161
N5    N     N_1   0.221270 0.270419 0.158919 -0.224564
C24   C     C_1   0.696888 0.661244 0.884938 0.283161
N6    N     N_1   0.778730 0.729581 0.841081 -0.224564

loop_
_geom_bond_atom_site_label_1
_geom_bond_atom_site_label_2
_ccdc_geom_bond_type
C15   H1    S    
C21   N3    T    
C17   O9    D    
C19   H5    S    
C14   C16   A    
C23   N5    T    
C16   H2    S    
C6    C18   S    
C10   C22   S    
C3    O5    A    
Cu1   Cu2   S    
C7    C19   S    
C2    O4    A    
Cu2   O7    S    
C22   N4    T    
C1    O3    A    
Cu1   O8    S    
C9    C11   A    
Cu1   O1    S    
Cu2   O3    S    
C10   C12   A    
C8    C11   A    
Cu2   O2    S    
Cu1   O4    S    
C14   N1    A    
C4    C6    S    
C20   H6    S    
C4    O6    A    
C13   N2    A    
C1    O1    A    
C18   O10   D    
C13   C15   A    
C2    O2    A    
C5    C6    D    
C19   O11   D    
C24   N6    T    
C4    O8    A    
C7    C12   A    
C9    C21   S    
C14   C24   S    
C2    C11   S    
Cu1   O5    S    
C7    C9    A    
C15   N1    A    
Cu2   O6    S    
C8    C10   A    
C18   H4    S    
C3    O7    A    
C16   N2    A    
C8    C20   S    
C5    C17   S    
Cu2   N2    S    
C13   C23   S    
C1    C12   S    
C17   H3    S    
C20   O12   D    
C3    C5    S    
Cu1   N1    S    
