data_mof_unit_54997.cif
_audit_creation_date              2012-12-11T14:24:59-0500
_audit_creation_method            fapswitch 2.2
_symmetry_space_group_name_H-M    P1
_symmetry_Int_Tables_number       1
_space_group_crystal_system       triclinic
_cell_length_a                    19.232481
_cell_length_b                    11.293638
_cell_length_c                    18.654125
_cell_angle_alpha                 90.107708
_cell_angle_beta                  90.358899
_cell_angle_gamma                 90.266474
_cell_volume                      4051.63252617

loop_
_atom_site_label
_atom_site_type_symbol
_atom_type_description
_atom_site_fract_x
_atom_site_fract_y
_atom_site_fract_z
_atom_type_partial_charge
C1    C     C_R   0.728687 0.369690 0.143831 0.581444
C2    C     C_R   0.272674 0.366034 0.857538 0.622854
C3    C     C_R   0.228687 0.869690 0.143831 0.581439
C4    C     C_R   0.772674 0.866034 0.857538 0.622852
C5    C     C_3   0.507146 0.054931 0.018817 0.282976
C6    C     C_3   0.555131 0.077865 0.954659 0.273147
C7    C     C_3   0.007146 0.554931 0.018817 0.282976
C8    C     C_3   0.055131 0.577865 0.954659 0.273146
C9    C     C_R   0.760026 0.881971 0.935677 0.050180
C10   C     C_R   0.242627 0.891227 0.066662 0.018246
C11   C     C_R   0.260026 0.381971 0.935678 0.050180
C12   C     C_R   0.742627 0.391227 0.066662 0.018245
C13   C     C_R   0.706482 0.823102 0.975593 -0.030549
C14   C     C_R   0.293892 0.829300 0.025764 -0.054365
C15   C     C_R   0.206482 0.323102 0.975593 -0.030549
C16   C     C_R   0.793892 0.329300 0.025764 -0.054365
C17   C     C_R   0.707977 0.829583 0.052018 0.011829
C18   C     C_R   0.290162 0.832758 0.949383 0.008599
C19   C     C_R   0.207977 0.329583 0.052018 0.011829
C20   C     C_R   0.790162 0.332757 0.949383 0.008599
C21   C     C_R   0.813901 0.944310 0.047250 -0.150083
C22   C     C_R   0.188758 0.957467 0.956385 -0.150327
C23   C     C_R   0.313901 0.444309 0.047250 -0.150083
C24   C     C_R   0.688758 0.457467 0.956385 -0.150327
C25   C     C_R   0.812283 0.942542 0.973773 0.238661
C26   C     C_R   0.191358 0.955713 0.029812 0.238773
C27   C     C_R   0.312283 0.442541 0.973773 0.238660
C28   C     C_R   0.691358 0.455713 0.029812 0.238773
C29   C     C_R   0.648676 0.765003 0.943453 -0.055331
C30   C     C_R   0.349916 0.766468 0.056917 -0.051903
C31   C     C_R   0.148676 0.265003 0.943453 -0.055331
C32   C     C_R   0.849916 0.266467 0.056917 -0.051904
C33   C     C_R   0.090850 0.235733 0.983827 -0.091984
C34   C     C_R   0.901783 0.218347 0.014396 -0.069194
C35   C     C_R   0.590849 0.735733 0.983827 -0.091985
C36   C     C_R   0.401783 0.718347 0.014396 -0.069194
C37   C     C_R   0.593173 0.744545 0.057840 0.035653
C38   C     C_R   0.399685 0.731302 0.940573 0.023340
C39   C     C_R   0.093173 0.244545 0.057840 0.035653
C40   C     C_R   0.899686 0.231303 0.940572 0.023340
C41   C     C_R   0.654835 0.773783 0.091742 0.320020
C42   C     C_R   0.339115 0.769239 0.908422 0.302251
C43   C     C_R   0.154835 0.273783 0.091742 0.320019
C44   C     C_R   0.839115 0.269239 0.908422 0.302251
C45   C     C_R   0.561873 0.150992 0.137354 0.556183
C46   C     C_R   0.469014 0.155824 0.853796 0.576343
C47   C     C_R   0.061873 0.650992 0.137354 0.556184
C48   C     C_R   0.969014 0.655824 0.853796 0.576342
C49   C     C_R   0.758784 0.900155 0.086179 -0.020482
C50   C     C_R   0.241049 0.906493 0.916097 -0.014894
C51   C     C_R   0.258784 0.400155 0.086179 -0.020483
C52   C     C_R   0.741049 0.406493 0.916097 -0.014895
C53   C     C_R   0.499866 0.166603 0.575382 0.022263
C54   C     C_R   0.499628 0.166419 0.424355 0.020238
C55   C     C_R   0.999867 0.666602 0.575383 0.022263
C56   C     C_R   0.999629 0.666419 0.424357 0.020234
C57   C     C_R   0.509400 0.061345 0.536165 0.015132
C58   C     C_R   0.489831 0.061177 0.463399 0.014892
C59   C     C_R   0.009401 0.561345 0.536167 0.015130
C60   C     C_R   0.989832 0.561177 0.463400 0.014883
C61   C     C_R   0.502792 0.273926 0.462539 -0.159595
C62   C     C_R   0.496622 0.273959 0.537319 -0.159394
C63   C     C_R   0.002794 0.773926 0.462540 -0.159597
C64   C     C_R   0.996624 0.773958 0.537320 -0.159395
C65   C     C_R   0.531682 0.955091 0.568286 0.301061
C66   C     C_R   0.467783 0.954542 0.430922 0.300917
C67   C     C_R   0.031681 0.455089 0.568288 0.301064
C68   C     C_R   0.967785 0.454541 0.430923 0.300914
C69   C     C_R   0.018370 0.349452 0.531644 -0.185665
C70   C     C_R   0.981793 0.349059 0.466978 -0.184890
C71   C     C_R   0.518372 0.849454 0.531641 -0.185665
C72   C     C_R   0.481795 0.849060 0.466974 -0.184878
C73   C     C_R   0.749059 0.920349 0.574470 0.020814
C74   C     C_R   0.250834 0.920084 0.425774 0.019021
C75   C     C_R   0.249061 0.420347 0.574469 0.020809
C76   C     C_R   0.750834 0.420085 0.425773 0.019010
C77   C     C_R   0.798679 0.985614 0.536569 0.030472
C78   C     C_R   0.201301 0.984817 0.463794 0.030080
C79   C     C_R   0.298682 0.485608 0.536567 0.030473
C80   C     C_R   0.701301 0.484818 0.463794 0.030080
C81   C     C_R   0.810582 0.954265 0.465433 0.036518
C82   C     C_R   0.189130 0.953077 0.534763 0.036804
C83   C     C_R   0.310584 0.454258 0.465431 0.036518
C84   C     C_R   0.689130 0.453079 0.534763 0.036805
C85   C     C_R   0.697482 0.862516 0.460833 -0.152780
C86   C     C_R   0.301928 0.861958 0.539284 -0.152405
C87   C     C_R   0.197481 0.362516 0.460833 -0.152780
C88   C     C_R   0.801930 0.361963 0.539283 -0.152403
C89   C     C_R   0.743683 0.964731 0.152158 0.578678
C90   C     C_R   0.256316 0.966261 0.848544 0.585705
C91   C     C_R   0.243683 0.464730 0.152158 0.578678
C92   C     C_R   0.756316 0.466261 0.848544 0.585707
C93   C     C_R   0.698128 0.857295 0.535397 -0.116961
C94   C     C_R   0.301468 0.857131 0.464723 -0.116861
C95   C     C_R   0.198128 0.357296 0.535396 -0.116967
C96   C     C_R   0.801469 0.357134 0.464721 -0.116873
C97   C     C_R   0.841282 0.071789 0.568764 -0.078007
C98   C     C_R   0.159197 0.071151 0.431905 -0.077329
C99   C     C_R   0.341286 0.571784 0.568760 -0.078011
C100  C     C_R   0.659196 0.571150 0.431903 -0.077330
C101  C     C_R   0.901662 0.106912 0.534942 -0.147169
C102  C     C_R   0.099108 0.106470 0.465930 -0.146947
C103  C     C_R   0.401664 0.606909 0.534935 -0.147176
C104  C     C_R   0.599107 0.606469 0.465928 -0.146950
C105  C     C_R   0.920408 0.054921 0.469804 -0.146115
C106  C     C_R   0.080088 0.054526 0.530957 -0.146351
C107  C     C_R   0.420408 0.554916 0.469798 -0.146109
C108  C     C_R   0.580088 0.554527 0.530957 -0.146352
C109  C     C_R   0.875372 0.978453 0.435155 -0.078078
C110  C     C_R   0.124481 0.977311 0.565127 -0.077046
C111  C     C_R   0.375373 0.478444 0.435152 -0.078076
C112  C     C_R   0.624482 0.477314 0.565127 -0.077047
C113  C     C_R   0.754168 0.913101 0.424940 -0.003718
C114  C     C_R   0.245394 0.912328 0.575213 -0.002082
C115  C     C_R   0.254168 0.413098 0.424938 -0.003717
C116  C     C_R   0.745395 0.412331 0.575212 -0.002082
C117  C     C_R   0.731392 0.379745 0.353806 0.569638
C118  C     C_R   0.268561 0.379877 0.646265 0.576244
C119  C     C_R   0.231392 0.879746 0.353806 0.569631
C120  C     C_R   0.768560 0.879877 0.646265 0.576240
C121  C     C_R   0.531524 0.157523 0.352484 0.582548
C122  C     C_R   0.468372 0.157647 0.647437 0.580204
C123  C     C_R   0.031524 0.657523 0.352485 0.582551
C124  C     C_R   0.968373 0.657647 0.647438 0.580204
C125  C     C_R   0.743075 0.967868 0.354887 0.559789
C126  C     C_R   0.256801 0.967822 0.645173 0.560859
C127  C     C_R   0.243075 0.467868 0.354886 0.559787
C128  C     C_R   0.756801 0.467822 0.645172 0.560857
C129  C     C_3   0.536958 0.267174 0.964473 -0.202498
C130  C     C_3   0.488446 0.243924 0.029914 -0.195295
C131  C     C_3   0.036958 0.767174 0.964473 -0.202498
C132  C     C_3   0.988446 0.743924 0.029914 -0.195296
C133  C     C_3   0.591010 0.180049 0.995897 -0.147861
C134  C     C_3   0.453310 0.141249 0.989286 -0.117605
C135  C     C_3   0.091010 0.680049 0.995897 -0.147860
C136  C     C_3   0.953310 0.641249 0.989286 -0.117604
C137  C     C_3   0.541882 0.156815 0.060017 0.013736
C138  C     C_3   0.501510 0.164141 0.925314 0.036829
C139  C     C_3   0.041882 0.656815 0.060017 0.013737
C140  C     C_3   0.001510 0.664141 0.925314 0.036830
Cr1   Cr    Cr6+3 0.772820 0.169820 0.252640 0.987037
Cr2   Cr    Cr6+3 0.227180 0.169820 0.747360 0.997194
Cr3   Cr    Cr6+3 0.272820 0.669820 0.252640 0.987033
Cr4   Cr    Cr6+3 0.727180 0.669820 0.747360 0.997189
Cr5   Cr    Cr6+3 0.615040 0.323610 0.249150 1.034774
Cr6   Cr    Cr6+3 0.384960 0.323610 0.750850 1.040317
Cr7   Cr    Cr6+3 0.115040 0.823610 0.249150 1.034772
Cr8   Cr    Cr6+3 0.884960 0.823610 0.750850 1.040316
Cr9   Cr    Cr6+3 0.616720 0.011130 0.250660 1.071767
Cr10  Cr    Cr6+3 0.383280 0.011130 0.749340 1.065687
Cr11  Cr    Cr6+3 0.116720 0.511130 0.250660 1.071771
Cr12  Cr    Cr6+3 0.883280 0.511130 0.749340 1.065685
H1    H     H_    0.647980 0.194917 0.000074 0.130788
H2    H     H_    0.396363 0.124934 0.985632 0.131784
H3    H     H_    0.147980 0.694917 0.000074 0.130789
H4    H     H_    0.896363 0.624934 0.985632 0.131785
H5    H     H_    0.510116 0.357027 0.434790 0.147465
H6    H     H_    0.489323 0.357026 0.565171 0.147389
H7    H     H_    0.010117 0.857026 0.434791 0.147465
H8    H     H_    0.989325 0.857026 0.565172 0.147387
H9    H     H_    0.034769 0.267797 0.554481 0.098127
H10   H     H_    0.966092 0.267015 0.443621 0.098487
H11   H     H_    0.534772 0.767799 0.554476 0.098124
H12   H     H_    0.466095 0.767013 0.443620 0.098484
H13   H     H_    0.652795 0.829451 0.431497 0.139735
H14   H     H_    0.346463 0.829020 0.568567 0.139581
H15   H     H_    0.152794 0.329455 0.431497 0.139734
H16   H     H_    0.846465 0.329026 0.568565 0.139585
H17   H     H_    0.828979 0.109235 0.620667 0.157414
H18   H     H_    0.171749 0.108843 0.380166 0.156222
H19   H     H_    0.328984 0.609232 0.620663 0.157412
H20   H     H_    0.671748 0.608842 0.380164 0.156224
H21   H     H_    0.660096 0.802725 0.561945 0.160008
H22   H     H_    0.339465 0.802999 0.438081 0.161497
H23   H     H_    0.160094 0.302729 0.561945 0.160010
H24   H     H_    0.839467 0.303004 0.438078 0.161487
H25   H     H_    0.933897 0.171429 0.561361 0.099554
H26   H     H_    0.067310 0.171306 0.439830 0.099860
H27   H     H_    0.433898 0.671430 0.561352 0.099555
H28   H     H_    0.567308 0.671303 0.439828 0.099866
H29   H     H_    0.967988 0.075456 0.443380 0.104476
H30   H     H_    0.032827 0.075736 0.557668 0.103619
H31   H     H_    0.467987 0.575452 0.443371 0.104477
H32   H     H_    0.532829 0.575741 0.557669 0.103620
H33   H     H_    0.889523 0.943338 0.383158 0.130779
H34   H     H_    0.110155 0.942125 0.617033 0.131485
H35   H     H_    0.389523 0.443327 0.383154 0.130779
H36   H     H_    0.610157 0.442128 0.617033 0.131487
H37   H     H_    0.551145 0.349962 0.936399 0.114723
H38   H     H_    0.460148 0.308476 0.063665 0.126770
H39   H     H_    0.051145 0.849962 0.936399 0.114723
H40   H     H_    0.960148 0.808476 0.063665 0.126770
H41   H     H_    0.854552 0.996036 0.072938 0.145374
H42   H     H_    0.149376 0.012306 0.931663 0.144371
H43   H     H_    0.354552 0.496035 0.072938 0.145374
H44   H     H_    0.649376 0.512306 0.931663 0.144372
H45   H     H_    0.641141 0.753470 0.886934 0.185268
H46   H     H_    0.360491 0.762491 0.113373 0.176995
H47   H     H_    0.141141 0.253470 0.886934 0.185268
H48   H     H_    0.860491 0.262491 0.113373 0.176996
H49   H     H_    0.045302 0.200519 0.957564 0.092412
H50   H     H_    0.945030 0.173746 0.039385 0.096317
H51   H     H_    0.545302 0.700519 0.957564 0.092413
H52   H     H_    0.445030 0.673746 0.039385 0.096318
H53   H     H_    0.049757 0.214853 0.089464 0.142821
H54   H     H_    0.940012 0.193981 0.907725 0.125025
H55   H     H_    0.549757 0.714853 0.089464 0.142823
H56   H     H_    0.440012 0.693981 0.907726 0.125026
O1    O     O_R   0.788190 0.043000 0.172520 -0.549127
O2    O     O_R   0.211810 0.043000 0.827480 -0.553734
O3    O     O_R   0.288190 0.543000 0.172520 -0.549126
O4    O     O_R   0.711810 0.543000 0.827480 -0.553733
O5    O     O_R   0.556550 0.253260 0.323480 -0.511325
O6    O     O_R   0.443450 0.253260 0.676520 -0.516234
O7    O     O_R   0.056550 0.753260 0.323480 -0.511328
O8    O     O_R   0.943450 0.753260 0.676520 -0.516234
O9    O     O_R   0.545830 0.051610 0.330160 -0.489026
O10   O     O_R   0.454170 0.051610 0.669840 -0.489403
O11   O     O_R   0.045830 0.551610 0.330160 -0.488994
O12   O     O_R   0.954170 0.551610 0.669840 -0.489398
O13   O     O_R   0.681920 0.959720 0.327070 -0.491785
O14   O     O_R   0.318080 0.959720 0.672930 -0.493202
O15   O     O_R   0.181920 0.459720 0.327070 -0.491785
O16   O     O_R   0.818080 0.459720 0.672930 -0.493202
O17   O     O_3   0.668190 0.168190 0.250820 -0.300324
O18   O     O_3   0.331810 0.168190 0.749180 -0.289485
O19   O     O_3   0.168190 0.668190 0.250820 -0.300323
O20   O     O_3   0.831810 0.668190 0.749180 -0.289483
O21   O     O_R   0.766240 0.292300 0.176860 -0.542806
O22   O     O_R   0.233760 0.292300 0.823140 -0.530916
O23   O     O_R   0.266240 0.792300 0.176860 -0.542817
O24   O     O_R   0.733760 0.792300 0.823140 -0.530921
O25   O     O_R   0.670310 0.409160 0.168720 -0.440381
O26   O     O_R   0.329690 0.409160 0.831280 -0.428286
O27   O     O_R   0.170310 0.909160 0.168720 -0.440380
O28   O     O_R   0.829690 0.909160 0.831280 -0.428286
O29   O     O_R   0.556160 0.251900 0.173380 -0.533394
O30   O     O_R   0.443840 0.251900 0.826620 -0.544808
O31   O     O_R   0.056160 0.751900 0.173380 -0.533394
O32   O     O_R   0.943840 0.751900 0.826620 -0.544808
O33   O     O_R   0.545410 0.050140 0.168240 -0.437697
O34   O     O_R   0.454590 0.050140 0.831760 -0.468538
O35   O     O_R   0.045410 0.550140 0.168240 -0.437709
O36   O     O_R   0.954590 0.550140 0.831760 -0.468544
O37   O     O_R   0.681530 0.958350 0.176970 -0.468332
O38   O     O_R   0.318470 0.958350 0.823030 -0.462729
O39   O     O_R   0.181530 0.458350 0.176970 -0.468331
O40   O     O_R   0.818470 0.458350 0.823030 -0.462728
O41   O     O_R   0.788610 0.044480 0.334450 -0.529311
O42   O     O_R   0.211390 0.044480 0.665550 -0.529704
O43   O     O_R   0.288610 0.544480 0.334450 -0.529305
O44   O     O_R   0.711390 0.544480 0.665550 -0.529705
O45   O     O_R   0.766630 0.293670 0.326970 -0.506678
O46   O     O_R   0.233370 0.293670 0.673030 -0.505545
O47   O     O_R   0.266630 0.793670 0.326970 -0.506675
O48   O     O_R   0.733370 0.793670 0.673030 -0.505550
O49   O     O_R   0.670730 0.410640 0.330640 -0.508948
O50   O     O_R   0.329270 0.410640 0.669360 -0.510353
O51   O     O_R   0.170730 0.910640 0.330640 -0.508947
O52   O     O_R   0.829270 0.910640 0.669360 -0.510352
O53   O     O_3   0.571415 0.960473 0.631237 -0.551439
C141  C     C_3   0.558871 0.863665 0.677622 -0.060097
H57   H     H_    0.574842 0.889776 0.732674 0.195720
H58   H     H_    0.590770 0.786155 0.662423 0.099696
H59   H     H_    0.502893 0.838222 0.679689 0.117520
O54   O     O_3   0.428059 0.959373 0.367958 -0.557150
C142  C     C_3   0.440297 0.862628 0.321377 -0.063854
H60   H     H_    0.423936 0.888280 0.266449 0.172993
H61   H     H_    0.408535 0.784634 0.336769 0.102804
H62   H     H_    0.496267 0.838186 0.318875 0.125215
O55   O     O_3   0.071410 0.460469 0.631242 -0.551438
C143  C     C_3   0.058859 0.363664 0.677627 -0.060094
H63   H     H_    0.074799 0.389794 0.732684 0.195730
H64   H     H_    0.090778 0.286169 0.662450 0.099732
H65   H     H_    0.002887 0.338190 0.679668 0.117472
O56   O     O_3   0.928076 0.459366 0.367949 -0.557135
C144  C     C_3   0.940328 0.362615 0.321375 -0.063859
H66   H     H_    0.924064 0.388320 0.266418 0.173038
H67   H     H_    0.908494 0.284675 0.336718 0.102927
H68   H     H_    0.996294 0.338067 0.318958 0.125073
Cl1   Cl    Cl    0.479335 0.925632 0.060398 -0.676771
Cl2   Cl    Cl    0.599280 0.993838 0.889254 -0.634076
Cl3   Cl    Cl    0.979335 0.425632 0.060398 -0.676781
Cl4   Cl    Cl    0.099281 0.493839 0.889254 -0.634078
O57   O     O_3   0.859647 0.011006 0.938115 -0.532551
C145  C     C_3   0.924858 0.957582 0.942641 -0.108160
H69   H     H_    0.947276 0.974276 0.996123 0.064516
H70   H     H_    0.959667 0.995510 0.901409 0.134711
H71   H     H_    0.920222 0.862062 0.931903 0.160414
O58   O     O_3   0.147207 0.028874 0.066555 -0.524147
C146  C     C_3   0.079533 0.981937 0.064566 -0.096585
H72   H     H_    0.055154 0.003998 0.012834 0.061776
H73   H     H_    0.048460 0.020766 0.108447 0.140948
H74   H     H_    0.079972 0.886639 0.074965 0.162560
O59   O     O_3   0.359647 0.511006 0.938115 -0.532551
C147  C     C_3   0.424858 0.457582 0.942641 -0.108160
H75   H     H_    0.447276 0.474276 0.996123 0.064516
H76   H     H_    0.459667 0.495510 0.901410 0.134711
H77   H     H_    0.420222 0.362061 0.931903 0.160414
O60   O     O_3   0.647207 0.528874 0.066555 -0.524147
C148  C     C_3   0.579533 0.481937 0.064566 -0.096586
H78   H     H_    0.555154 0.503998 0.012834 0.061776
H79   H     H_    0.548461 0.520766 0.108447 0.140949
H80   H     H_    0.579972 0.386640 0.074966 0.162560
Cl5   Cl    Cl    0.667366 0.718574 0.179927 -0.574307
Cl6   Cl    Cl    0.321124 0.714246 0.821165 -0.561952
Cl7   Cl    Cl    0.167366 0.218574 0.179927 -0.574308
Cl8   Cl    Cl    0.821124 0.214246 0.821165 -0.561954

loop_
_geom_bond_atom_site_label_1
_geom_bond_atom_site_label_2
_ccdc_geom_bond_type
C99   C103  A    
C124  O12   A    
C133  C137  S    
C55   C59   A    
Cr1   O41   S    
Cr11  O19   S    
C146  H72   S    
C73   C93   A    
C136  C140  S    
C128  O16   A    
Cr6   O26   S    
C75   C95   A    
C148  H78   S    
C135  C139  S    
C84   C112  A    
Cr3   O43   S    
C37   C41   A    
C4    O24   A    
C79   C99   A    
Cr12  O36   S    
Cr5   O25   S    
C5    C6    S    
O55   C143  S    
C100  C104  A    
C9    C13   A    
C131  C140  S    
C3    O27   A    
C11   C15   A    
C50   C90   S    
C66   C72   A    
C12   C16   A    
C1    O25   A    
C143  H63   S    
C88   H16   S    
C87   C115  A    
C80   C84   A    
C59   C60   A    
C8    C135  S    
C101  C105  A    
C43   Cl7   S    
C130  C134  S    
Cr8   O52   S    
C70   H10   S    
C108  H32   S    
Cr5   O49   S    
C56   C123  S    
C27   O59   S    
C109  H33   S    
C98   C102  A    
Cr5   O17   S    
C121  O5    A    
C78   C82   A    
C11   C27   A    
C16   C20   A    
Cr9   O9    S    
Cr6   O6    S    
C71   H11   S    
C129  C133  S    
C147  H75   S    
Cr11  O11   S    
C3    O23   A    
Cr1   O1    S    
C7    Cl3   S    
O60   C148  S    
C148  H80   S    
C145  H71   S    
Cr8   O32   S    
C26   O58   S    
Cr3   O19   S    
C141  H58   S    
C5    C137  S    
C118  O50   A    
C54   C61   A    
C29   C35   A    
C30   C36   A    
C8    C140  S    
C85   H13   S    
C125  O41   A    
C97   H17   S    
C76   C96   A    
C145  H70   S    
C143  H65   S    
C93   H21   S    
C89   O37   A    
C69   C70   A    
C45   O29   A    
Cr11  O35   S    
C107  H31   S    
C73   C77   A    
C103  C107  A    
C67   C69   A    
C75   C79   A    
C130  H38   S    
C47   O35   A    
C6    C138  S    
C100  H20   S    
Cr8   O20   S    
C63   H7    S    
C21   C49   A    
C92   O40   A    
C7    C8    S    
C132  C139  S    
C146  H73   S    
Cr7   O7    S    
C53   C122  S    
C18   C42   A    
O53   C141  S    
C114  C126  S    
C142  H62   S    
Cr2   O22   S    
C95   H23   S    
C59   C67   A    
C85   C93   A    
C147  H77   S    
Cr6   O30   S    
C129  H37   S    
C77   C97   A    
C132  H40   S    
C84   C116  A    
Cr3   O47   S    
C144  H66   S    
C4    O28   A    
C1    C12   S    
C2    C11   S    
Cr8   O8    S    
C20   C44   A    
C87   H15   S    
C48   C140  S    
C83   C115  A    
Cr4   O4    S    
C91   O3    A    
C10   C14   A    
C17   C49   A    
Cr7   O19   S    
C89   O1    A    
C39   C43   A    
C132  C136  S    
C54   C58   A    
C47   O31   A    
C30   H46   S    
C54   C121  S    
C74   C78   A    
C102  H26   S    
C92   O4    A    
C81   C113  A    
C129  C130  S    
Cr10  O38   S    
C21   C25   A    
C110  H34   S    
C121  O9    A    
C65   O53   S    
C24   C28   A    
C142  H60   S    
C15   C31   A    
C141  H57   S    
Cr7   O31   S    
C16   C32   A    
Cr2   O46   S    
C13   C17   A    
C85   C113  A    
C7    C136  S    
C57   C58   A    
C34   H50   S    
Cr11  O15   S    
Cr7   O51   S    
C61   C62   A    
Cr6   O50   S    
C2    O22   A    
C63   C64   A    
C98   H18   S    
C40   C44   A    
C56   C60   A    
O56   C144  S    
C143  H64   S    
C144  H68   S    
C23   H43   S    
C105  H29   S    
C4    C9    S    
C28   O60   S    
C24   C52   A    
C119  O51   A    
C88   C96   A    
Cr10  O18   S    
C123  O7    A    
C37   H55   S    
C74   C94   A    
C86   H14   S    
C48   O36   A    
C141  H59   S    
C31   H47   S    
C9    C25   A    
C6    Cl2   S    
C15   C19   A    
Cr4   O48   S    
C12   C28   A    
C13   C29   A    
C6    C133  S    
Cr11  O39   S    
C8    Cl4   S    
C24   H44   S    
Cr1   O21   S    
O58   C146  S    
Cr9   O33   S    
C123  O11   A    
C51   C91   S    
C2    O26   A    
C62   H6    S    
C22   C50   A    
C67   O55   S    
C147  H76   S    
C73   C120  S    
Cr10  O14   S    
C75   C118  S    
C107  C111  A    
C48   O32   A    
C19   C43   A    
Cr2   O18   S    
C148  H79   S    
C91   O39   A    
C76   C80   A    
O59   C147  S    
C53   C57   A    
Cr6   O18   S    
C108  C112  A    
C112  H36   S    
O57   C145  S    
C61   H5    S    
C77   C81   A    
C64   H8    S    
C72   H12   S    
C128  O44   A    
Cr5   O5    S    
C34   C40   A    
C81   C109  A    
C125  O13   A    
Cr12  O16   S    
C83   C111  A    
C52   C92   S    
C46   O34   A    
C131  C132  S    
C104  C108  A    
C18   C50   A    
C55   C124  S    
Cr9   O37   S    
C96   H24   S    
Cr4   O24   S    
C57   C65   A    
C119  O47   A    
C111  H35   S    
C76   C117  S    
C126  O42   A    
Cr1   O45   S    
C44   Cl8   S    
C36   C38   A    
C32   H48   S    
C120  O52   A    
C79   C83   A    
C142  H61   S    
C134  H2    S    
C105  C109  A    
C90   O38   A    
C41   Cl5   S    
C103  H27   S    
Cr12  O40   S    
C101  H25   S    
C122  O6    A    
Cr10  O34   S    
C99   H19   S    
C60   C68   A    
C22   C26   A    
C47   C139  S    
C130  C137  S    
C32   C34   A    
Cr7   O27   S    
Cr2   O42   S    
Cr9   O17   S    
C14   C18   A    
C135  H3    S    
C74   C119  S    
C33   C39   A    
C38   H56   S    
C42   Cl6   S    
C133  H1    S    
C82   C110  A    
C35   C37   A    
C69   H9    S    
C38   C42   A    
C131  C135  S    
C145  H69   S    
C136  H4    S    
C113  C125  S    
Cr12  O12   S    
C115  C127  S    
C106  H30   S    
C86   C94   A    
Cr12  O20   S    
C58   C66   A    
C129  C138  S    
Cr5   O29   S    
C78   C98   A    
C31   C33   A    
C23   C27   A    
C118  O46   A    
C66   O54   S    
C127  O15   A    
C46   C138  S    
C10   C26   A    
Cr4   O44   S    
C80   C100  A    
C25   O57   S    
Cr9   O13   S    
C14   C30   A    
Cr1   O17   S    
C5    C134  S    
C40   H54   S    
C117  O45   A    
C146  H74   S    
C82   C114  A    
C90   O2    A    
Cr3   O3    S    
C65   C71   A    
C87   C95   A    
Cr8   O28   S    
C88   C116  A    
C120  O48   A    
C1    O21   A    
C117  O49   A    
C53   C62   A    
C23   C51   A    
C68   O56   S    
C55   C64   A    
C45   C137  S    
Cr10  O10   S    
C56   C63   A    
C94   H22   S    
C68   C70   A    
C29   H45   S    
C144  H67   S    
Cr2   O2    S    
C45   O33   A    
C124  O8    A    
C122  O10   A    
C22   H42   S    
C49   C89   S    
C134  C138  S    
C126  O14   A    
C131  H39   S    
C86   C114  A    
Cr3   O23   S    
C20   C52   A    
C3    C10   S    
C7    C139  S    
C5    Cl1   S    
C35   H51   S    
C104  H28   S    
C39   H53   S    
C33   H49   S    
C102  C106  A    
C127  O43   A    
C46   O30   A    
C17   C41   A    
O54   C142  S    
C19   C51   A    
C71   C72   A    
C106  C110  A    
C116  C128  S    
C21   H41   S    
Cr4   O20   S    
C36   H52   S    
C97   C101  A    
