data_mof_unit_23291.cif
_audit_creation_date              2012-12-10T19:07:37-0500
_audit_creation_method            fapswitch 2.2
_symmetry_space_group_name_H-M    P1
_symmetry_Int_Tables_number       1
_space_group_crystal_system       triclinic
_cell_length_a                    10.865891
_cell_length_b                    10.782934
_cell_length_c                    9.575225
_cell_angle_alpha                 89.934124
_cell_angle_beta                  89.275336
_cell_angle_gamma                 90.172654
_cell_volume                      1121.79697255

loop_
_atom_site_label
_atom_site_type_symbol
_atom_type_description
_atom_site_fract_x
_atom_site_fract_y
_atom_site_fract_z
_atom_type_partial_charge
C1    C     C_R   0.501998 0.262549 0.500182 0.799755
C2    C     C_R   0.934242 0.474374 0.621170 0.019756
C3    C     C_3   0.919100 0.542801 0.755415 -0.426206
C4    C     C_3   0.059301 0.552727 0.758599 0.085873
C5    C     C_R   0.465674 0.063738 0.617110 0.141331
C6    C     C_R   0.511607 0.129424 0.502420 -0.087823
C7    C     C_R   0.573894 0.065282 0.395512 -0.235930
C8    C     C_R   0.574644 0.935767 0.396161 -0.208469
C9    C     C_R   0.511998 0.870867 0.502676 -0.076819
C10   C     C_R   0.465829 0.936177 0.617288 0.112339
C11   C     C_3   0.341271 0.929317 0.684483 -0.498783
C12   C     C_R   0.262558 0.499156 0.500817 0.802382
C13   C     C_3   0.341079 0.069960 0.684055 -0.477543
C14   C     C_R   0.577008 0.576356 0.071612 0.208522
C15   C     C_R   0.428945 0.418388 0.075082 0.312135
C16   C     C_R   0.427868 0.420365 0.926034 -0.138124
C17   C     C_R   0.580871 0.572882 0.924886 0.190042
C18   C     C_3   0.596794 0.709939 0.912177 -0.527064
C19   C     C_3   0.585245 0.715871 0.070407 0.026808
C20   C     C_R   0.502285 0.737533 0.500145 0.793621
C21   C     C_R   0.737673 0.497118 0.498710 0.803637
C22   C     C_R   0.060540 0.480686 0.624242 0.041205
C23   C     C_R   0.129701 0.489038 0.500769 -0.123392
C24   C     C_R   0.068500 0.477338 0.373295 -0.270137
C25   C     C_R   0.939970 0.477576 0.368686 0.240153
C26   C     C_R   0.871048 0.484348 0.495501 -0.119432
Cu1   Cu    Cu3+1 0.499990 0.499980 0.640670 0.929665
Cu2   Cu    Cu3+1 0.500010 0.500020 0.359330 0.972606
H1    H     H_    0.119495 0.476135 0.275491 0.157580
H2    H     H_    0.344328 0.889125 0.791257 0.198923
H3    H     H_    0.344238 0.110736 0.790229 0.188554
H4    H     H_    0.690367 0.734954 0.873111 0.156926
H5    H     H_    0.869784 0.631968 0.740851 0.204311
H6    H     H_    0.103007 0.502391 0.846507 0.119111
H7    H     H_    0.271036 0.888180 0.614751 0.203244
N1    N     N_R   0.500790 0.500930 0.147930 -0.201111
N2    N     N_R   0.500790 0.500890 0.852020 -0.190595
O1    O     O_R   0.500000 0.319640 0.618810 -0.583763
O2    O     O_R   0.500010 0.319680 0.381230 -0.549532
O3    O     O_R   0.319650 0.499970 0.618810 -0.598441
O4    O     O_R   0.319660 0.500010 0.381230 -0.575747
O5    O     O_R   0.499990 0.680320 0.618770 -0.592610
O6    O     O_R   0.500000 0.680360 0.381190 -0.551507
O7    O     O_R   0.680340 0.499990 0.618770 -0.580970
O8    O     O_R   0.680350 0.500030 0.381190 -0.550637
H8    H     H_    0.270771 0.110663 0.614238 0.193209
N3    N     N_2   0.348689 0.336670 0.148666 -0.372242
H9    H     H_    0.257322 0.356978 0.132643 0.215580
C27   C     C_3   0.373774 0.206165 0.128354 -0.685703
H10   H     H_    0.341956 0.175781 0.024258 0.185823
H11   H     H_    0.323814 0.151474 0.209506 0.232399
H12   H     H_    0.473765 0.187214 0.137209 0.235318
H13   H     H_    0.366955 0.358896 0.870180 0.144833
H14   H     H_    0.521473 0.757169 0.856605 0.231307
H15   H     H_    0.670116 0.751079 0.120119 0.106106
N4    N     N_2   0.475856 0.783590 0.117218 -0.376983
H16   H     H_    0.484574 0.877937 0.101849 0.246658
C28   C     C_3   0.353336 0.737660 0.087103 -0.641539
H17   H     H_    0.329121 0.659257 0.156939 0.254508
H18   H     H_    0.345507 0.708663 0.976550 0.209893
H19   H     H_    0.285000 0.812014 0.107724 0.196309
N5    N     N_2   0.882684 0.478513 0.236002 -0.400288
H20   H     H_    0.912508 0.407312 0.172280 0.236223
C29   C     C_3   0.890026 0.597146 0.165602 -0.698184
H21   H     H_    0.987305 0.621214 0.140553 0.212387
H22   H     H_    0.849265 0.670837 0.232515 0.230987
H23   H     H_    0.838765 0.592603 0.066388 0.209895
H24   H     H_    0.880650 0.482312 0.839371 0.162676
N6    N     N_2   0.102303 0.679588 0.741483 -0.394586
H25   H     H_    0.192538 0.685204 0.707775 0.264246
C30   C     C_3   0.078302 0.759460 0.860145 -0.731810
H26   H     H_    0.116894 0.853186 0.839500 0.232475
H27   H     H_    0.121079 0.720791 0.955205 0.214355
H28   H     H_    0.977884 0.769574 0.879080 0.237016
H29   H     H_    0.619156 0.114724 0.310738 0.151874
H30   H     H_    0.621518 0.886951 0.312759 0.153411

loop_
_geom_bond_atom_site_label_1
_geom_bond_atom_site_label_2
_ccdc_geom_bond_type
C19   N4    S    
C21   C26   S    
C3    H24   S    
C15   N3    S    
C7    C8    A    
N3    C27   S    
C12   C23   S    
C12   O4    A    
C14   N1    A    
C5    C6    A    
C3    H5    S    
Cu1   O1    S    
C28   H18   S    
C15   C16   A    
Cu2   O4    S    
C8    H30   S    
N4    H16   S    
C18   C19   S    
N6    C30   S    
C16   H13   S    
N5    C29   S    
C24   H1    S    
Cu1   O7    S    
C11   H2    S    
C8    C9    A    
C27   H11   S    
C2    C22   A    
C23   C24   A    
C9    C10   A    
C5    C13   S    
C16   N2    A    
C28   H19   S    
C14   C17   A    
C4    N6    S    
C21   O8    A    
C4    H6    S    
Cu2   O8    S    
C1    C6    S    
C29   H23   S    
C24   C25   A    
C30   H27   S    
C1    O2    A    
C7    H29   S    
Cu2   O2    S    
C28   H17   S    
C29   H22   S    
C12   O3    A    
N5    H20   S    
C21   O7    A    
C4    C22   S    
C9    C20   S    
N3    H9    S    
Cu1   O3    S    
C27   H12   S    
C17   C18   S    
C2    C26   A    
C17   N2    A    
C1    O1    A    
C18   H4    S    
C3    C4    S    
C15   N1    A    
C20   O6    A    
C19   H15   S    
C14   C19   S    
C13   H3    S    
C30   H28   S    
C20   O5    A    
C6    C7    A    
Cu2   O6    S    
C29   H21   S    
C11   H7    S    
C2    C3    S    
C25   C26   A    
C5    C10   A    
C11   C13   S    
Cu1   O5    S    
C13   H8    S    
Cu1   N2    S    
N4    C28   S    
C25   N5    S    
N6    H25   S    
C10   C11   S    
C18   H14   S    
C30   H26   S    
Cu2   N1    S    
C27   H10   S    
Cu1   Cu2   S    
C22   C23   A    
