data_mof_unit_56367.cif
_audit_creation_date              2012-12-10T17:19:46-0500
_audit_creation_method            fapswitch 2.2
_symmetry_space_group_name_H-M    P1
_symmetry_Int_Tables_number       1
_space_group_crystal_system       triclinic
_cell_length_a                    21.8127
_cell_length_b                    21.811115
_cell_length_c                    23.539413
_cell_angle_alpha                 90.791341
_cell_angle_beta                  89.935009
_cell_angle_gamma                 91.244372
_cell_volume                      11195.3819181

loop_
_atom_site_label
_atom_site_type_symbol
_atom_type_description
_atom_site_fract_x
_atom_site_fract_y
_atom_site_fract_z
_atom_type_partial_charge
C1    C     C_R   0.379795 0.999426 0.500114 0.963456
C2    C     C_R   0.998627 0.380009 0.502819 0.955784
C3    C     C_R   0.619943 0.001308 0.496708 0.959759
C4    C     C_R   0.000168 0.619962 0.498007 0.968368
C5    C     C_R   0.879919 0.499107 0.000100 1.002545
C6    C     C_R   0.499211 0.879982 0.999215 1.019872
C7    C     C_R   0.119954 0.500633 0.000083 0.982199
C8    C     C_R   0.500741 0.120200 0.000426 0.973189
C9    C     C_R   0.280255 0.949257 0.472650 -0.153483
C10   C     C_R   0.036569 0.282837 0.466154 -0.221039
C11   C     C_R   0.719843 0.051498 0.467803 -0.147179
C12   C     C_R   0.952579 0.717212 0.468487 -0.151752
C13   C     C_R   0.716321 0.966005 0.535288 -0.223310
C14   C     C_R   0.947731 0.280400 0.531538 -0.143528
C15   C     C_R   0.282187 0.047653 0.528768 -0.152482
C16   C     C_R   0.044490 0.718983 0.530425 -0.201580
C17   C     C_R   0.781168 0.452194 0.966411 -0.145666
C18   C     C_R   0.529524 0.782026 0.953628 -0.162625
C19   C     C_R   0.218905 0.539957 0.963007 -0.204926
C20   C     C_R   0.454037 0.217382 0.971604 -0.150075
C21   C     C_R   0.217048 0.465242 0.039633 -0.219680
C22   C     C_R   0.453152 0.781607 0.031753 -0.145281
C23   C     C_R   0.782251 0.530534 0.044537 -0.161845
C24   C     C_R   0.551053 0.220088 0.028148 -0.160962
C25   C     C_R   0.185485 0.999132 0.499949 -0.068792
C26   C     C_R   0.998527 0.185972 0.501719 -0.063676
C27   C     C_R   0.813800 0.002405 0.499348 -0.064266
C28   C     C_R   0.000794 0.814002 0.499171 -0.069131
C29   C     C_R   0.686040 0.497085 0.999970 -0.072324
C30   C     C_R   0.497562 0.686259 0.998860 -0.076850
C31   C     C_R   0.313864 0.500885 0.000288 -0.065443
C32   C     C_R   0.501790 0.314502 0.000003 -0.062748
C33   C     C_R   0.313172 0.998452 0.500752 -0.055331
C34   C     C_R   0.994394 0.313424 0.501284 -0.057843
C35   C     C_R   0.686402 0.005720 0.498367 -0.062677
C36   C     C_R   0.999701 0.686405 0.497873 -0.050997
C37   C     C_R   0.813613 0.496196 0.001772 -0.062982
C38   C     C_R   0.496609 0.813737 0.996959 -0.065630
C39   C     C_R   0.186390 0.502096 0.000881 -0.056130
C40   C     C_R   0.502369 0.186833 0.999828 -0.055653
C41   C     C_R   0.000196 0.120258 0.500482 1.150449
C42   C     C_R   0.879657 0.000213 0.499893 1.146914
C43   C     C_R   0.000973 0.879787 0.499722 1.144990
C44   C     C_R   0.120033 0.999505 0.499958 1.149713
C45   C     C_R   0.499816 0.620323 0.000068 1.110338
C46   C     C_R   0.379679 0.500115 0.000045 1.143055
C47   C     C_R   0.501139 0.379972 0.999837 1.140633
C48   C     C_R   0.620209 0.499023 0.999866 1.114743
C49   C     C_R   0.499728 0.999616 0.390754 0.918884
C50   C     C_R   0.000175 0.500889 0.390778 0.949697
C51   C     C_R   0.498341 0.000299 0.609219 0.948995
C52   C     C_R   0.999975 0.499506 0.609233 0.926110
C53   C     C_R   0.999569 0.499865 0.890759 0.962066
C54   C     C_R   0.500000 0.000314 0.890759 0.979734
C55   C     C_R   0.998965 0.500363 0.109239 0.990338
C56   C     C_R   0.499946 0.000233 0.109246 0.947452
C57   C     C_1   0.499265 0.998874 0.330471 -0.201817
C58   C     C_1   0.000770 0.502018 0.330494 -0.178211
C59   C     C_1   0.497355 0.000825 0.669535 -0.162710
C60   C     C_1   0.000003 0.499587 0.669521 -0.198985
C61   C     C_1   0.999923 0.500316 0.830450 -0.192120
C62   C     C_1   0.499786 0.000420 0.830469 -0.188084
C63   C     C_1   0.998769 0.501374 0.169553 -0.142109
C64   C     C_1   0.499641 0.999950 0.169540 -0.232365
C65   C     C_1   0.499078 0.998881 0.279664 -0.019694
C66   C     C_1   0.000509 0.502490 0.279686 -0.040771
C67   C     C_1   0.497600 0.000861 0.720348 -0.000566
C68   C     C_1   0.000043 0.500063 0.720324 -0.024925
C69   C     C_1   0.000067 0.500586 0.779632 -0.029877
C70   C     C_1   0.498786 0.000641 0.779668 -0.016673
C71   C     C_1   0.999394 0.502223 0.220362 -0.033919
C72   C     C_1   0.499231 0.999425 0.220356 -0.034971
C73   C     C_R   0.308931 0.899988 0.442151 0.413267
C74   C     C_R   0.070322 0.314002 0.423145 0.468978
C75   C     C_R   0.691371 0.099229 0.436535 0.397770
C76   C     C_R   0.905137 0.686015 0.436549 0.411320
C77   C     C_R   0.684531 0.935171 0.579591 0.465833
C78   C     C_R   0.898763 0.309123 0.562140 0.398264
C79   C     C_R   0.312875 0.096442 0.559874 0.423547
C80   C     C_R   0.083685 0.689233 0.569180 0.444317
C81   C     C_R   0.810735 0.406664 0.931762 0.412162
C82   C     C_R   0.552953 0.809956 0.902669 0.401320
C83   C     C_R   0.188685 0.572479 0.919887 0.448340
C84   C     C_R   0.407406 0.186055 0.938823 0.428247
C85   C     C_R   0.185514 0.435560 0.084625 0.475285
C86   C     C_R   0.408601 0.811531 0.066540 0.411093
C87   C     C_R   0.810692 0.556416 0.094958 0.405466
C88   C     C_R   0.599010 0.191602 0.059691 0.420939
C89   C     C_R   0.280811 0.841712 0.444516 0.239790
C90   C     C_R   0.128895 0.294817 0.409639 0.254141
C91   C     C_R   0.720776 0.156967 0.436175 0.242013
C92   C     C_R   0.845989 0.710098 0.439755 0.210778
C93   C     C_R   0.701615 0.876097 0.592770 0.244152
C94   C     C_R   0.841623 0.278512 0.563590 0.246867
C95   C     C_R   0.288603 0.155232 0.556133 0.211167
C96   C     C_R   0.141963 0.713446 0.580027 0.235695
C97   C     C_R   0.781273 0.349019 0.924621 0.225862
C98   C     C_R   0.561625 0.772011 0.854639 0.202642
C99   C     C_R   0.212650 0.628713 0.902695 0.241789
C100  C     C_R   0.347864 0.209698 0.939738 0.204999
C101  C     C_R   0.205203 0.378867 0.102286 0.254824
C102  C     C_R   0.349343 0.784550 0.069347 0.217529
C103  C     C_R   0.773438 0.567277 0.142653 0.205590
C104  C     C_R   0.656935 0.220901 0.062603 0.223870
C105  C     C_R   0.216853 0.838180 0.448566 0.261990
C106  C     C_R   0.146451 0.236897 0.428283 0.218518
C107  C     C_R   0.784713 0.159882 0.440390 0.250513
C108  C     C_R   0.840506 0.773406 0.449081 0.269950
C109  C     C_R   0.761312 0.857990 0.578033 0.241802
C110  C     C_R   0.840233 0.214424 0.561653 0.259432
C111  C     C_R   0.225028 0.159926 0.550293 0.276167
C112  C     C_R   0.152875 0.776085 0.569858 0.252570
C113  C     C_R   0.717587 0.345021 0.930351 0.248155
C114  C     C_R   0.577623 0.710928 0.863196 0.216434
C115  C     C_R   0.272528 0.645204 0.919804 0.197219
C116  C     C_R   0.341340 0.271967 0.953364 0.254746
C117  C     C_R   0.263229 0.359628 0.084196 0.191428
C118  C     C_R   0.342711 0.721590 0.057638 0.251962
C119  C     C_R   0.712038 0.581705 0.133986 0.224748
C120  C     C_R   0.660938 0.284106 0.053931 0.236560
C121  C     C_R   0.184525 0.893128 0.453509 0.422412
C122  C     C_R   0.099916 0.195151 0.446395 0.469304
C123  C     C_R   0.816574 0.105144 0.447912 0.420271
C124  C     C_R   0.894409 0.809679 0.454460 0.430675
C125  C     C_R   0.802835 0.902810 0.556082 0.494599
C126  C     C_R   0.895623 0.183561 0.553881 0.423038
C127  C     C_R   0.189478 0.105537 0.545572 0.438381
C128  C     C_R   0.103236 0.811932 0.552285 0.484723
C129  C     C_R   0.685276 0.398954 0.940045 0.433285
C130  C     C_R   0.574282 0.687864 0.918481 0.401879
C131  C     C_R   0.311093 0.598594 0.939591 0.463352
C132  C     C_R   0.394675 0.309031 0.957432 0.442101
C133  C     C_R   0.305064 0.404071 0.062139 0.477990
C134  C     C_R   0.395948 0.687108 0.051397 0.434841
C135  C     C_R   0.688295 0.576264 0.078913 0.402564
C136  C     C_R   0.606423 0.316433 0.048010 0.425332
C137  C     C_R   0.215691 0.947461 0.475605 -0.160846
C138  C     C_R   0.045078 0.219854 0.471857 -0.160480
C139  C     C_R   0.784665 0.052669 0.471644 -0.144054
C140  C     C_R   0.949693 0.781526 0.473846 -0.189838
C141  C     C_R   0.779067 0.956690 0.529487 -0.164409
C142  C     C_R   0.947601 0.215471 0.528956 -0.144528
C143  C     C_R   0.217941 0.050408 0.524645 -0.191862
C144  C     C_R   0.049921 0.782864 0.526279 -0.145588
C145  C     C_R   0.716326 0.450183 0.968139 -0.142683
C146  C     C_R   0.535120 0.718040 0.958576 -0.196450
C147  C     C_R   0.282933 0.546520 0.967856 -0.145246
C148  C     C_R   0.450582 0.281490 0.976263 -0.194672
C149  C     C_R   0.280312 0.456660 0.033797 -0.153585
C150  C     C_R   0.449824 0.717019 0.028447 -0.161635
C151  C     C_R   0.718231 0.535739 0.039608 -0.203244
C152  C     C_R   0.552881 0.284739 0.025128 -0.146000
O1    O     O_R   0.408370 0.051730 0.500010 -0.577732
O2    O     O_R   0.948270 0.408370 0.500010 -0.573951
O3    O     O_R   0.591630 0.948270 0.500010 -0.605326
O4    O     O_R   0.051730 0.591630 0.500010 -0.593419
O5    O     O_R   0.591630 0.051730 0.499990 -0.576854
O6    O     O_R   0.051730 0.408370 0.499990 -0.605514
O7    O     O_R   0.408370 0.948270 0.499990 -0.574113
O8    O     O_R   0.948270 0.591630 0.499990 -0.583370
O9    O     O_R   0.908370 0.551730 0.000010 -0.632781
O10   O     O_R   0.448270 0.908370 0.000010 -0.575926
O11   O     O_R   0.091630 0.448270 0.000010 -0.611562
O12   O     O_R   0.551730 0.091630 0.000010 -0.575863
O13   O     O_R   0.091630 0.551730 0.999990 -0.606067
O14   O     O_R   0.551730 0.908370 0.999990 -0.635002
O15   O     O_R   0.908370 0.448270 0.999990 -0.573326
O16   O     O_R   0.448270 0.091630 0.999990 -0.586241
O17   O     O_R   0.499980 0.051730 0.417240 -0.615929
O18   O     O_R   0.948270 0.499980 0.417240 -0.615556
O19   O     O_R   0.500020 0.948270 0.417240 -0.620473
O20   O     O_R   0.051730 0.500020 0.417240 -0.586545
O21   O     O_R   0.500020 0.051730 0.582760 -0.635013
O22   O     O_R   0.051730 0.499980 0.582760 -0.584159
O23   O     O_R   0.499980 0.948270 0.582760 -0.570810
O24   O     O_R   0.948270 0.500020 0.582760 -0.626965
O25   O     O_R   0.999980 0.551730 0.917240 -0.589394
O26   O     O_R   0.448270 0.999980 0.917240 -0.611055
O27   O     O_R   0.000020 0.448270 0.917240 -0.612297
O28   O     O_R   0.551730 0.000020 0.917240 -0.628645
O29   O     O_R   0.000020 0.551730 0.082760 -0.644724
O30   O     O_R   0.551730 0.999980 0.082760 -0.602293
O31   O     O_R   0.999980 0.448270 0.082760 -0.584745
O32   O     O_R   0.448270 0.000020 0.082760 -0.615827
O33   O     O_R   0.999980 0.091600 0.546760 -0.615222
O34   O     O_R   0.908400 0.999980 0.546760 -0.611033
O35   O     O_R   0.000020 0.908400 0.546760 -0.638898
O36   O     O_R   0.091600 0.000020 0.546760 -0.627061
O37   O     O_R   0.000020 0.091600 0.453240 -0.627939
O38   O     O_R   0.091600 0.999980 0.453240 -0.639095
O39   O     O_R   0.999980 0.908400 0.453240 -0.620623
O40   O     O_R   0.908400 0.000020 0.453240 -0.628055
O41   O     O_R   0.499980 0.591600 0.046760 -0.618991
O42   O     O_R   0.408400 0.499980 0.046760 -0.628076
O43   O     O_R   0.500020 0.408400 0.046760 -0.640430
O44   O     O_R   0.591600 0.500020 0.046760 -0.597120
O45   O     O_R   0.500020 0.591600 0.953240 -0.600211
O46   O     O_R   0.591600 0.499980 0.953240 -0.614676
O47   O     O_R   0.499980 0.408400 0.953240 -0.620741
O48   O     O_R   0.408400 0.500020 0.953240 -0.637630
Zn1   Zn    Zn3+2 0.500000 0.069080 0.500000 1.029647
Zn2   Zn    Zn3+2 0.930920 0.500000 0.500000 1.030054
Zn3   Zn    Zn3+2 0.500000 0.930920 0.500000 1.053562
Zn4   Zn    Zn3+2 0.069080 0.500000 0.500000 1.064752
Zn5   Zn    Zn3+2 1.000000 0.569080 0.000000 0.979257
Zn6   Zn    Zn3+2 0.430920 0.000000 0.000000 1.035495
Zn7   Zn    Zn3+2 1.000000 0.430920 0.000000 1.047630
Zn8   Zn    Zn3+2 0.569080 0.000000 0.000000 0.988477
Zn9   Zn    Zn3+2 0.000000 0.000000 0.562420 0.936674
Zn10  Zn    Zn3+2 0.000000 0.000000 0.437580 0.921802
Zn11  Zn    Zn3+2 0.500000 0.500000 0.062420 0.963990
Zn12  Zn    Zn3+2 0.500000 0.500000 0.937580 0.971022
O49   O     O_3   0.327599 0.205684 0.559246 -0.779103
H1    H     H_    0.309503 0.239370 0.537508 0.350376
O50   O     O_3   0.789258 0.312358 0.568968 -0.778801
H2    H     H_    0.754854 0.289326 0.550578 0.345705
O51   O     O_3   0.660231 0.839212 0.621525 -0.723733
H3    H     H_    0.666599 0.796075 0.609805 0.340307
O52   O     O_3   0.184720 0.675885 0.603826 -0.738608
H4    H     H_    0.225867 0.688742 0.590078 0.340469
O53   O     O_3   0.685932 0.208525 0.430935 -0.779461
H5    H     H_    0.707030 0.243224 0.450905 0.345580
O54   O     O_3   0.165401 0.331434 0.375526 -0.732482
H6    H     H_    0.197083 0.305916 0.357303 0.333369
O55   O     O_3   0.316601 0.790526 0.441093 -0.777389
H7    H     H_    0.295887 0.756854 0.462015 0.352399
O56   O     O_3   0.795781 0.671137 0.433707 -0.788206
H8    H     H_    0.761677 0.687326 0.456872 0.354828
O57   O     O_3   0.799411 0.566466 0.195939 -0.787229
H9    H     H_    0.766769 0.557061 0.223931 0.345708
O58   O     O_3   0.300442 0.819974 0.085281 -0.766258
H10   H     H_    0.268625 0.793544 0.103186 0.334263
O59   O     O_3   0.168672 0.345756 0.139296 -0.732615
H11   H     H_    0.194346 0.316148 0.159470 0.331933
O60   O     O_3   0.707347 0.187188 0.076535 -0.777604
H12   H     H_    0.736911 0.213782 0.097846 0.335437
O61   O     O_3   0.178053 0.664082 0.867225 -0.739803
H13   H     H_    0.205609 0.693260 0.847142 0.335657
O62   O     O_3   0.557187 0.797104 0.801265 -0.743981
H14   H     H_    0.546320 0.763997 0.773625 0.353810
O63   O     O_3   0.815651 0.298591 0.911148 -0.780150
H15   H     H_    0.790786 0.269997 0.887067 0.331131
O64   O     O_3   0.298788 0.172145 0.924304 -0.763628
H16   H     H_    0.266058 0.197431 0.908260 0.335063
O65   O     O_3   0.365227 0.907878 0.415094 -0.608548
C153  C     C_3   0.365938 0.884023 0.358844 0.127073
H17   H     H_    0.378875 0.922774 0.330858 0.140642
H18   H     H_    0.320833 0.865517 0.343286 0.102080
C154  C     C_3   0.414950 0.834727 0.353237 -0.238960
H19   H     H_    0.457986 0.850665 0.374226 0.244530
H20   H     H_    0.399601 0.791934 0.374146 0.262999
C155  C     C_3   0.429040 0.819624 0.291370 -1.051950
H21   H     H_    0.386579 0.804442 0.268799 0.268164
H22   H     H_    0.462612 0.782125 0.288938 0.278180
H23   H     H_    0.449452 0.860658 0.270789 0.270879
O66   O     O_3   0.046017 0.361748 0.392687 -0.577703
C156  C     C_3   0.995697 0.339419 0.359477 0.075473
H24   H     H_    0.969509 0.379147 0.344678 0.155593
H25   H     H_    0.962302 0.311589 0.384653 0.110249
C157  C     C_3   0.016407 0.302148 0.307158 -0.430763
H26   H     H_    0.043637 0.262407 0.320509 0.197778
H27   H     H_    0.975120 0.283554 0.284664 0.188145
C158  C     C_3   0.053984 0.341057 0.265800 -0.674930
H28   H     H_    0.025048 0.377018 0.247572 0.242266
H29   H     H_    0.070704 0.311553 0.230496 0.251176
H30   H     H_    0.094152 0.363026 0.287370 0.304515
O67   O     O_3   0.632888 0.092161 0.413764 -0.606901
C159  C     C_3   0.630047 0.109781 0.356109 0.136314
H31   H     H_    0.615219 0.068573 0.331247 0.132035
H32   H     H_    0.674699 0.125575 0.337585 0.107724
C160  C     C_3   0.581941 0.159556 0.349137 -0.238356
H33   H     H_    0.538036 0.145008 0.369015 0.241748
H34   H     H_    0.597229 0.202749 0.370465 0.265541
C161  C     C_3   0.570119 0.172982 0.286916 -1.049238
H35   H     H_    0.613824 0.185323 0.265273 0.268117
H36   H     H_    0.538499 0.211983 0.283582 0.274991
H37   H     H_    0.548288 0.132270 0.265926 0.270829
O68   O     O_3   0.915581 0.630362 0.408633 -0.610471
C162  C     C_3   0.891605 0.628428 0.352531 0.164134
H38   H     H_    0.928691 0.613028 0.323709 0.139623
H39   H     H_    0.879170 0.674383 0.336302 0.066728
C163  C     C_3   0.835563 0.583965 0.348257 -0.237615
H40   H     H_    0.819803 0.570142 0.391200 0.274838
H41   H     H_    0.797282 0.608080 0.327639 0.195114
C164  C     C_3   0.847636 0.525419 0.314029 -0.898509
H42   H     H_    0.871945 0.535870 0.273799 0.300619
H43   H     H_    0.803372 0.501636 0.304021 0.252037
H44   H     H_    0.874893 0.493271 0.338895 0.275603
O69   O     O_3   0.635799 0.960739 0.608892 -0.573224
C165  C     C_3   0.654386 0.017324 0.635174 0.097637
H45   H     H_    0.613115 0.040511 0.651317 0.150398
H46   H     H_    0.675455 0.050009 0.604634 0.114333
C166  C     C_3   0.698052 0.009085 0.685546 -0.428539
H47   H     H_    0.742096 0.991012 0.670008 0.188957
H48   H     H_    0.708123 0.054735 0.705369 0.190162
C167  C     C_3   0.671056 0.966728 0.730682 -0.738563
H49   H     H_    0.628242 0.985970 0.748224 0.248407
H50   H     H_    0.704441 0.962367 0.765899 0.216086
H51   H     H_    0.661123 0.920346 0.712581 0.315438
O70   O     O_3   0.904478 0.368215 0.584510 -0.606409
C168  C     C_3   0.885742 0.372301 0.642072 0.138911
H52   H     H_    0.926412 0.387576 0.667025 0.126978
H53   H     H_    0.869449 0.328114 0.660782 0.109099
C169  C     C_3   0.836105 0.420769 0.648540 -0.239276
H54   H     H_    0.852469 0.464908 0.630645 0.236135
H55   H     H_    0.794167 0.406413 0.625001 0.266291
C170  C     C_3   0.819112 0.431423 0.710519 -1.044170
H56   H     H_    0.803525 0.387660 0.729929 0.268415
H57   H     H_    0.781347 0.464651 0.713529 0.277328
H58   H     H_    0.859334 0.450785 0.733870 0.263878
O71   O     O_3   0.367903 0.087425 0.588160 -0.610785
C171  C     C_3   0.369005 0.112756 0.643934 0.130133
H59   H     H_    0.379682 0.074685 0.672912 0.142183
H60   H     H_    0.324474 0.131541 0.658674 0.098568
C172  C     C_3   0.420007 0.162358 0.649085 -0.244174
H61   H     H_    0.461256 0.148195 0.625192 0.248232
H62   H     H_    0.404798 0.206064 0.631061 0.260959
C173  C     C_3   0.438271 0.174668 0.710610 -1.057153
H63   H     H_    0.397829 0.188987 0.735757 0.266752
H64   H     H_    0.473621 0.212041 0.712660 0.277673
H65   H     H_    0.457961 0.132769 0.728732 0.270578
O72   O     O_3   0.064036 0.638371 0.599134 -0.586589
C174  C     C_3   0.028127 0.657733 0.646060 0.043671
H66   H     H_    0.988558 0.625258 0.649992 0.158938
H67   H     H_    0.007877 0.704071 0.641395 0.105124
C175  C     C_3   0.066370 0.656233 0.700457 -0.302562
H68   H     H_    0.085694 0.609889 0.704952 0.245619
H69   H     H_    0.105052 0.690025 0.697688 0.236010
C176  C     C_3   0.027985 0.671363 0.752810 -0.931270
H70   H     H_    0.010129 0.718534 0.749907 0.258667
H71   H     H_    0.056872 0.668646 0.791474 0.302849
H72   H     H_    0.988907 0.638192 0.756712 0.268731
O73   O     O_3   0.868494 0.417252 0.908120 -0.611217
C177  C     C_3   0.870637 0.401698 0.849376 0.136296
H73   H     H_    0.892388 0.440988 0.827437 0.147135
H74   H     H_    0.824399 0.396483 0.829513 0.074200
C178  C     C_3   0.907705 0.342904 0.838932 -0.228591
H75   H     H_    0.925244 0.325158 0.879738 0.276467
H76   H     H_    0.876856 0.307087 0.819719 0.193411
C179  C     C_3   0.962121 0.351542 0.798932 -0.988407
H77   H     H_    0.948461 0.376833 0.760734 0.256629
H78   H     H_    0.979102 0.306018 0.785278 0.256050
H79   H     H_    0.000178 0.376418 0.820984 0.286358
O74   O     O_3   0.559762 0.872919 0.896769 -0.612561
C180  C     C_3   0.620508 0.888725 0.878434 0.178046
H80   H     H_    0.619572 0.934276 0.858133 0.164118
H81   H     H_    0.638755 0.857785 0.844882 0.164263
C181  C     C_3   0.665807 0.892315 0.928286 -0.386865
H82   H     H_    0.654310 0.931339 0.956796 0.256688
H83   H     H_    0.663031 0.849235 0.952926 0.207543
C182  C     C_3   0.731531 0.901997 0.907397 -0.999906
H84   H     H_    0.745452 0.862683 0.880160 0.268140
H85   H     H_    0.763041 0.905577 0.944365 0.275740
H86   H     H_    0.735625 0.944964 0.882740 0.268546
O75   O     O_3   0.137114 0.548457 0.892870 -0.598445
C183  C     C_3   0.154949 0.501133 0.854703 0.044870
H87   H     H_    0.117401 0.466096 0.852901 0.160849
H88   H     H_    0.196358 0.475964 0.868408 0.115240
C184  C     C_3   0.165268 0.527087 0.795268 -0.313362
H89   H     H_    0.125056 0.554313 0.783160 0.253840
H90   H     H_    0.206492 0.557926 0.795593 0.218194
C185  C     C_3   0.174293 0.476137 0.751204 -0.941731
H91   H     H_    0.215045 0.448965 0.762065 0.259553
H92   H     H_    0.181534 0.496587 0.708716 0.282199
H93   H     H_    0.133095 0.445327 0.749247 0.269780
O76   O     O_3   0.420639 0.132510 0.908596 -0.619791
C186  C     C_3   0.397328 0.131839 0.852425 0.130516
H94   H     H_    0.436472 0.123699 0.823522 0.121747
H95   H     H_    0.377965 0.176282 0.838969 0.124706
C187  C     C_3   0.350777 0.078368 0.844608 -0.215727
H96   H     H_    0.375163 0.036122 0.832152 0.193647
H97   H     H_    0.326644 0.068718 0.885184 0.275251
C188  C     C_3   0.303152 0.091508 0.799232 -0.984272
H98   H     H_    0.276000 0.132062 0.811581 0.281978
H99   H     H_    0.271435 0.051316 0.794042 0.267657
H100  H     H_    0.326051 0.100278 0.758128 0.247578
O77   O     O_3   0.135337 0.460994 0.111298 -0.594606
C189  C     C_3   0.153527 0.515713 0.140781 0.055365
H101  H     H_    0.115408 0.548263 0.137531 0.124138
H102  H     H_    0.193721 0.540724 0.122065 0.134235
C190  C     C_3   0.164172 0.503562 0.204106 -0.315490
H103  H     H_    0.153507 0.545729 0.228955 0.180720
H104  H     H_    0.132690 0.466256 0.218773 0.259444
C191  C     C_3   0.230419 0.486955 0.216769 -0.867713
H105  H     H_    0.242195 0.442908 0.195971 0.262522
H106  H     H_    0.236323 0.481988 0.263302 0.266852
H107  H     H_    0.262534 0.523609 0.201969 0.233647
O78   O     O_3   0.422378 0.867515 0.093327 -0.623440
C192  C     C_3   0.400730 0.870610 0.150104 0.137408
H108  H     H_    0.440432 0.883264 0.177384 0.119573
H109  H     H_    0.383197 0.825926 0.166769 0.126261
C193  C     C_3   0.352824 0.921154 0.156239 -0.207178
H110  H     H_    0.376037 0.965704 0.166329 0.194318
H111  H     H_    0.327809 0.926939 0.115671 0.274346
C194  C     C_3   0.306413 0.907412 0.203107 -0.986765
H112  H     H_    0.280803 0.863881 0.193880 0.282745
H113  H     H_    0.273178 0.945153 0.206325 0.265661
H114  H     H_    0.330267 0.903725 0.244258 0.248604
O79   O     O_3   0.873601 0.564497 0.100763 -0.612702
C195  C     C_3   0.888691 0.626712 0.115848 0.169158
H115  H     H_    0.935778 0.628439 0.133609 0.156844
H116  H     H_    0.859689 0.645595 0.150431 0.160897
C196  C     C_3   0.887009 0.669250 0.064372 -0.383970
H117  H     H_    0.925349 0.658544 0.035101 0.251632
H118  H     H_    0.842998 0.662641 0.041107 0.207749
C197  C     C_3   0.893611 0.736471 0.082650 -1.003844
H119  H     H_    0.854702 0.749561 0.110455 0.266302
H120  H     H_    0.893568 0.765904 0.044535 0.276029
H121  H     H_    0.937407 0.744545 0.105894 0.268778
O80   O     O_3   0.589614 0.135501 0.086238 -0.602026
C198  C     C_3   0.603445 0.138160 0.145047 0.143790
H122  H     H_    0.563618 0.117473 0.167598 0.155113
H123  H     H_    0.608010 0.185929 0.162383 0.066517
C199  C     C_3   0.662118 0.102308 0.157845 -0.246928
H124  H     H_    0.683225 0.085242 0.117815 0.280908
H125  H     H_    0.695955 0.133727 0.179198 0.185623
C200  C     C_3   0.651145 0.047112 0.195879 -0.970278
H126  H     H_    0.624794 0.060234 0.234123 0.257550
H127  H     H_    0.695862 0.028970 0.209586 0.253816
H128  H     H_    0.626122 0.010152 0.172251 0.294978
O81   O     O_3   0.183929 0.783629 0.441998 -0.774784
H129  H     H_    0.208829 0.753840 0.420481 0.335264
O82   O     O_3   0.206737 0.218720 0.427185 -0.760684
H130  H     H_    0.233884 0.255724 0.428203 0.348547
O83   O     O_3   0.818209 0.213781 0.432961 -0.783168
H131  H     H_    0.794272 0.242116 0.409653 0.334958
O84   O     O_3   0.784790 0.802430 0.447863 -0.748415
H132  H     H_    0.755378 0.777670 0.424658 0.332866
O85   O     O_3   0.782631 0.800258 0.589249 -0.752594
H133  H     H_    0.761121 0.783752 0.622933 0.330655
O86   O     O_3   0.787574 0.180077 0.572572 -0.784154
H134  H     H_    0.758998 0.204902 0.595529 0.332836
O87   O     O_3   0.195295 0.215131 0.554978 -0.748731
H135  H     H_    0.221365 0.244947 0.576539 0.332548
O88   O     O_3   0.208205 0.805364 0.582061 -0.765441
H136  H     H_    0.229533 0.782962 0.612174 0.336882
O89   O     O_3   0.684954 0.290154 0.925450 -0.774166
H137  H     H_    0.711166 0.256403 0.937949 0.352571
O90   O     O_3   0.598683 0.673676 0.819924 -0.773289
H138  H     H_    0.617105 0.699566 0.789897 0.340606
O91   O     O_3   0.295619 0.704494 0.915777 -0.760576
H139  H     H_    0.260927 0.733060 0.915613 0.349453
O92   O     O_3   0.284952 0.299269 0.957682 -0.755398
H140  H     H_    0.254416 0.268318 0.970805 0.354678
O93   O     O_3   0.280853 0.299350 0.088119 -0.764020
H141  H     H_    0.243666 0.272565 0.090055 0.347292
O94   O     O_3   0.286325 0.691571 0.055379 -0.768457
H142  H     H_    0.255381 0.720672 0.042096 0.351212
O95   O     O_3   0.675034 0.603104 0.177071 -0.775910
H143  H     H_    0.700851 0.625108 0.205673 0.333020
O96   O     O_3   0.715932 0.316748 0.056031 -0.772591
H144  H     H_    0.749121 0.289814 0.042710 0.355491
O97   O     O_3   0.122950 0.892038 0.439164 -0.610707
C201  C     C_3   0.113975 0.874573 0.381056 0.158824
H145  H     H_    0.071809 0.845203 0.378500 0.161823
H146  H     H_    0.151289 0.846893 0.362097 0.132258
C202  C     C_3   0.105430 0.930771 0.343917 -0.378177
H147  H     H_    0.063455 0.954852 0.357161 0.238984
H148  H     H_    0.145573 0.962591 0.348981 0.211982
C203  C     C_3   0.099025 0.912427 0.281364 -1.004063
H149  H     H_    0.142204 0.892110 0.265580 0.271962
H150  H     H_    0.089238 0.953490 0.255856 0.277269
H151  H     H_    0.060722 0.878558 0.275558 0.269154
O98   O     O_3   0.110220 0.132507 0.443157 -0.602599
C204  C     C_3   0.128602 0.113778 0.387353 0.146229
H152  H     H_    0.151285 0.068978 0.390472 0.151599
H153  H     H_    0.164044 0.143799 0.367769 0.179563
C205  C     C_3   0.073977 0.106480 0.346611 -0.401347
H154  H     H_    0.046050 0.065624 0.358444 0.241273
H155  H     H_    0.044845 0.147555 0.349199 0.201451
C206  C     C_3   0.095490 0.098008 0.285345 -0.991098
H156  H     H_    0.119337 0.140424 0.270582 0.274419
H157  H     H_    0.055430 0.088279 0.257336 0.275223
H158  H     H_    0.127299 0.059052 0.281951 0.270760
O99   O     O_3   0.878626 0.105538 0.435505 -0.608987
C207  C     C_3   0.889829 0.119797 0.377306 0.163294
H159  H     H_    0.932295 0.148727 0.375351 0.155754
H160  H     H_    0.853528 0.146733 0.356609 0.131893
C208  C     C_3   0.899026 0.061625 0.341532 -0.377478
H161  H     H_    0.940280 0.037911 0.356357 0.237895
H162  H     H_    0.858455 0.030414 0.346108 0.210095
C209  C     C_3   0.907637 0.076671 0.278859 -1.009490
H163  H     H_    0.864987 0.095964 0.261407 0.270099
H164  H     H_    0.918472 0.034318 0.254525 0.277903
H165  H     H_    0.945972 0.110430 0.273485 0.270252
O100  O     O_3   0.891141 0.871850 0.443718 -0.598532
C210  C     C_3   0.872950 0.882062 0.386424 0.152742
H166  H     H_    0.848116 0.925887 0.385409 0.155788
H167  H     H_    0.840161 0.847085 0.368716 0.139459
C211  C     C_3   0.928438 0.886842 0.346639 -0.383615
H168  H     H_    0.955805 0.928747 0.357401 0.238185
H169  H     H_    0.957682 0.846193 0.351671 0.211554
C212  C     C_3   0.908456 0.890512 0.284685 -1.007478
H170  H     H_    0.884690 0.847158 0.271235 0.267861
H171  H     H_    0.949260 0.897795 0.257187 0.275238
H172  H     H_    0.877035 0.929324 0.278961 0.271837
O101  O     O_3   0.865393 0.894374 0.561703 -0.605148
C213  C     C_3   0.883301 0.882931 0.619025 0.142620
H173  H     H_    0.932936 0.891968 0.621972 0.181311
H174  H     H_    0.877341 0.833759 0.629473 0.174670
C214  C     C_3   0.853866 0.924089 0.664948 -0.480760
H175  H     H_    0.853504 0.972277 0.650483 0.232219
H176  H     H_    0.806103 0.908105 0.673025 0.215532
C215  C     C_3   0.888554 0.921320 0.721095 -0.930339
H177  H     H_    0.891996 0.873061 0.735025 0.266066
H178  H     H_    0.863765 0.947629 0.754296 0.270210
H179  H     H_    0.935314 0.941695 0.716336 0.264975
O102  O     O_3   0.897311 0.122797 0.570013 -0.607005
C216  C     C_3   0.882815 0.116241 0.628810 0.165089
H180  H     H_    0.842739 0.084168 0.632247 0.161808
H181  H     H_    0.870302 0.159715 0.651150 0.106807
C217  C     C_3   0.936885 0.089876 0.660944 -0.360130
H182  H     H_    0.947044 0.043448 0.644169 0.244067
H183  H     H_    0.977836 0.120167 0.655085 0.218776
C218  C     C_3   0.923349 0.085530 0.724395 -1.019217
H184  H     H_    0.918463 0.132106 0.743323 0.271156
H185  H     H_    0.961709 0.062607 0.745921 0.277121
H186  H     H_    0.880395 0.058523 0.731629 0.276183
O103  O     O_3   0.127682 0.108037 0.559015 -0.595191
C219  C     C_3   0.119094 0.125157 0.617182 0.161849
H187  H     H_    0.076792 0.152382 0.620107 0.154741
H188  H     H_    0.156180 0.155213 0.635398 0.133889
C220  C     C_3   0.111535 0.068632 0.654666 -0.403348
H189  H     H_    0.068294 0.043624 0.643483 0.236433
H190  H     H_    0.150787 0.037783 0.647595 0.216307
C221  C     C_3   0.109032 0.086370 0.717547 -1.000849
H191  H     H_    0.152990 0.108748 0.731026 0.274131
H192  H     H_    0.101320 0.044545 0.743192 0.272407
H193  H     H_    0.070879 0.118224 0.725742 0.272918
O104  O     O_3   0.105816 0.874288 0.563962 -0.615206
C222  C     C_3   0.111516 0.887183 0.623513 0.145081
H194  H     H_    0.100883 0.936052 0.630211 0.172069
H195  H     H_    0.159601 0.883003 0.637932 0.175837
C223  C     C_3   0.067744 0.849506 0.661992 -0.470333
H196  H     H_    0.021258 0.847082 0.643278 0.225107
H197  H     H_    0.084196 0.801933 0.665786 0.202765
C224  C     C_3   0.064172 0.877590 0.721596 -0.929702
H198  H     H_    0.110158 0.878307 0.741842 0.271976
H199  H     H_    0.032114 0.849776 0.747961 0.270589
H200  H     H_    0.047187 0.925161 0.719814 0.250106
O105  O     O_3   0.622938 0.397218 0.929157 -0.599661
C225  C     C_3   0.611135 0.387161 0.870135 0.148542
H201  H     H_    0.561755 0.375177 0.865296 0.160552
H202  H     H_    0.635701 0.347351 0.851968 0.168287
C226  C     C_3   0.625274 0.444340 0.834600 -0.437043
H203  H     H_    0.596641 0.482902 0.849230 0.260260
H204  H     H_    0.674428 0.457897 0.839130 0.202997
C227  C     C_3   0.611864 0.432149 0.771816 -0.949502
H205  H     H_    0.640905 0.394703 0.755210 0.267818
H206  H     H_    0.622167 0.474285 0.747315 0.278997
H207  H     H_    0.562746 0.419189 0.765723 0.262388
O106  O     O_3   0.605840 0.635182 0.931821 -0.602407
C228  C     C_3   0.670294 0.644450 0.924673 0.132035
H208  H     H_    0.692515 0.638564 0.966441 0.135215
H209  H     H_    0.684477 0.691228 0.910231 0.100980
C229  C     C_3   0.696455 0.596246 0.883852 -0.290863
H210  H     H_    0.682152 0.549941 0.897619 0.222013
H211  H     H_    0.678809 0.602159 0.840250 0.264322
C230  C     C_3   0.766390 0.600086 0.882092 -0.992544
H212  H     H_    0.782007 0.645121 0.865276 0.270386
H213  H     H_    0.783928 0.563103 0.853955 0.266114
H214  H     H_    0.785705 0.594344 0.925257 0.272441
O107  O     O_3   0.374265 0.607419 0.936082 -0.602963
C231  C     C_3   0.393497 0.620707 0.879289 0.169455
H215  H     H_    0.438355 0.645569 0.881402 0.171440
H216  H     H_    0.363486 0.652254 0.856247 0.170891
C232  C     C_3   0.401060 0.562325 0.843040 -0.407896
H217  H     H_    0.440405 0.536231 0.858837 0.255509
H218  H     H_    0.358782 0.533127 0.845454 0.201822
C233  C     C_3   0.413664 0.577578 0.780981 -0.955066
H219  H     H_    0.374118 0.601584 0.762513 0.270084
H220  H     H_    0.420839 0.534589 0.756286 0.271954
H221  H     H_    0.455590 0.607147 0.777483 0.285935
O108  O     O_3   0.390105 0.371234 0.947260 -0.597288
C234  C     C_3   0.369616 0.381446 0.890656 0.151416
H222  H     H_    0.347095 0.426540 0.889838 0.151669
H223  H     H_    0.333909 0.348050 0.875358 0.152171
C235  C     C_3   0.423210 0.382556 0.848418 -0.407403
H224  H     H_    0.453713 0.422832 0.857556 0.241586
H225  H     H_    0.450067 0.340128 0.852488 0.210842
C236  C     C_3   0.400487 0.386924 0.787360 -0.990579
H226  H     H_    0.372354 0.345585 0.775714 0.271023
H227  H     H_    0.440331 0.389940 0.758058 0.272004
H228  H     H_    0.372505 0.428438 0.782310 0.269846
O109  O     O_3   0.367568 0.392749 0.063293 -0.591646
C237  C     C_3   0.388068 0.378138 0.119108 0.156226
H229  H     H_    0.432928 0.355578 0.115231 0.151339
H230  H     H_    0.358975 0.343780 0.141143 0.181678
C238  C     C_3   0.396041 0.435198 0.157532 -0.414711
H231  H     H_    0.435904 0.463158 0.142998 0.243797
H232  H     H_    0.354347 0.463356 0.155813 0.206277
C239  C     C_3   0.407105 0.417491 0.219127 -0.986540
H233  H     H_    0.365799 0.393717 0.236574 0.276762
H234  H     H_    0.416870 0.459308 0.245239 0.276784
H235  H     H_    0.446883 0.386782 0.222003 0.268212
O110  O     O_3   0.391789 0.624572 0.060401 -0.598912
C240  C     C_3   0.374133 0.612379 0.117596 0.138199
H236  H     H_    0.352399 0.565999 0.118655 0.152677
H237  H     H_    0.338588 0.643401 0.134716 0.154847
C241  C     C_3   0.429619 0.613948 0.157596 -0.390926
H238  H     H_    0.460720 0.576054 0.146360 0.247204
H239  H     H_    0.455157 0.658266 0.153420 0.208477
C242  C     C_3   0.409713 0.606888 0.219361 -0.982209
H240  H     H_    0.381958 0.646579 0.233040 0.269952
H241  H     H_    0.450845 0.605018 0.246977 0.279486
H242  H     H_    0.382072 0.563989 0.224558 0.267893
O111  O     O_3   0.635220 0.607148 0.065058 -0.603713
C243  C     C_3   0.643723 0.671836 0.072430 0.131148
H243  H     H_    0.636308 0.693506 0.030848 0.136218
H244  H     H_    0.690813 0.686801 0.086046 0.098021
C244  C     C_3   0.596444 0.698083 0.114058 -0.287783
H245  H     H_    0.549717 0.683102 0.101359 0.221384
H246  H     H_    0.603836 0.681393 0.157598 0.263467
C245  C     C_3   0.599785 0.768072 0.115817 -0.989737
H247  H     H_    0.644998 0.784230 0.132531 0.267617
H248  H     H_    0.563154 0.785767 0.144034 0.269273
H249  H     H_    0.593275 0.786770 0.072692 0.273865
O112  O     O_3   0.607903 0.378765 0.060178 -0.617047
C246  C     C_3   0.627533 0.391396 0.117130 0.179402
H250  H     H_    0.660239 0.431137 0.116233 0.177232
H251  H     H_    0.652270 0.353578 0.137841 0.133832
C247  C     C_3   0.573194 0.407787 0.155185 -0.381673
H252  H     H_    0.550696 0.449101 0.139023 0.259246
H253  H     H_    0.539396 0.368951 0.155082 0.203573
C248  C     C_3   0.593826 0.421272 0.216102 -0.967222
H254  H     H_    0.614535 0.380036 0.234717 0.264938
H255  H     H_    0.553707 0.434291 0.242333 0.273328
H256  H     H_    0.627918 0.459878 0.217115 0.286345

loop_
_geom_bond_atom_site_label_1
_geom_bond_atom_site_label_2
_ccdc_geom_bond_type
O84   H132  S    
C234  H223  S    
C5    C37   S    
C198  H123  S    
C165  C166  S    
O109  C237  S    
C30   C45   S    
O54   H6    S    
C232  H217  S    
C117  C133  A    
C207  H160  S    
C178  H75   S    
C75   O67   S    
C238  H231  S    
C215  H177  S    
C224  H200  S    
C163  H40   S    
C47   O43   A    
C196  H118  S    
C101  O59   S    
C225  H201  S    
C20   C40   A    
C19   C83   A    
O41   Zn11  S    
C130  C146  A    
O112  C246  S    
C233  H220  S    
C160  H33   S    
C22   C38   A    
C244  H245  S    
C226  C227  S    
C62   C70   T    
C245  H249  S    
O21   Zn1   S    
O104  C222  S    
C202  H147  S    
C123  O99   S    
C247  H252  S    
C8    O16   A    
C199  C200  S    
C88   C104  A    
C169  C170  S    
C222  H194  S    
C231  H216  S    
O98   C204  S    
C175  H68   S    
C28   C144  A    
C129  C145  A    
C231  C232  S    
C31   C147  A    
C106  O82   S    
C2    C34   S    
C233  H221  S    
O65   C153  S    
C199  H125  S    
C114  C130  A    
O9    Zn5   S    
C108  C124  A    
C82   O74   S    
C136  C152  A    
C127  O103  S    
C78   O70   S    
O1    Zn1   S    
O27   Zn7   S    
C154  H20   S    
C174  H66   S    
C84   C100  A    
C91   C107  A    
C1    O7    A    
C179  H77   S    
C193  H111  S    
C188  H100  S    
C57   C65   T    
C216  H181  S    
C98   O62   S    
C56   O32   A    
C26   C138  A    
C23   C37   A    
C7    O11   A    
C242  H240  S    
C183  C184  S    
C54   O26   A    
C53   O25   A    
C16   C80   A    
C5    O9    A    
O50   H2    S    
O57   H9    S    
C242  H241  S    
O56   H8    S    
C43   O35   A    
C121  O97   S    
C217  H182  S    
C175  C176  S    
C213  H173  S    
C210  H167  S    
C127  C143  A    
C110  O86   S    
C180  C181  S    
C128  C144  A    
O40   Zn10  S    
C87   C103  A    
C157  H27   S    
C167  H49   S    
C244  H246  S    
C203  H150  S    
C209  H164  S    
C212  H171  S    
O12   Zn8   S    
C190  H103  S    
C115  O91   S    
C202  C203  S    
C197  H120  S    
C211  H168  S    
O82   H130  S    
C178  C179  S    
O70   C168  S    
C168  C169  S    
C158  H29   S    
C173  H65   S    
C16   C144  A    
C203  H151  S    
C191  H106  S    
C125  O101  S    
C209  H165  S    
C41   O37   A    
C74   C90   A    
C11   C35   A    
O38   Zn10  S    
C90   O54   S    
C164  H43   S    
C83   O75   S    
C29   C145  A    
C177  C178  S    
C78   C94   A    
C46   O48   A    
O26   Zn6   S    
C227  H206  S    
C181  H82   S    
C18   C82   A    
C239  H235  S    
C192  H108  S    
C186  C187  S    
O30   Zn8   S    
C162  H39   S    
C18   C38   A    
C236  H226  S    
O18   Zn2   S    
C98   C114  A    
C73   C89   A    
C132  O108  S    
O33   Zn9   S    
C73   O65   S    
C241  H238  S    
C219  H188  S    
C232  C233  S    
C228  H209  S    
C184  H89   S    
C7    C39   S    
C223  H196  S    
C10   C138  A    
C156  H25   S    
C189  H101  S    
O13   Zn5   S    
C84   O76   S    
O15   Zn7   S    
C155  H21   S    
C248  H255  S    
C235  H225  S    
C14   C142  A    
O81   H129  S    
O31   Zn7   S    
O29   Zn5   S    
O111  C243  S    
C179  H79   S    
C218  H186  S    
C204  C205  S    
C187  H96   S    
C182  H86   S    
O85   H133  S    
C154  H19   S    
C166  H47   S    
C237  H230  S    
C222  H195  S    
C79   O71   S    
C13   C35   A    
O37   Zn10  S    
C206  H157  S    
C220  C221  S    
C235  C236  S    
C185  H91   S    
C45   O45   A    
O79   C195  S    
C217  C218  S    
C123  C139  A    
C14   C78   A    
C49   C57   S    
C171  H59   S    
C93   O51   S    
C156  H24   S    
C121  C137  A    
O107  C231  S    
C228  H208  S    
C173  H64   S    
C52   C60   S    
C59   C67   T    
C53   C61   S    
C92   C108  A    
C167  H51   S    
C15   C79   A    
O35   Zn9   S    
C92   O56   S    
C125  C141  A    
O78   C192  S    
C237  C238  S    
C116  C132  A    
C190  C191  S    
C56   C64   S    
C131  C147  A    
C201  H145  S    
C161  H35   S    
C21   C149  A    
O46   Zn12  S    
O59   H11   S    
C50   O18   A    
C118  C134  A    
C215  H179  S    
C75   C91   A    
C44   O38   A    
C129  O105  S    
C2    O2    A    
O61   H13   S    
C176  H71   S    
C47   O47   A    
O100  C210  S    
O3    Zn3   S    
C53   O27   A    
C183  H88   S    
C200  H127  S    
C105  O81   S    
C46   O42   A    
C230  H214  S    
C104  O60   S    
C82   C98   A    
C41   O33   A    
C95   C111  A    
O24   Zn2   S    
C195  H116  S    
C10   C34   A    
C8    O12   A    
C177  H73   S    
O51   H3    S    
C97   O63   S    
C181  C182  S    
C27   C139  A    
C48   O46   A    
C174  H67   S    
C236  H228  S    
C25   C137  A    
O105  C225  S    
C29   C151  A    
O86   H134  S    
C32   C152  A    
C241  C242  S    
C3    C35   S    
O60   H12   S    
C243  H243  S    
C106  C122  A    
C201  C202  S    
O22   Zn4   S    
O69   C165  S    
C159  H31   S    
C245  H248  S    
O80   C198  S    
C245  H247  S    
C110  C126  A    
C155  H23   S    
C15   C143  A    
C76   C92   A    
C20   C84   A    
C221  H192  S    
O34   Zn9   S    
O5    Zn1   S    
C218  H184  S    
C86   C102  A    
C52   O22   A    
C190  H104  S    
C240  C241  S    
C153  H17   S    
O106  C228  S    
C172  C173  S    
C225  C226  S    
C113  O89   S    
C195  H115  S    
C14   C34   A    
C220  H189  S    
C85   O77   S    
C224  H199  S    
C65   C72   S    
C8    C40   S    
C163  H41   S    
C171  C172  S    
C156  C157  S    
C11   C75   A    
C16   C36   A    
C225  H202  S    
C27   C42   S    
C204  H153  S    
C184  C185  S    
C109  O85   S    
C247  H253  S    
O96   H144  S    
C122  O98   S    
C51   C59   S    
C205  H154  S    
C31   C46   S    
C163  C164  S    
O95   H143  S    
C214  C215  S    
C89   C105  A    
C210  H166  S    
C3    O5    A    
O68   C162  S    
C175  H69   S    
C119  O95   S    
C6    C38   S    
O89   H137  S    
C93   C109  A    
O102  C216  S    
C153  C154  S    
C103  O57   S    
C160  C161  S    
C6    O14   A    
C238  C239  S    
C161  H37   S    
C246  H251  S    
C118  O94   S    
C208  H161  S    
C100  C116  A    
C107  C123  A    
C208  C209  S    
C158  H28   S    
O49   H1    S    
C128  O104  S    
C94   O50   S    
O14   Zn8   S    
C112  O88   S    
O73   C177  S    
C27   C141  A    
O8    Zn2   S    
O62   H14   S    
C179  H78   S    
C166  C167  S    
C188  H99   S    
C99   C115  A    
C216  H180  S    
C31   C149  A    
C194  H114  S    
C30   C150  A    
O64   H16   S    
C243  C244  S    
O32   Zn6   S    
C165  H45   S    
O20   Zn4   S    
C11   C139  A    
O76   C186  S    
C24   C152  A    
O2    Zn2   S    
C9    C137  A    
C196  H117  S    
C229  H211  S    
C68   C69   S    
C154  C155  S    
C217  H183  S    
C213  H174  S    
C162  H38   S    
C12   C140  A    
C13   C141  A    
C180  H81   S    
C52   O24   A    
C214  H175  S    
C167  H50   S    
O72   C174  S    
C7    O13   A    
C234  C235  S    
C172  H61   S    
O83   H131  S    
C83   C99   A    
C212  H170  S    
O10   Zn6   S    
C198  C199  S    
C9    C33   A    
C202  H148  S    
C239  H233  S    
C86   O78   S    
C211  H169  S    
C157  C158  S    
C207  H159  S    
C178  H76   S    
C215  H178  S    
C168  H53   S    
C45   O41   A    
C194  H113  S    
C21   C85   A    
C213  C214  S    
C170  H56   S    
C50   C58   S    
C196  C197  S    
C122  C138  A    
C108  O84   S    
O52   H4    S    
C111  O87   S    
O47   Zn12  S    
C54   C62   S    
C87   O79   S    
C233  H219  S    
C240  H236  S    
C94   C110  A    
C124  O100  S    
O94   H142  S    
C120  C136  A    
C211  C212  S    
C17   C145  A    
O90   H138  S    
C79   C95   A    
C164  H42   S    
C135  O111  S    
O36   Zn9   S    
C66   C71   S    
O25   Zn5   S    
C205  C206  S    
C2    O6    A    
C3    O3    A    
C186  H95   S    
O48   Zn12  S    
O110  C240  S    
C1    O1    A    
C24   C88   A    
C90   C106  A    
C63   C71   T    
C117  O93   S    
C4    O4    A    
C241  H239  S    
C12   C76   A    
C13   C77   A    
C133  O109  S    
C199  H124  S    
C246  C247  S    
C223  H197  S    
C189  H102  S    
C114  O90   S    
C229  H210  S    
C155  H22   S    
C248  H254  S    
C24   C40   A    
C216  C217  S    
C124  C140  A    
C168  H52   S    
C89   O55   S    
C193  H110  S    
C218  H185  S    
C238  H232  S    
C187  H97   S    
C194  H112  S    
C182  H85   S    
C32   C148  A    
C96   O52   S    
C28   C43   S    
O67   C159  S    
C101  C117  A    
C170  H58   S    
O93   H141  S    
C19   C147  A    
O23   Zn3   S    
O45   Zn12  S    
C242  H242  S    
C49   O17   A    
C220  H190  S    
C185  H92   S    
C135  C151  A    
O11   Zn7   S    
C81   C97   A    
C126  C142  A    
C210  C211  S    
C17   C81   A    
C22   C86   A    
O19   Zn3   S    
C119  C135  A    
C112  C128  A    
C187  C188  S    
O17   Zn1   S    
C99   O61   S    
C244  C245  S    
C203  H149  S    
C60   C68   T    
C81   O73   S    
C209  H163  S    
C212  H172  S    
C198  H122  S    
C192  H109  S    
C55   O31   A    
C197  H119  S    
C201  H146  S    
C207  C208  S    
C104  C120  A    
C185  H93   S    
C158  H30   S    
O71   C171  S    
C80   O72   S    
C176  H70   S    
C186  H94   S    
C28   C140  A    
C206  H156  S    
C191  H105  S    
C200  H126  S    
C204  H152  S    
C1    C33   S    
O103  C219  S    
C230  H213  S    
C115  C131  A    
C96   C112  A    
O108  C234  S    
C113  C129  A    
C227  H205  S    
O63   H15   S    
C164  H44   S    
C77   O69   S    
C177  H74   S    
C134  O110  S    
C134  C150  A    
C236  H227  S    
O101  C213  S    
C107  O83   S    
C162  C163  S    
C51   O21   A    
C131  O107  S    
C226  H204  S    
O42   Zn11  S    
O44   Zn11  S    
C58   C66   T    
C22   C150  A    
O75   C183  S    
C219  H187  S    
C197  H121  S    
C243  H244  S    
C246  H250  S    
C195  C196  S    
C80   C96   A    
C161  H36   S    
C171  H60   S    
C229  C230  S    
C248  H256  S    
C42   O34   A    
C5    O15   A    
C235  H224  S    
C43   O39   A    
C23   C87   A    
C48   O44   A    
C221  H193  S    
C25   C143  A    
C9    C73   A    
C193  C194  S    
C25   C44   S    
C181  H83   S    
C30   C146  A    
C240  H237  S    
C153  H18   S    
C172  H62   S    
C237  H229  S    
C29   C48   S    
C132  C148  A    
C6    O10   A    
C222  C223  S    
C133  C149  A    
C4    C36   S    
C239  H234  S    
C206  H158  S    
O99   C207  S    
C49   O19   A    
C224  H198  S    
C223  C224  S    
C189  C190  S    
C234  H222  S    
C55   C63   S    
C170  H57   S    
C136  O112  S    
C51   O23   A    
O43   Zn11  S    
C173  H63   S    
C192  C193  S    
O53   H5    S    
O7    Zn3   S    
C230  H212  S    
C21   C39   A    
C159  C160  S    
O66   C156  S    
C20   C148  A    
C226  H203  S    
C55   O29   A    
C105  C121  A    
C184  H90   S    
C17   C37   A    
O74   C180  S    
C247  C248  S    
O77   C189  S    
C100  O64   S    
C19   C39   A    
C44   O36   A    
O6    Zn4   S    
C109  C125  A    
C169  H54   S    
C205  H155  S    
C214  H176  S    
C111  C127  A    
C95   O49   S    
C176  H72   S    
O16   Zn6   S    
C12   C36   A    
C97   C113  A    
O4    Zn4   S    
C191  H107  S    
C130  O106  S    
C200  H128  S    
C85   C101  A    
C231  H215  S    
C77   C93   A    
C126  O102  S    
C61   C69   T    
C160  H34   S    
C157  H26   S    
C23   C151  A    
O55   H7    S    
C227  H207  S    
C103  C119  A    
C159  H32   S    
C228  C229  S    
C18   C146  A    
C102  C118  A    
C91   O53   S    
C50   O20   A    
C208  H162  S    
C76   O68   S    
C174  C175  S    
C232  H218  S    
O92   H140  S    
C166  H48   S    
C26   C142  A    
C188  H98   S    
C4    O8    A    
C10   C74   A    
C182  H84   S    
O91   H139  S    
C102  O58   S    
C56   O30   A    
C219  C220  S    
C169  H55   S    
C183  H87   S    
C32   C47   S    
C54   O28   A    
C165  H46   S    
C64   C72   T    
O97   C201  S    
C116  O92   S    
C120  O96   S    
O39   Zn10  S    
O88   H136  S    
C42   O40   A    
O87   H135  S    
O58   H10   S    
C221  H191  S    
C67   C70   S    
C180  H80   S    
O28   Zn8   S    
C15   C33   A    
C74   O66   S    
C26   C41   S    
C88   O80   S    
