data_mof_unit_53506.cif
_audit_creation_date              2012-12-11T15:21:12-0500
_audit_creation_method            fapswitch 2.2
_symmetry_space_group_name_H-M    P1
_symmetry_Int_Tables_number       1
_space_group_crystal_system       triclinic
_cell_length_a                    18.355181
_cell_length_b                    18.355082
_cell_length_c                    51.105866
_cell_angle_alpha                 89.847016
_cell_angle_beta                  90.213887
_cell_angle_gamma                 120.033539
_cell_volume                      14906.1778239

loop_
_atom_site_label
_atom_site_type_symbol
_atom_type_description
_atom_site_fract_x
_atom_site_fract_y
_atom_site_fract_z
_atom_type_partial_charge
C1    C     C_R   0.409886 0.583984 0.287564 0.557094
C2    C     C_R   0.503153 0.406312 0.855021 -0.071273
C3    C     C_R   0.457941 0.906291 0.094475 0.399949
C4    C     C_R   0.475932 0.035198 0.398892 0.423566
C5    C     C_R   0.483012 0.046203 0.102206 0.404491
C6    C     C_R   0.490398 0.908348 0.356888 0.158610
C7    C     C_R   0.523984 0.968956 0.154370 0.168075
C8    C     C_R   0.489270 0.876279 0.331933 0.119495
C9    C     C_R   0.513592 0.933896 0.179397 0.109892
C10   C     C_R   0.371639 0.895964 0.319933 -0.167306
C11   C     C_R   0.361452 0.863602 0.173716 -0.122548
C12   C     C_R   0.372542 0.927337 0.344939 0.130146
C13   C     C_R   0.579279 0.473932 0.632162 0.242924
C14   C     C_R   0.371700 0.898846 0.148897 0.119950
C15   C     C_R   0.430959 0.932254 0.363573 0.262127
C16   C     C_R   0.453143 0.948950 0.138713 0.226035
C17   C     C_R   0.432878 0.987823 0.443708 -0.044274
C18   C     C_R   0.491494 0.002465 0.057884 -0.042856
C19   C     C_R   0.377600 0.906114 0.434101 0.021832
C20   C     C_R   0.470510 0.922268 0.067678 0.031058
C21   C     C_R   0.327155 0.841583 0.451584 -0.126903
C22   C     C_R   0.461020 0.858838 0.050475 -0.123932
C23   C     C_R   0.061685 0.576183 0.404631 0.417495
C24   C     C_R   0.563290 0.485468 0.864388 0.254198
C25   C     C_R   0.119674 0.538100 0.090810 0.422344
C26   C     C_R   0.481266 0.054531 0.426022 0.035460
C27   C     C_R   0.498449 0.066160 0.075160 0.040620
C28   C     C_R   0.428093 0.868317 0.313196 -0.033836
C29   C     C_R   0.431400 0.877001 0.188722 -0.048818
C30   C     C_R   0.559824 0.133816 0.686802 0.018464
C31   C     C_R   0.564338 0.136056 0.813850 0.022900
C32   C     C_R   0.414937 0.944778 0.515908 0.015346
C33   C     C_R   0.523507 0.974439 0.987010 0.020101
C34   C     C_R   0.491272 0.097738 0.508543 0.018823
C35   C     C_R   0.602991 0.491361 0.478368 0.015865
C36   C     C_R   0.517655 0.104136 0.992500 0.015762
C37   C     C_R   0.456479 0.027663 0.525950 0.016839
C38   C     C_R   0.520687 0.043439 0.975972 0.018602
C39   C     C_R   0.394206 0.876587 0.533379 -0.002085
C40   C     C_R   0.546127 0.926131 0.970866 -0.001236
C41   C     C_R   0.393524 0.888540 0.560672 0.011947
C42   C     C_R   0.537833 0.927996 0.943379 0.011959
C43   C     C_R   0.434414 0.971852 0.571006 0.026356
C44   C     C_R   0.525856 0.992380 0.931858 0.027815
C45   C     C_R   0.465662 0.040999 0.553431 -0.048806
C46   C     C_R   0.576122 0.497840 0.018302 0.009737
C47   C     C_R   0.521009 0.051931 0.948392 -0.051939
C48   C     C_R   0.035552 0.567877 0.345543 -0.050041
C49   C     C_R   0.054906 0.569969 0.149265 -0.056139
C50   C     C_R   0.505801 0.124127 0.563257 0.032604
C51   C     C_R   0.514664 0.119400 0.937469 0.029313
C52   C     C_R   0.518481 0.138077 0.590236 0.422212
C53   C     C_R   0.514818 0.128285 0.910264 0.438232
C54   C     C_R   0.449857 0.989302 0.598227 0.419388
C55   C     C_R   0.523238 0.002866 0.904364 0.419031
C56   C     C_R   0.452102 0.073060 0.652862 -0.035091
C57   C     C_R   0.580905 0.549658 0.468341 0.034081
C58   C     C_R   0.468323 0.085512 0.850983 -0.038299
C59   C     C_R   0.473971 0.095941 0.679140 -0.026605
C60   C     C_R   0.483318 0.109414 0.824513 -0.030006
C61   C     C_R   0.620146 0.142660 0.668245 -0.157377
C62   C     C_R   0.625809 0.133249 0.829721 -0.144398
C63   C     C_R   0.597445 0.120289 0.642269 -0.066184
C64   C     C_R   0.609917 0.109774 0.855774 -0.050856
C65   C     C_R   0.513880 0.087428 0.634386 0.229378
C66   C     C_R   0.532005 0.087542 0.866652 0.233894
C67   C     C_R   0.397133 0.933284 0.488628 0.017983
C68   C     C_R   0.509348 0.507935 0.027722 0.023966
C69   C     C_R   0.503207 0.956013 0.013851 0.018447
C70   C     C_R   0.440096 0.001946 0.471184 0.028016
C71   C     C_R   0.504880 0.018188 0.030617 0.029558
C72   C     C_R   0.070714 0.589105 0.320481 0.084389
C73   C     C_R   0.084359 0.593025 0.175001 0.074686
C74   C     C_R   0.489904 0.084070 0.481119 0.003635
C75   C     C_R   0.518202 0.094983 0.020117 0.004483
C76   C     C_R   0.334930 0.855781 0.478310 -0.154454
C77   C     C_R   0.475420 0.874985 0.023983 -0.156200
C78   C     C_R   0.534511 0.136696 0.436319 -0.002089
C79   C     C_R   0.566809 0.601311 0.485579 0.015683
C80   C     C_R   0.521244 0.146795 0.064637 -0.001651
C81   C     C_R   0.526228 0.179333 0.519171 -0.150022
C82   C     C_R   0.511119 0.170345 0.980853 -0.139980
C83   C     C_R   0.533071 0.192055 0.545972 -0.117166
C84   C     C_R   0.509362 0.177539 0.953900 -0.116670
C85   C     C_R   0.537532 0.149869 0.463397 -0.122260
C86   C     C_R   0.530056 0.159415 0.037508 -0.126758
C87   C     C_R   0.556725 0.499511 0.396907 0.414269
C88   C     C_R   0.547163 0.520792 0.099758 0.411900
C89   C     C_R   0.543890 0.622062 0.403910 0.415654
C90   C     C_R   0.455148 0.516950 0.010005 0.036604
C91   C     C_R   0.415242 0.514971 0.091481 0.416085
C92   C     C_R   0.427530 0.511064 0.355698 -0.072091
C93   C     C_R   0.482970 0.616679 0.142685 -0.065248
C94   C     C_R   0.394097 0.516763 0.331722 0.065808
C95   C     C_R   0.467442 0.633432 0.167958 0.054375
C96   C     C_R   0.126191 0.494660 0.326325 -0.184410
C97   C     C_R   0.138903 0.496581 0.173660 -0.167386
C98   C     C_R   0.536565 0.611522 0.315757 -0.042639
C99   C     C_R   0.434602 0.492026 0.181390 -0.038437
C100  C     C_R   0.569394 0.607456 0.340745 0.063132
C101  C     C_R   0.601483 0.430999 0.460959 -0.152008
C102  C     C_R   0.445949 0.474229 0.155152 0.055313
C103  C     C_R   0.513509 0.557931 0.360771 0.230115
C104  C     C_R   0.469810 0.537472 0.135885 0.225691
C105  C     C_R   0.571143 0.555491 0.440943 -0.032340
C106  C     C_R   0.497364 0.510417 0.055033 -0.032484
C107  C     C_R   0.572772 0.496334 0.423820 0.028505
C108  C     C_R   0.557831 0.513721 0.072801 0.029269
C109  C     C_R   0.586822 0.433516 0.434210 -0.115611
C110  C     C_R   0.628988 0.513291 0.063105 -0.122431
C111  C     C_R   0.558024 0.619581 0.430870 0.027530
C112  C     C_R   0.409137 0.584137 0.212500 0.558633
C113  C     C_R   0.638172 0.506034 0.036342 -0.156307
C114  C     C_R   0.425443 0.510719 0.064425 0.025744
C115  C     C_R   0.447577 0.569372 0.311685 0.047131
C116  C     C_R   0.440839 0.570612 0.187433 0.051903
C117  C     C_R   0.573387 0.436611 0.685956 -0.034611
C118  C     C_R   0.570330 0.440242 0.812493 -0.026701
C119  C     C_R   0.621250 0.493044 0.505650 0.006969
C120  C     C_R   0.580139 0.483712 0.991057 -0.007270
C121  C     C_R   0.092046 0.475029 0.351538 -0.075905
C122  C     C_R   0.109449 0.474345 0.148096 -0.060292
C123  C     C_R   0.557441 0.582146 0.512763 0.031294
C124  C     C_R   0.558749 0.679343 0.448046 -0.115086
C125  C     C_R   0.476866 0.530092 0.983107 0.060327
C126  C     C_R   0.590412 0.532019 0.522911 -0.013183
C127  C     C_R   0.535280 0.507092 0.973433 -0.025546
C128  C     C_R   0.670040 0.459322 0.516466 0.084804
C129  C     C_R   0.625177 0.445680 0.980684 0.133181
C130  C     C_R   0.674319 0.451339 0.543827 0.139550
C131  C     C_R   0.636750 0.444453 0.953607 0.133979
C132  C     C_R   0.630854 0.477121 0.560930 0.039811
C133  C     C_R   0.599601 0.476591 0.935905 0.008679
C134  C     C_R   0.591352 0.519957 0.550377 -0.078699
C135  C     C_R   0.365603 0.507082 0.046550 -0.129321
C136  C     C_R   0.548031 0.506932 0.946052 -0.069850
C137  C     C_R   0.552211 0.550650 0.567275 0.001267
C138  C     C_R   0.508314 0.536776 0.928829 0.014960
C139  C     C_R   0.550074 0.535974 0.594343 0.412599
C140  C     C_R   0.517772 0.533582 0.901725 0.414765
C141  C     C_R   0.627359 0.463611 0.588430 0.436565
C142  C     C_R   0.608134 0.475500 0.908316 0.414379
C143  C     C_R   0.516351 0.395405 0.641795 0.137430
C144  C     C_R   0.624152 0.544879 0.847273 0.135338
C145  C     C_3   0.092317 0.728776 0.434438 -0.350229
C146  C     C_R   0.513315 0.607350 0.530116 0.085779
C147  C     C_3   0.257498 0.650382 0.054283 -0.340958
C148  C     C_3   0.711210 0.372153 0.668120 -0.369901
C149  C     C_3   0.785204 0.494186 0.832240 -0.357359
C150  C     C_3   0.405207 0.079850 0.698283 -0.378138
C151  C     C_3   0.412641 0.106165 0.808503 -0.379001
C152  C     C_3   0.348944 0.811586 0.578225 -0.338014
C153  C     C_3   0.543141 0.861962 0.926863 -0.339596
C154  C     C_3   0.391938 0.796916 0.524027 -0.402160
C155  C     C_3   0.595021 0.886721 0.982269 -0.398572
C156  C     C_3   0.589604 0.212142 0.419363 -0.349083
C157  C     C_R   0.444685 0.567548 0.965653 0.077516
C158  C     C_3   0.537202 0.221230 0.081403 -0.349898
C159  C     C_3   0.824505 0.265952 0.420759 -0.349837
C160  C     C_3   0.793044 0.377852 0.077800 -0.352210
C161  C     C_3   0.595662 0.660884 0.293592 -0.379304
C162  C     C_3   0.416110 0.427043 0.202548 -0.384600
C163  C     C_3   0.662948 0.657393 0.346264 -0.348499
C164  C     C_3   0.430038 0.387583 0.147817 -0.345357
C165  C     C_3   0.005726 0.475003 0.703543 -0.397459
C166  C     C_3   0.947817 0.356858 0.796268 -0.386345
C167  C     C_R   0.988472 0.490264 0.442390 -0.065388
C168  C     C_R   0.023096 0.479442 0.053970 -0.062807
C169  C     C_R   0.512709 0.592509 0.556824 -0.054321
C170  C     C_R   0.459713 0.569265 0.938912 -0.105317
C171  C     C_R   0.563842 0.670693 0.474942 -0.153583
C172  C     C_R   0.049333 0.514172 0.361642 0.228065
C173  C     C_R   0.380364 0.510545 0.019787 -0.119872
C174  C     C_R   0.590433 0.174782 0.712512 0.530844
C175  C     C_R   0.591431 0.175767 0.787758 0.544816
C176  C     C_R   0.824891 0.415750 0.712482 0.533898
C177  C     C_R   0.824225 0.415312 0.787791 0.538327
C178  C     C_R   0.584164 0.408782 0.712243 0.533357
C179  C     C_R   0.583957 0.409180 0.787458 0.539925
C180  C     C_R   0.946801 0.418690 0.425861 0.043601
C181  C     C_R   0.954031 0.445646 0.071685 0.046675
C182  C     C_R   0.883659 0.341767 0.436964 -0.006583
C183  C     C_R   0.069516 0.512681 0.135544 0.226241
C184  C     C_R   0.870799 0.404414 0.061326 0.000913
C185  C     C_R   0.039353 0.570942 0.431348 0.019382
C186  C     C_R   0.106265 0.532001 0.063364 0.015575
C187  C     C_R   0.120726 0.555717 0.311155 0.049923
C188  C     C_R   0.129562 0.558214 0.187171 0.046243
C189  C     C_R   0.858717 0.423632 0.685741 0.052421
C190  C     C_R   0.865149 0.424654 0.813712 0.040526
C191  C     C_R   0.926489 0.388522 0.508791 0.035282
C192  C     C_R   0.910881 0.381552 0.990732 0.003344
C193  C     C_R   0.019876 0.541351 0.513964 0.044510
C194  C     C_R   0.513604 0.377444 0.668526 -0.087138
C195  C     C_R   0.061854 0.473708 0.982083 0.044045
C196  C     C_R   0.969913 0.460089 0.525126 -0.010101
C197  C     C_R   0.978523 0.420744 0.972894 -0.003812
C198  C     C_R   0.173339 0.590142 0.287273 0.567479
C199  C     C_R   0.175077 0.590979 0.212326 0.564532
C200  C     C_R   0.889455 0.307438 0.520734 0.080262
C201  C     C_R   0.832091 0.315408 0.981039 0.096910
C202  C     C_R   0.878834 0.298739 0.548146 0.114655
C203  C     C_R   0.816133 0.306256 0.953920 0.157652
C204  C     C_R   0.915120 0.370727 0.564388 0.046598
C205  C     C_R   0.626789 0.522141 0.821302 -0.110420
C206  C     C_R   0.880769 0.355773 0.935999 0.035168
C207  C     C_R   0.965076 0.450644 0.552870 -0.076053
C208  C     C_R   0.963244 0.406904 0.945565 -0.072568
C209  C     C_R   0.010677 0.521633 0.569104 0.034172
C210  C     C_R   0.030907 0.444956 0.927801 0.033934
C211  C     C_R   0.998683 0.513955 0.596363 0.428343
C212  C     C_R   0.014642 0.441737 0.900833 0.422835
C213  C     C_R   0.904979 0.365389 0.591973 0.447680
C214  C     C_R   0.866595 0.354236 0.908690 0.433604
C215  C     C_R   0.972796 0.455181 0.655221 -0.037634
C216  C     C_R   0.632328 0.516734 0.676417 -0.165784
C217  C     C_R   0.941411 0.383235 0.844077 -0.044556
C218  C     C_R   0.944543 0.450866 0.681134 -0.043363
C219  C     C_R   0.917477 0.389209 0.818339 -0.040835
C220  C     C_R   0.802456 0.400234 0.664295 -0.048344
C221  C     C_R   0.842652 0.458358 0.835197 -0.040857
C222  C     C_R   0.415570 0.823612 0.287933 0.539320
C223  C     C_R   0.416426 0.826318 0.212741 0.547426
C224  C     C_R   0.831931 0.405562 0.638869 -0.044337
C225  C     C_R   0.868651 0.452586 0.860464 -0.043960
C226  C     C_R   0.916440 0.432464 0.634084 0.200215
C227  C     C_R   0.506375 0.383815 0.829293 -0.140311
C228  C     C_R   0.915045 0.412667 0.865145 0.202972
C229  C     C_R   0.927380 0.400455 0.481102 0.028122
C230  C     C_R   0.925652 0.407500 0.017442 0.002386
C231  C     C_R   0.978819 0.481176 0.470026 -0.011967
C232  C     C_R   0.008711 0.461132 0.026757 -0.002554
C233  C     C_R   0.019106 0.552880 0.486356 0.044899
C234  C     C_R   0.076651 0.498696 0.008896 0.044026
C235  C     C_R   0.872999 0.335488 0.464102 -0.087600
C236  C     C_R   0.858827 0.389022 0.034495 -0.129292
C237  C     C_R   0.062605 0.643258 0.447110 0.005935
C238  C     C_R   0.635336 0.535028 0.649720 -0.080476
C239  C     C_R   0.171788 0.580067 0.045097 0.001834
C240  C     C_R   0.074159 0.607611 0.530761 -0.108655
C241  C     C_R   0.128175 0.496003 0.964173 -0.108434
C242  C     C_R   0.067653 0.598819 0.557754 -0.112605
C243  C     C_R   0.113266 0.485165 0.937445 -0.110531
C244  C     C_R   0.050228 0.633408 0.474561 0.095866
C245  C     C_R   0.154711 0.566370 0.017941 0.095492
C246  C     C_R   0.967625 0.428126 0.398863 0.420829
C247  C     C_R   0.971144 0.457237 0.098900 0.419235
C248  C     C_R   0.374239 0.890233 0.407227 0.424372
Cr1   Cr    Cr6+3 0.456550 0.732290 0.250000 1.008246
Cr2   Cr    Cr6+3 0.275740 0.543450 0.250000 1.029645
Cr3   Cr    Cr6+3 0.267710 0.724260 0.250000 1.049321
Cr4   Cr    Cr6+3 0.543450 0.275740 0.750000 0.997812
Cr5   Cr    Cr6+3 0.724260 0.267710 0.750000 1.013038
Cr6   Cr    Cr6+3 0.732290 0.456550 0.750000 1.013157
H1    H     H_    0.160217 0.464984 0.319130 0.156489
H2    H     H_    0.849913 0.476268 0.877003 0.143912
H3    H     H_    0.635072 0.200887 0.408390 0.169797
H4    H     H_    0.550031 0.224497 0.405621 0.190426
H5    H     H_    0.557882 0.279384 0.069683 0.099108
H6    H     H_    0.478581 0.208037 0.091627 0.181161
H7    H     H_    0.587986 0.235013 0.095786 0.170907
H8    H     H_    0.774795 0.214953 0.432814 0.102204
H9    H     H_    0.792220 0.284211 0.405926 0.167644
H10   H     H_    0.859918 0.239199 0.411076 0.188998
H11   H     H_    0.734857 0.352544 0.065760 0.093319
H12   H     H_    0.784009 0.327137 0.091567 0.185450
H13   H     H_    0.324590 0.890787 0.306016 0.134812
H14   H     H_    0.798816 0.432778 0.088688 0.171140
H15   H     H_    0.571725 0.626758 0.274789 0.133335
H16   H     H_    0.601618 0.723999 0.292167 0.153742
H17   H     H_    0.659433 0.669505 0.296034 0.122632
H18   H     H_    0.423247 0.452929 0.222563 0.144827
H19   H     H_    0.351137 0.373295 0.200159 0.146208
H20   H     H_    0.461455 0.403900 0.201337 0.132240
H21   H     H_    0.678899 0.653910 0.366993 0.156429
H22   H     H_    0.696130 0.632688 0.334295 0.124751
H23   H     H_    0.687379 0.724806 0.341589 0.141290
H24   H     H_    0.298075 0.821692 0.180604 0.170018
H25   H     H_    0.432565 0.379204 0.126444 0.155984
H26   H     H_    0.477873 0.375939 0.157215 0.146040
H27   H     H_    0.366322 0.339035 0.154369 0.124016
H28   H     H_    0.424239 0.358045 0.614659 0.248255
H29   H     H_    0.488173 0.317136 0.610885 0.282015
H30   H     H_    0.654441 0.656341 0.863755 0.262702
H31   H     H_    0.719846 0.619550 0.871495 0.245480
H32   H     H_    0.788376 0.460281 0.548654 0.256644
H33   H     H_    0.706692 0.360542 0.546098 0.235076
H34   H     H_    0.647558 0.355704 0.932730 0.291474
H35   H     H_    0.282492 0.779028 0.444726 0.163609
H36   H     H_    0.738381 0.451852 0.934975 0.267759
H37   H     H_    0.746715 0.483475 0.484264 0.251090
H38   H     H_    0.697837 0.381206 0.495799 0.213241
H39   H     H_    0.608917 0.369328 0.012573 0.218201
H40   H     H_    0.711670 0.431108 0.001969 0.232604
H41   H     H_    0.007690 0.528011 0.714564 0.148007
H42   H     H_    0.985574 0.420435 0.716897 0.132733
H43   H     H_    0.070344 0.494974 0.696614 0.138496
H44   H     H_    0.974611 0.404588 0.780417 0.132791
H45   H     H_    0.997743 0.343625 0.802911 0.128451
H46   H     H_    0.441962 0.796008 0.057438 0.160806
H47   H     H_    0.895058 0.297416 0.788431 0.155268
H48   H     H_    0.279253 0.490970 0.343645 0.224080
H49   H     H_    0.282953 0.408148 0.330869 0.232864
H50   H     H_    0.535074 0.760509 0.168919 0.234209
H51   H     H_    0.432650 0.720204 0.160773 0.251913
H52   H     H_    0.428343 0.607169 0.503631 0.251638
H53   H     H_    0.489078 0.700816 0.520231 0.220246
H54   H     H_    0.439307 0.674449 0.969299 0.229454
H55   H     H_    0.345128 0.586098 0.965632 0.218803
H56   H     H_    0.772012 0.185217 0.551802 0.230344
H57   H     H_    0.102047 0.432226 0.363606 0.140172
H58   H     H_    0.862929 0.182100 0.554936 0.231459
H59   H     H_    0.689452 0.253944 0.953049 0.257246
H60   H     H_    0.723783 0.183952 0.950820 0.250549
H61   H     H_    0.909759 0.210970 0.512090 0.242031
H62   H     H_    0.808465 0.188481 0.507972 0.221562
H63   H     H_    0.721930 0.257439 0.001762 0.237346
H64   H     H_    0.800436 0.241348 0.014397 0.247735
H65   H     H_    0.991393 0.619432 0.302420 0.225718
H66   H     H_    0.078790 0.702028 0.315165 0.234868
H67   H     H_    0.005093 0.629862 0.188923 0.234303
H68   H     H_    0.121209 0.430143 0.137570 0.148246
H69   H     H_    0.097116 0.708668 0.177249 0.236880
H70   H     H_    0.387373 0.046431 0.646464 0.131351
H71   H     H_    0.407794 0.067057 0.859705 0.130146
H72   H     H_    0.291391 0.805208 0.490780 0.119472
H73   H     H_    0.173045 0.468520 0.182302 0.146304
H74   H     H_    0.462318 0.822523 0.011439 0.126852
H75   H     H_    0.547070 0.234751 0.507206 0.103500
H76   H     H_    0.503610 0.215746 0.992119 0.127512
H77   H     H_    0.686124 0.171733 0.673455 0.150335
H78   H     H_    0.688393 0.153320 0.822426 0.145557
H79   H     H_    0.560493 0.255921 0.553162 0.169938
H80   H     H_    0.503532 0.229182 0.945939 0.166162
H81   H     H_    0.645341 0.130885 0.628031 0.155859
H82   H     H_    0.659446 0.111624 0.867851 0.151513
H83   H     H_    0.580940 0.212321 0.470400 0.097464
H84   H     H_    0.000328 0.596260 0.352986 0.122358
H85   H     H_    0.548724 0.221563 0.030284 0.104788
H86   H     H_    0.585694 0.385422 0.421701 0.155116
H87   H     H_    0.678182 0.518974 0.076177 0.158681
H88   H     H_    0.467765 0.315089 0.675306 0.157648
H89   H     H_    0.675966 0.566755 0.808518 0.144936
H90   H     H_    0.606915 0.378445 0.467894 0.109989
H91   H     H_    0.696335 0.510927 0.029992 0.120594
H92   H     H_    0.385352 0.473257 0.371230 0.124050
H93   H     H_    0.501378 0.664634 0.127713 0.143632
H94   H     H_    0.553583 0.732115 0.440801 0.162657
H95   H     H_    0.023844 0.599525 0.139515 0.126705
H96   H     H_    0.307620 0.502828 0.053182 0.159787
H97   H     H_    0.679284 0.563433 0.689336 0.139967
H98   H     H_    0.461797 0.320345 0.823102 0.139506
H99   H     H_    0.478313 0.612120 0.569446 0.181694
H100  H     H_    0.433102 0.596933 0.926003 0.161314
H101  H     H_    0.683106 0.595904 0.642521 0.137486
H102  H     H_    0.456217 0.360622 0.868141 0.135797
H103  H     H_    0.567540 0.720130 0.487150 0.120019
H104  H     H_    0.330845 0.504780 0.006971 0.151508
H105  H     H_    0.038299 0.475715 0.651419 0.145950
H106  H     H_    0.124408 0.666562 0.523434 0.143301
H107  H     H_    0.978569 0.353455 0.847897 0.143245
H108  H     H_    0.819237 0.279700 0.471680 0.150727
H109  H     H_    0.796132 0.364640 0.026870 0.120905
H110  H     H_    0.094161 0.777215 0.447647 0.108971
H111  H     H_    0.156823 0.754737 0.426671 0.199076
H112  H     H_    0.048857 0.722195 0.418260 0.156633
H113  H     H_    0.300075 0.690022 0.038567 0.098079
H114  H     H_    0.249265 0.694066 0.067307 0.176148
H115  H     H_    0.291786 0.623538 0.064718 0.197602
H116  H     H_    0.681836 0.317701 0.681593 0.141915
H117  H     H_    0.192363 0.520753 0.970446 0.138611
H118  H     H_    0.707975 0.425338 0.676692 0.158850
H119  H     H_    0.675115 0.354155 0.649468 0.176957
H120  H     H_    0.724828 0.445430 0.823677 0.161530
H121  H     H_    0.770928 0.513016 0.851327 0.155957
H122  H     H_    0.814794 0.551001 0.819616 0.159887
H123  H     H_    0.121142 0.752928 0.488471 0.223087
H124  H     H_    0.016673 0.720512 0.483794 0.245588
H125  H     H_    0.219428 0.686451 0.003921 0.245842
H126  H     H_    0.269675 0.629529 0.000365 0.231505
H127  H     H_    0.252048 0.899456 0.349143 0.239195
H128  H     H_    0.108125 0.652906 0.569746 0.156682
H129  H     H_    0.318772 0.998544 0.338819 0.231657
H130  H     H_    0.302918 0.936486 0.127925 0.250178
H131  H     H_    0.297923 0.847147 0.116962 0.263286
H132  H     H_    0.411808 0.049230 0.716197 0.137110
H133  H     H_    0.408150 0.139925 0.703480 0.159788
H134  H     H_    0.341878 0.037467 0.689869 0.123825
H135  H     H_    0.405105 0.071553 0.789979 0.137551
H136  H     H_    0.351767 0.073137 0.819102 0.117986
H137  H     H_    0.425728 0.170876 0.804184 0.164942
H138  H     H_    0.308357 0.752936 0.567211 0.111219
H139  H     H_    0.166639 0.508494 0.924351 0.161721
H140  H     H_    0.395645 0.802405 0.589447 0.183277
H141  H     H_    0.305573 0.818735 0.591677 0.177763
H142  H     H_    0.546619 0.812755 0.938440 0.104101
H143  H     H_    0.485196 0.827229 0.914865 0.184652
H144  H     H_    0.599749 0.892288 0.914196 0.174923
H145  H     H_    0.427477 0.779499 0.537877 0.146208
H146  H     H_    0.326294 0.743663 0.522840 0.126844
H147  H     H_    0.423682 0.805953 0.504878 0.140364
H148  H     H_    0.651390 0.903814 0.970106 0.142059
H149  H     H_    0.619592 0.910888 0.002154 0.149573
H150  H     H_    0.789033 0.389233 0.622436 0.182904
H151  H     H_    0.555491 0.817172 0.983021 0.122906
H152  H     H_    0.515186 0.784042 0.322377 0.257471
H153  H     H_    0.586966 0.882774 0.311345 0.247516
H154  H     H_    0.597445 0.905334 0.195733 0.258525
H155  H     H_    0.579673 0.973975 0.213437 0.239823
H156  H     H_    0.518092 0.875616 0.391874 0.249661
H157  H     H_    0.586417 0.975323 0.382099 0.237979
H158  H     H_    0.614716 0.079763 0.139513 0.257568
H159  H     H_    0.614373 0.993618 0.127480 0.238377
H160  H     H_    0.627097 0.270372 0.431009 0.089662
N1    N     N_R   0.026010 0.505494 0.388958 -0.382692
N2    N     N_R   0.476602 0.521652 0.108670 -0.391950
N3    N     N_R   0.586226 0.491939 0.604472 -0.395428
N4    N     N_R   0.565637 0.501628 0.891955 -0.385833
N5    N     N_3   0.059580 0.702555 0.490183 -0.648511
N6    N     N_3   0.211725 0.627398 0.999502 -0.651309
N7    N     N_3   0.312127 0.951557 0.351829 -0.579102
N8    N     N_3   0.298438 0.879745 0.133757 -0.620808
N9    N     N_3   0.548113 0.848188 0.326899 -0.561172
N10   N     N_3   0.587710 0.956665 0.194660 -0.571515
N11   N     N_3   0.550555 0.912999 0.375792 -0.559251
N12   N     N_R   0.052778 0.501093 0.107839 -0.384774
N13   N     N_3   0.607474 0.021221 0.144458 -0.570802
N14   N     N_3   0.455970 0.332371 0.624643 -0.615571
N15   N     N_3   0.685911 0.626774 0.856226 -0.628827
N16   N     N_3   0.726030 0.419681 0.554228 -0.543084
N17   N     N_3   0.684807 0.406914 0.944866 -0.580578
N18   N     N_3   0.726541 0.444815 0.500807 -0.653143
N19   N     N_3   0.648509 0.395429 0.996445 -0.630470
N20   N     N_3   0.304647 0.472399 0.328527 -0.609151
N21   N     N_3   0.473831 0.713057 0.173306 -0.587802
N22   N     N_3   0.456936 0.635274 0.521374 -0.653849
N23   N     N_R   0.943456 0.437028 0.607295 -0.393364
N24   N     N_3   0.403587 0.611395 0.974955 -0.666721
N25   N     N_3   0.833015 0.216131 0.559512 -0.553496
N26   N     N_3   0.734846 0.242973 0.944633 -0.543895
N27   N     N_3   0.871576 0.234571 0.505536 -0.655070
N28   N     N_3   0.772395 0.248263 0.997468 -0.653169
N29   N     N_3   0.056349 0.645645 0.304840 -0.593329
N30   N     N_3   0.070012 0.653268 0.188309 -0.593546
N31   N     N_R   0.932841 0.400602 0.891808 -0.397358
N32   N     N_R   0.425281 0.953723 0.390275 -0.367054
N33   N     N_R   0.464044 0.967741 0.111210 -0.392274
N34   N     N_R   0.492353 0.071146 0.607128 -0.386206
N35   N     N_R   0.519806 0.070831 0.894245 -0.380544
N36   N     N_R   0.541299 0.561204 0.387442 -0.392477
O1    O     O_R   0.475290 0.813700 0.278840 -0.527596
O2    O     O_2   0.525007 0.952562 0.889190 -0.531957
O3    O     O_2   0.516841 0.089906 0.382860 -0.524001
O4    O     O_2   0.485932 0.097771 0.117826 -0.540903
O5    O     O_2   0.553697 0.209936 0.598807 -0.505793
O6    O     O_2   0.512077 0.188061 0.900715 -0.511767
O7    O     O_2   0.555538 0.447082 0.381953 -0.513277
O8    O     O_2   0.600736 0.526941 0.115305 -0.518802
O9    O     O_2   0.659901 0.425918 0.598159 -0.477856
O10   O     O_2   0.652324 0.450499 0.898626 -0.530846
O11   O     O_2   0.532118 0.677335 0.395081 -0.501822
O12   O     O_R   0.475290 0.813700 0.221160 -0.499702
O13   O     O_2   0.352385 0.513992 0.099827 -0.497738
O14   O     O_2   0.515267 0.561652 0.608971 -0.514018
O15   O     O_2   0.482322 0.557859 0.886701 -0.516875
O16   O     O_R   0.448450 0.657720 0.276690 -0.515923
O17   O     O_R   0.448450 0.657720 0.223310 -0.461199
O18   O     O_R   0.524710 0.338410 0.721160 -0.512789
O19   O     O_R   0.524710 0.338410 0.778840 -0.512350
O20   O     O_R   0.551550 0.209270 0.723310 -0.500989
O21   O     O_R   0.551550 0.209270 0.776690 -0.497986
O22   O     O_R   0.661590 0.186300 0.721160 -0.506898
O23   O     O_2   0.115197 0.643112 0.395361 -0.505512
O24   O     O_R   0.661590 0.186300 0.778840 -0.512728
O25   O     O_R   0.790730 0.342280 0.723310 -0.495374
O26   O     O_R   0.790730 0.342280 0.776690 -0.496147
O27   O     O_R   0.813700 0.475290 0.721160 -0.503635
O28   O     O_R   0.813700 0.475290 0.778840 -0.514323
O29   O     O_R   0.657720 0.448450 0.723310 -0.494708
O30   O     O_R   0.657720 0.448450 0.776690 -0.501682
O31   O     O_3   0.666667 0.333333 0.750000 -0.227080
O32   O     O_R   0.338410 0.524710 0.278840 -0.470044
O33   O     O_R   0.338410 0.524710 0.221160 -0.522814
O34   O     O_2   0.190878 0.575739 0.099810 -0.500170
O35   O     O_R   0.209270 0.551550 0.276690 -0.498077
O36   O     O_R   0.209270 0.551550 0.223310 -0.508300
O37   O     O_R   0.186300 0.661590 0.278840 -0.464649
O38   O     O_R   0.186300 0.661590 0.221160 -0.466187
O39   O     O_R   0.342280 0.790730 0.276690 -0.492551
O40   O     O_R   0.342280 0.790730 0.223310 -0.498750
O41   O     O_3   0.333333 0.666667 0.250000 -0.235080
O42   O     O_2   0.934962 0.367826 0.384116 -0.530490
O43   O     O_2   0.914026 0.427127 0.114809 -0.528436
O44   O     O_2   0.861031 0.297274 0.602493 -0.472025
O45   O     O_2   0.035275 0.576146 0.610298 -0.517039
O46   O     O_2   0.795342 0.313179 0.899844 -0.467443
O47   O     O_2   0.072890 0.477890 0.885450 -0.513840
O48   O     O_2   0.327233 0.819382 0.398832 -0.487462
O49   O     O_2   0.441694 0.837525 0.103116 -0.528721
O50   O     O_2   0.428343 0.932339 0.614072 -0.527721

loop_
_geom_bond_atom_site_label_1
_geom_bond_atom_site_label_2
_ccdc_geom_bond_type
C199  O38   A    
C63   C65   A    
C72   N29   S    
C212  O47   D    
C223  O40   A    
C147  H113  S    
H48   N20   S    
C93   H93   S    
C190  C219  A    
C166  H45   S    
C149  H121  S    
C117  C178  S    
C21   C76   A    
C246  N1    Am   
H62   N27   S    
C149  C221  S    
Cr5   O31   S    
C135  C173  A    
C8    N9    S    
C238  H101  S    
C245  N6    S    
C88   C108  A    
C162  H19   S    
C178  O29   A    
C145  H110  S    
C173  H104  S    
C58   C60   A    
C222  O1    A    
C167  C185  A    
C221  C225  A    
C18   C71   A    
C225  C228  A    
H60   N26   S    
C61   C63   A    
C191  C196  A    
C247  O43   D    
C80   C86   A    
H36   N17   S    
C159  H10   S    
C241  H117  S    
C70   C74   A    
C91   O13   D    
C58   H71   S    
C230  C236  A    
C34   C81   A    
C248  N32   Am   
Cr3   O40   S    
C156  H4    S    
C33   C69   A    
C179  O30   A    
C119  C128  A    
C206  C214  A    
C167  C180  A    
C248  O48   D    
C41   C43   A    
C31   C62   A    
C42   C44   A    
C131  N17   S    
C180  C182  A    
C50   C83   A    
C165  H42   S    
C163  H22   S    
C242  H128  S    
Cr6   O31   S    
C39   C154  S    
C127  C136  A    
C39   C41   A    
C99   C116  A    
C123  C126  A    
C187  C198  S    
C151  H136  S    
C153  H143  S    
H124  N5    S    
C60   C151  S    
C64   C66   A    
C192  C230  A    
C222  O39   A    
C141  N3    Am   
C7    N13   S    
C168  C232  A    
C99   C162  S    
C43   C54   A    
C232  C234  A    
C61   H77   S    
C230  C232  A    
C138  C140  A    
C155  H148  S    
Cr2   O33   S    
C6    C8    A    
C199  O36   A    
H38   N18   S    
C82   C84   A    
Cr1   O17   S    
C174  O20   A    
C8    C28   A    
C49   C73   A    
C37   C45   A    
C246  O42   D    
C73   C188  A    
H69   N30   S    
C144  C205  A    
C52   N34   Am   
C68   C90   A    
C237  C244  A    
C111  C124  A    
C235  H108  S    
C228  N31   S    
H31   N15   S    
Cr4   O21   S    
C94   C115  A    
C181  C247  A    
C150  H133  S    
C244  N5    S    
C33   C38   A    
C56   C59   A    
C239  C245  A    
Cr4   O19   S    
C215  C226  A    
C216  C238  A    
C2    H102  S    
C152  H141  S    
C112  O33   A    
C92   H92   S    
C64   H82   S    
C44   C55   A    
C62   H78   S    
C176  C189  S    
C45   C50   A    
C104  N2    S    
C159  H8    S    
Cr2   O36   S    
C100  C163  S    
C211  O45   D    
Cr5   O22   S    
Cr6   O30   S    
H66   N29   S    
C217  C228  A    
C186  C239  A    
C119  C126  A    
C87   C107  A    
C126  C134  A    
C132  C134  A    
C168  C181  A    
C30   C61   A    
C125  C127  A    
C197  C208  A    
C1    C115  S    
C129  N19   S    
C166  C219  S    
C30   C174  S    
H50   N21   S    
C158  H5    S    
C145  H111  S    
C160  H12   S    
C3    N33   Am   
C69   C77   A    
C179  O19   A    
C120  C127  A    
C155  H151  S    
C52   O5    D    
C3    O49   D    
C105  C107  A    
C133  C142  A    
C26   C78   A    
Cr1   O12   S    
C154  H146  S    
H37   N18   S    
C95   N21   S    
C19   C21   A    
C234  C245  A    
C165  H43   S    
C175  O24   A    
C66   N35   S    
C86   H85   S    
C205  H89   S    
C217  H107  S    
C50   C52   A    
Cr4   O18   S    
C152  H140  S    
C1    O16   A    
C5    C27   A    
C53   O6    D    
C24   N4    S    
C141  O9    D    
C142  N4    Am   
C154  H147  S    
C62   C64   A    
C195  C234  A    
C97   H73   S    
C25   O34   D    
C40   C42   A    
C93   C95   A    
H130  N8    S    
C201  C203  A    
C96   C187  A    
C48   C72   A    
Cr3   O41   S    
C89   N36   Am   
Cr5   O25   S    
C81   C83   A    
C48   H84   S    
C19   C248  A    
C198  O35   A    
C33   C40   A    
C168  C186  A    
C139  O14   D    
C101  H90   S    
C120  C129  A    
C191  C200  A    
C27   C80   A    
C215  C218  A    
C214  N31   Am   
C163  H23   S    
C143  C194  A    
C87   O7    D    
C51   C53   A    
C85   H83   S    
H52   N22   S    
Cr6   O28   S    
C72   C187  A    
C46   C68   A    
C36   C75   A    
C109  H86   S    
C80   C158  S    
C151  H137  S    
C95   C116  A    
C191  C229  A    
C193  C196  A    
C30   C59   A    
C46   C120  A    
C40   C155  S    
C63   H81   S    
C32   C37   A    
C130  N16   S    
C43   C45   A    
C54   N34   Am   
C32   C67   A    
C78   C85   A    
C200  C202  A    
C148  H119  S    
C160  H14   S    
C12   C15   A    
C210  C212  A    
H155  N10   S    
C29   C223  S    
C200  N27   S    
C247  N12   Am   
H53   N22   S    
C112  C116  S    
C110  H87   S    
Cr3   O37   S    
C155  H149  S    
C156  H3    S    
C94   N20   S    
C132  C141  A    
C122  C183  A    
C81   H75   S    
C177  C190  S    
C46   C113  A    
C22   H46   S    
C59   C150  S    
C144  N15   S    
C124  H94   S    
C149  H120  S    
C147  C239  S    
H158  N13   S    
C91   C114  A    
C67   C70   A    
Cr4   O20   S    
C162  H20   S    
C78   C156  S    
C98   C115  A    
C106  C108  A    
H153  N9    S    
H63   N28   S    
C108  C110  A    
C140  O15   D    
C74   C85   A    
C195  C241  A    
C169  H99   S    
C176  O27   A    
C121  C172  A    
C159  H9    S    
C146  C169  A    
C207  C209  A    
H56   N25   S    
Cr1   O16   S    
H32   N16   S    
C175  O21   A    
H51   N21   S    
C54   O50   D    
C194  H88   S    
C214  O46   D    
C34   C37   A    
C183  N12   S    
C65   N34   S    
C134  C137  A    
C165  H41   S    
C163  H21   S    
C148  H116  S    
C137  C139  A    
C202  C204  A    
H131  N8    S    
C4    O3    D    
C55   N35   Am   
C15   N32   S    
H54   N24   S    
C210  C243  A    
C125  C157  A    
H30   N15   S    
C157  N24   S    
C151  H135  S    
C177  O26   A    
C101  C109  A    
H123  N5    S    
C153  H142  S    
C32   C39   A    
C79   C171  A    
C82   H76   S    
C184  C236  A    
C202  N25   S    
C49   C183  A    
C87   N36   Am   
C49   H95   S    
C192  C201  A    
C164  H25   S    
C13   N3    S    
C5    O4    D    
H64   N28   S    
C156  H160  S    
C105  C111  A    
H28   N14   S    
H40   N19   S    
C147  H114  S    
C107  C109  A    
C193  C233  A    
H34   N17   S    
C2    C227  A    
C166  H44   S    
C149  H122  S    
C170  H100  S    
C203  C206  A    
C146  N22   S    
C118  C205  A    
C23   C185  A    
Cr2   O35   S    
C76   H72   S    
C150  H134  S    
C100  C103  A    
C161  H17   S    
C23   N1    Am   
C6    N11   S    
C1    O32   A    
C229  C235  A    
C130  C132  A    
C193  C240  A    
C157  C170  A    
H157  N11   S    
C233  C244  A    
C123  C146  A    
H129  N7    S    
C171  H103  S    
C3    C20   A    
C231  C233  A    
C192  C197  A    
C148  C220  S    
C182  C235  A    
C34   C74   A    
C96   C121  A    
C113  H91   S    
C7    C16   A    
C20   C22   A    
H65   N29   S    
C77   H74   S    
C217  C219  A    
C203  N26   S    
C140  N4    Am   
C98   C161  S    
C189  C218  A    
C181  C184  A    
C10   C28   A    
C148  H118  S    
C172  N1    S    
C5    N33   Am   
C28   C222  S    
C89   O11   D    
C22   C77   A    
C35   C101  A    
C128  C130  A    
C4    C26   A    
C13   C238  A    
C103  N36   S    
C177  O28   A    
H39   N19   S    
C153  H144  S    
C240  H106  S    
C35   C57   A    
C161  H15   S    
C36   C38   A    
C201  N28   S    
C229  C231  A    
H159  N13   S    
Cr1   O41   S    
C124  C171  A    
C24   C144  A    
C90   C125  A    
C164  H27   S    
Cr4   O31   S    
C13   C143  A    
C159  C182  S    
Cr6   O27   S    
C25   C186  A    
Cr2   O32   S    
C99   C102  A    
C213  O44   D    
C135  H96   S    
C198  O37   A    
C51   C84   A    
H59   N26   S    
H33   N16   S    
C31   C60   A    
C97   C188  A    
C57   C105  A    
C16   N33   S    
C138  C170  A    
C57   C79   A    
C35   C119  A    
Cr5   O24   S    
C152  H138  S    
C223  O12   A    
Cr2   O41   S    
C178  O18   A    
C41   C152  S    
C31   C175  S    
C150  H132  S    
C90   C173  A    
C162  H18   S    
C91   N2    Am   
C106  C114  A    
C17   C26   A    
H49   N20   S    
C224  H150  S    
C11   C14   A    
C158  H6    S    
C56   C65   A    
C84   H80   S    
C73   N30   S    
C69   C71   A    
C227  H98   S    
C117  C194  A    
C75   C86   A    
C92   C103  A    
C209  C211  A    
C6    C15   A    
C48   C172  A    
C58   C66   A    
C9    N10   S    
C161  H16   S    
C36   C82   A    
C145  C237  S    
C133  C136  A    
C114  C135  A    
C204  C207  A    
C137  C169  A    
C189  C220  A    
C121  H57   S    
C145  H112  S    
H67   N30   S    
C160  H11   S    
C68   C106  A    
C93   C104  A    
C92   C94   A    
H154  N10   S    
C174  O22   A    
C88   N2    Am   
C185  C237  A    
C10   H13   S    
C147  H115  S    
C154  H145  S    
C42   C153  S    
C136  C138  A    
C190  C221  A    
C166  H47   S    
C213  N23   Am   
C188  C199  S    
C88   O8    D    
C79   C123  A    
C204  C213  A    
H156  N11   S    
C241  C243  A    
C25   N12   Am   
C117  C216  A    
H127  N7    S    
C23   O23   D    
C97   C122  A    
C47   C51   A    
C53   N35   Am   
C139  N3    Am   
C158  H7    S    
C226  N23   S    
C240  C242  A    
C216  H97   S    
C83   H79   S    
Cr6   O29   S    
C102  C104  A    
C110  C113  A    
C211  N23   Am   
C38   C47   A    
C10   C12   A    
C165  C218  S    
C122  H68   S    
C102  C164  S    
C143  N14   S    
C2    C24   A    
C14   C16   A    
Cr5   O26   S    
C220  C224  A    
C7    C9    A    
C11   H24   S    
Cr1   O1    S    
C18   C27   A    
C96   H1    S    
C131  C133  A    
C176  O25   A    
C224  C226  A    
C209  C242  A    
C44   C47   A    
C167  C231  A    
H58   N25   S    
C9    C29   A    
C14   N8    S    
C89   C111  A    
C98   C100  A    
C118  C227  A    
C196  C207  A    
C55   O2    D    
C236  H109  S    
Cr3   O39   S    
H55   N24   S    
C118  C179  S    
C71   C75   A    
H125  N6    S    
C225  H2    S    
C215  H105  S    
H152  N9    S    
C17   C19   A    
H61   N27   S    
C18   C20   A    
C128  N18   S    
C112  O17   A    
C4    N32   Am   
C212  N31   Am   
C21   H35   S    
C11   C29   A    
C208  C210  A    
C12   N7    S    
C164  H26   S    
H126  N6    S    
C67   C76   A    
C195  C197  A    
C56   H70   S    
C206  C208  A    
C17   C70   A    
H29   N14   S    
C160  C184  S    
Cr3   O38   S    
C243  H139  S    
C180  C246  A    
C129  C131  A    
C142  O10   D    
