data_mof_unit_48224.cif
_audit_creation_date              2012-12-10T17:52:00-0500
_audit_creation_method            fapswitch 2.2
_symmetry_space_group_name_H-M    P1
_symmetry_Int_Tables_number       1
_space_group_crystal_system       triclinic
_cell_length_a                    14.666898
_cell_length_b                    14.822495
_cell_length_c                    19.391132
_cell_angle_alpha                 76.287458
_cell_angle_beta                  103.641538
_cell_angle_gamma                 115.416726
_cell_volume                      3655.61854675

loop_
_atom_site_label
_atom_site_type_symbol
_atom_type_description
_atom_site_fract_x
_atom_site_fract_y
_atom_site_fract_z
_atom_type_partial_charge
C1    C     C_R   0.878772 0.312168 0.507948 0.790468
C2    C     C_R   0.120074 0.687220 0.486151 0.789004
C3    C     C_R   0.808439 0.204245 0.506130 -0.073014
C4    C     C_R   0.187666 0.791218 0.462671 -0.055203
C5    C     C_R   0.786300 0.029040 0.547992 -0.196697
C6    C     C_R   0.225040 0.926964 0.362319 -0.193713
C7    C     C_R   0.848563 0.131299 0.539828 -0.218627
C8    C     C_R   0.155016 0.842279 0.397845 -0.226481
C9    C     C_R   0.702971 0.172152 0.473125 0.029830
C10   C     C_R   0.290579 0.830356 0.495783 0.029021
C11   C     C_R   0.642502 0.065733 0.475442 0.052303
C12   C     C_R   0.364262 0.905250 0.453610 0.049359
C13   C     C_R   0.682937 0.996142 0.519357 0.136062
C14   C     C_R   0.329396 0.957031 0.388325 0.139475
C15   C     C_R   0.539093 0.025126 0.441752 0.062017
C16   C     C_R   0.471244 0.931255 0.473082 0.059666
C17   C     C_R   0.513187 0.863116 0.515873 -0.237769
C18   C     C_R   0.503059 0.070050 0.374896 -0.225472
C19   C     C_R   0.618503 0.894322 0.536056 -0.198459
C20   C     C_R   0.399486 0.036342 0.348332 -0.217867
C21   C     C_R   0.711721 0.662988 0.376953 -0.295594
C22   C     C_R   0.287526 0.335753 0.622062 -0.295011
C23   C     C_R   0.001055 0.501057 0.632524 0.864420
C24   C     C_R   0.999437 0.499765 0.367403 0.850236
C25   C     C_R   0.794312 0.634657 0.396703 0.131600
C26   C     C_R   0.204491 0.363378 0.601976 0.136463
C27   C     C_R   0.716653 0.512013 0.491841 -0.007987
C28   C     C_R   0.284937 0.490607 0.509747 0.000368
C29   C     C_R   0.629301 0.536122 0.473865 -0.029259
C30   C     C_R   0.372134 0.466230 0.527451 -0.020925
C31   C     C_R   0.629204 0.614339 0.415424 0.146855
C32   C     C_R   0.371361 0.386575 0.584935 0.155971
C33   C     C_R   0.542991 0.486055 0.511372 0.078677
C34   C     C_R   0.458789 0.516844 0.490257 0.076151
C35   C     C_R   0.463954 0.596801 0.432580 -0.232446
C36   C     C_R   0.537653 0.405784 0.568806 -0.233313
C37   C     C_R   0.547184 0.643882 0.395859 -0.177032
C38   C     C_R   0.453730 0.357575 0.604795 -0.180524
C39   C     C_R   0.086986 0.498112 0.760701 0.519166
C40   C     C_R   0.916013 0.507158 0.238677 0.518582
C41   C     C_R   0.088506 0.500204 0.832458 0.568160
C42   C     C_R   0.916407 0.508626 0.166614 0.573533
C43   C     C_R   0.006740 0.507655 0.853582 -0.154440
C44   C     C_R   0.999155 0.503008 0.145483 -0.154861
C45   C     C_R   0.924427 0.514154 0.801108 -0.231439
C46   C     C_R   0.080773 0.495273 0.198200 -0.232050
C47   C     C_R   0.923055 0.512305 0.729414 -0.275830
C48   C     C_R   0.080309 0.493717 0.270200 -0.270776
C49   C     C_R   0.003835 0.503683 0.708467 -0.247169
C50   C     C_R   0.998310 0.500019 0.291211 -0.242432
C51   C     C_R   0.001345 0.504945 0.069331 0.455079
C52   C     C_R   0.005653 0.507689 0.929587 0.454787
Cu1   Cu    Cu3+1 0.081740 0.475680 0.518680 0.964069
Cu2   Cu    Cu3+1 0.918260 0.524320 0.481320 0.941021
H1    H     H_    0.547345 0.704391 0.351579 0.151128
H2    H     H_    0.453125 0.296335 0.648563 0.147006
H3    H     H_    0.278211 0.549350 0.466665 0.125520
H4    H     H_    0.724800 0.455600 0.536408 0.123132
H5    H     H_    0.139466 0.324103 0.630348 0.139301
H6    H     H_    0.858252 0.672148 0.367214 0.141250
H7    H     H_    0.712429 0.722690 0.331967 0.150278
H8    H     H_    0.286045 0.274754 0.666165 0.147727
H9    H     H_    0.404488 0.625004 0.414009 0.135975
H10   H     H_    0.597077 0.377523 0.587298 0.129985
H11   H     H_    0.860325 0.520069 0.815337 0.202119
H12   H     H_    0.145622 0.490785 0.183953 0.201365
H13   H     H_    0.858112 0.516825 0.690472 0.192388
H14   H     H_    0.144762 0.488360 0.309346 0.192051
H15   H     H_    0.648875 0.840113 0.568471 0.151884
H16   H     H_    0.374139 0.073540 0.296972 0.154289
H17   H     H_    0.075846 0.813607 0.372700 0.159903
H18   H     H_    0.927966 0.153552 0.564255 0.163951
H19   H     H_    0.818617 0.975603 0.578955 0.144861
H20   H     H_    0.198125 0.965118 0.312039 0.150578
H21   H     H_    0.465344 0.784629 0.531558 0.156574
H22   H     H_    0.554892 0.129306 0.341807 0.175450
N1    N     N_R   0.928171 0.518810 0.948563 -0.235744
N2    N     N_R   0.078951 0.494043 0.050343 -0.236154
N3    N     N_R   0.926136 0.517524 0.016975 -0.128782
N4    N     N_R   0.080985 0.495325 0.981925 -0.129110
N5    N     N_R   0.795420 0.560800 0.453240 -0.187299
N6    N     N_R   0.204580 0.439200 0.546760 -0.182985
O1    O     O_R   0.977910 0.338110 0.524620 -0.591527
O2    O     O_R   0.022090 0.661890 0.475380 -0.594342
O3    O     O_R   0.839850 0.379180 0.493080 -0.604864
O4    O     O_R   0.160150 0.620820 0.506920 -0.583882
O5    O     O_R   0.069040 0.479450 0.615630 -0.517299
O6    O     O_R   0.930960 0.520550 0.384370 -0.543751
O7    O     O_R   0.930990 0.520520 0.584090 -0.596518
O8    O     O_R   0.069010 0.479480 0.415910 -0.595409
F1    F     F_    0.167693 0.491379 0.742746 -0.625744
F2    F     F_    0.834274 0.511961 0.256601 -0.641535
F3    F     F_    0.170477 0.495033 0.880792 -0.600329
F4    F     F_    0.835159 0.515135 0.118016 -0.601537
C53   C     C_3   0.316927 0.800218 0.576780 -0.423354
C54   C     C_3   0.248948 0.813161 0.620057 -0.367157
C55   C     C_3   0.279554 0.786291 0.700663 -0.766126
H23   H     H_    0.272402 0.706631 0.714035 0.292864
H24   H     H_    0.359545 0.837103 0.718171 0.253770
H25   H     H_    0.228482 0.795078 0.730382 0.239598
H26   H     H_    0.256113 0.892891 0.607998 0.226076
H27   H     H_    0.167539 0.763569 0.605709 0.213627
H28   H     H_    0.310617 0.720881 0.588818 0.230556
H29   H     H_    0.396172 0.849079 0.597038 0.215196
C56   C     C_3   0.649975 0.246870 0.448308 -0.406987
C57   C     C_3   0.673071 0.313072 0.374503 -0.295875
C58   C     C_3   0.587456 0.348394 0.336951 -0.778592
H30   H     H_    0.575837 0.391534 0.371372 0.251804
H31   H     H_    0.608089 0.398343 0.285554 0.286811
H32   H     H_    0.514952 0.282798 0.325084 0.240761
H33   H     H_    0.743808 0.381672 0.380095 0.286244
H34   H     H_    0.685598 0.272237 0.338904 0.208871
H35   H     H_    0.566469 0.207158 0.447604 0.204525
H36   H     H_    0.667733 0.294159 0.489961 0.199530

loop_
_geom_bond_atom_site_label_1
_geom_bond_atom_site_label_2
_ccdc_geom_bond_type
C15   C18   A    
Cu2   O6    S    
C54   H27   S    
C27   C29   A    
C58   H31   S    
C2    O2    A    
C53   C54   S    
C4    C8    A    
Cu2   O2    S    
C55   H23   S    
C47   C49   A    
C57   H34   S    
C28   H3    S    
C21   C31   A    
C22   C32   A    
C56   H35   S    
C35   C37   A    
C46   H12   S    
C3    C7    A    
N2    N4    A    
C43   C52   S    
C23   C49   S    
C22   H8    S    
C57   C58   S    
C9    C56   S    
C15   C16   A    
C29   C33   A    
C33   C36   A    
C34   C35   A    
C47   H13   S    
C11   C15   A    
C41   F3    S    
C12   C16   A    
C44   C46   A    
C16   C17   A    
C58   H30   S    
C23   O7    A    
Cu1   O4    S    
C25   H6    S    
C32   C38   A    
C26   H5    S    
C21   H7    S    
N1    N3    A    
C26   N6    A    
C23   O5    A    
C54   H26   S    
C25   N5    A    
C41   C43   A    
C20   H16   S    
C42   C44   A    
C39   F1    S    
C55   H24   S    
C53   H28   S    
C6    H20   S    
C57   H33   S    
C45   C47   A    
C24   C50   S    
C46   C48   A    
C30   C34   A    
C28   N6    A    
C14   C20   A    
C56   H36   S    
C27   N5    A    
Cu2   O7    S    
C39   C41   A    
C7    H18   S    
C5    C7    A    
C13   C19   A    
C6    C8    A    
Cu1   Cu2   S    
C40   F2    S    
C31   C37   A    
Cu1   N6    S    
C1    C3    S    
C2    C4    S    
C3    C9    A    
C6    C14   A    
C24   O6    A    
C54   C55   S    
C33   C34   A    
Cu1   O5    S    
C48   H14   S    
C48   C50   A    
C43   C45   A    
C10   C12   A    
C44   C51   S    
C39   C49   A    
C12   C14   A    
C9    C11   A    
C45   H11   S    
C58   H32   S    
C19   H15   S    
C1    O3    A    
C4    C10   A    
C52   N1    A    
C55   H25   S    
C53   H29   S    
C21   C25   A    
C8    H17   S    
C18   H22   S    
C42   F4    S    
C5    C13   A    
C27   H4    S    
C24   O8    A    
Cu2   O3    S    
C1    O1    A    
C56   C57   S    
Cu1   O1    S    
C36   C38   A    
C51   N2    A    
C28   C30   A    
C29   C31   A    
C36   H10   S    
C30   C32   A    
C11   C13   A    
C10   C53   S    
C40   C50   A    
C40   C42   A    
C17   C19   A    
C2    O4    A    
C18   C20   A    
C5    H19   S    
C51   N3    A    
C37   H1    S    
C38   H2    S    
C22   C26   A    
Cu1   O8    S    
C17   H21   S    
C35   H9    S    
C52   N4    A    
Cu2   N5    S    
