data_mof_unit_36272.cif
_audit_creation_date              2012-12-10T17:32:56-0500
_audit_creation_method            fapswitch 2.2
_symmetry_space_group_name_H-M    P1
_symmetry_Int_Tables_number       1
_space_group_crystal_system       triclinic
_cell_length_a                    12.332743
_cell_length_b                    13.255754
_cell_length_c                    14.318211
_cell_angle_alpha                 93.160057
_cell_angle_beta                  107.764128
_cell_angle_gamma                 116.632868
_cell_volume                      1941.33062692

loop_
_atom_site_label
_atom_site_type_symbol
_atom_type_description
_atom_site_fract_x
_atom_site_fract_y
_atom_site_fract_z
_atom_type_partial_charge
C1    C     C_R   0.647822 0.713086 0.503927 0.807759
C2    C     C_R   0.835837 0.483897 0.917473 -0.007194
C3    C     C_R   0.773981 0.481111 0.987351 -0.068609
C4    C     C_R   0.945752 0.465969 0.943436 0.020560
C5    C     C_R   0.005732 0.464758 0.043987 -0.002063
C6    C     C_R   0.939724 0.455603 0.110246 -0.235600
C7    C     C_R   0.827047 0.465801 0.084194 0.486460
C8    C     C_R   0.991877 0.440839 0.870939 -0.299318
C9    C     C_R   0.094468 0.414782 0.897598 0.504244
C10   C     C_R   0.164599 0.430058 0.999967 -0.021671
C11   C     C_R   0.125413 0.463257 0.074047 -0.064184
C12   C     C_R   0.613928 0.510683 0.685791 0.855600
C13   C     C_R   0.272355 0.411124 0.029944 -0.096136
C14   C     C_R   0.342108 0.427458 0.131666 -0.289010
C15   C     C_R   0.209129 0.497229 0.176220 0.454187
C16   C     C_R   0.186501 0.958358 0.426391 -0.308491
C17   C     C_R   0.257033 0.161955 0.475383 -0.126642
C18   C     C_R   0.693934 0.917225 0.524529 -0.303185
C19   C     C_R   0.772870 0.035045 0.528962 0.529521
C20   C     C_R   0.884862 0.068076 0.506451 -0.249233
C21   C     C_R   0.919700 0.986097 0.477964 0.030721
C22   C     C_R   0.830077 0.866919 0.461231 0.082928
C23   C     C_R   0.347137 0.285318 0.487962 0.860694
C24   C     C_R   0.040354 0.017821 0.465102 0.103701
C25   C     C_R   0.065493 0.930650 0.432103 0.115727
C26   C     C_R   0.968488 0.815811 0.402997 -0.227977
C27   C     C_R   0.849702 0.785360 0.411187 -0.186871
C28   C     C_R   0.138625 0.132891 0.487265 -0.315770
C29   C     C_R   0.284040 0.074478 0.447053 0.487833
C30   C     C_R   0.723968 0.833306 0.494620 -0.174685
C31   C     C_R   0.252247 0.687534 0.657575 -0.380478
C32   C     C_R   0.654861 0.340818 0.365806 0.052696
C33   C     C_R   0.731949 0.301801 0.338432 -0.025366
C34   C     C_R   0.381563 0.483920 0.313238 0.805983
C35   C     C_R   0.867353 0.360079 0.391935 -0.245995
C36   C     C_R   0.927063 0.458504 0.470597 -0.026966
C37   C     C_R   0.843101 0.493209 0.495988 0.268915
C38   C     C_R   0.066736 0.524217 0.524602 -0.025910
C39   C     C_R   0.117672 0.620829 0.603572 0.121210
C40   C     C_R   0.034273 0.651431 0.628545 -0.249020
C41   C     C_R   0.900646 0.589174 0.576318 -0.185383
C42   C     C_R   0.159320 0.500249 0.503262 -0.058352
C43   C     C_R   0.339260 0.657996 0.635283 0.714191
C44   C     C_R   0.666267 0.502061 0.790361 -0.187752
C45   C     C_R   0.311264 0.470531 0.205628 -0.162581
C46   C     C_R   0.657831 0.489479 0.957131 0.450805
C47   C     C_R   0.596635 0.485947 0.855491 -0.155204
C48   C     C_R   0.786425 0.505098 0.823452 -0.243416
Cu1   Cu    Cu3+1 0.416420 0.526630 0.522910 1.006380
Cu2   Cu    Cu3+1 0.583580 0.473370 0.477090 0.947112
H1    H     H_    0.301249 0.380847 0.975005 0.236121
H2    H     H_    0.984864 0.749354 0.373491 0.133624
H3    H     H_    0.203847 0.888566 0.406137 0.133893
H4    H     H_    0.125328 0.202148 0.514365 0.171671
H5    H     H_    0.608109 0.890159 0.543509 0.178197
H6    H     H_    0.941463 0.159203 0.510634 0.146484
H7    H     H_    0.773999 0.697402 0.375651 0.169044
H8    H     H_    0.072832 0.725047 0.689473 0.155473
H9    H     H_    0.288468 0.762815 0.715821 0.146796
H10   H     H_    0.129366 0.429499 0.443338 0.153382
H11   H     H_    0.550216 0.296317 0.325866 0.169715
H12   H     H_    0.924548 0.328412 0.369835 0.176255
H13   H     H_    0.846302 0.619937 0.602157 0.205920
H14   H     H_    0.421322 0.407632 0.152333 0.218549
H15   H     H_    0.840339 0.523604 0.773994 0.167784
H16   H     H_    0.970112 0.432799 0.181235 0.204680
H17   H     H_    0.944592 0.433525 0.792079 0.157653
N1    N     N_R   0.290690 0.566960 0.557640 -0.215774
N2    N     N_R   0.709100 0.433710 0.442970 -0.225112
O1    O     O_R   0.545970 0.684450 0.528810 -0.536147
O2    O     O_R   0.687130 0.639470 0.490120 -0.621912
O3    O     O_R   0.519670 0.535100 0.660030 -0.529369
O4    O     O_R   0.660830 0.490120 0.621340 -0.605215
O5    O     O_R   0.312870 0.360530 0.509880 -0.597685
O6    O     O_R   0.454030 0.315550 0.471190 -0.534972
O7    O     O_R   0.339170 0.509880 0.378660 -0.536045
O8    O     O_R   0.480330 0.464900 0.339970 -0.610448
O9    O     O_3   0.763081 0.451136 0.150911 -0.526031
C49   C     C_3   0.842248 0.543680 0.236430 -0.303464
H18   H     H_    0.882232 0.629022 0.215719 0.134151
H19   H     H_    0.924044 0.533813 0.285993 0.172223
H20   H     H_    0.781742 0.543523 0.279928 0.187030
O10   O     O_3   0.409015 0.106002 0.448881 -0.567399
C50   C     C_3   0.409227 0.031384 0.374774 -0.279432
H21   H     H_    0.503852 0.076267 0.364648 0.221737
H22   H     H_    0.330585 0.009604 0.300518 0.158218
H23   H     H_    0.403144 0.952075 0.400335 0.142867
O11   O     O_3   0.742899 0.121257 0.550048 -0.590866
C51   C     C_3   0.683358 0.102613 0.622139 -0.298987
H24   H     H_    0.730384 0.072747 0.685495 0.139079
H25   H     H_    0.577172 0.040708 0.585987 0.199413
H26   H     H_    0.694170 0.186066 0.654644 0.205100
O12   O     O_3   0.474213 0.722785 0.683849 -0.558814
C52   C     C_3   0.513158 0.770140 0.786789 -0.367087
H27   H     H_    0.615305 0.789475 0.825942 0.190856
H28   H     H_    0.452805 0.708983 0.823798 0.198559
H29   H     H_    0.511813 0.853252 0.796211 0.161210
O13   O     O_3   0.193964 0.559986 0.247143 -0.586365
C53   C     C_3   0.263184 0.678616 0.248173 -0.314453
H30   H     H_    0.223915 0.696988 0.174121 0.163347
H31   H     H_    0.369511 0.709364 0.270044 0.156189
H32   H     H_    0.251165 0.728624 0.305212 0.173771
C54   C     C_2   0.671708 0.201280 0.252921 0.863094
O14   O     O_2   0.555504 0.156305 0.201040 -0.619690
O15   O     O_R   0.747889 0.157938 0.230899 -0.773451
H33   H     H_    0.695752 0.089532 0.170906 0.331510
O16   O     O_3   0.134682 0.383965 0.825371 -0.565712
C55   C     C_3   0.029100 0.286628 0.750692 -0.304213
H34   H     H_    0.068234 0.242276 0.714119 0.181506
H35   H     H_    0.963568 0.221721 0.782354 0.152582
H36   H     H_    0.973219 0.314193 0.691338 0.199340
O17   O     O_3   0.597165 0.489600 0.024056 -0.531697
C56   C     C_3   0.637795 0.605739 0.065597 -0.246870
H37   H     H_    0.611497 0.607898 0.132903 0.181163
H38   H     H_    0.587662 0.642026 0.011456 0.180161
H39   H     H_    0.745123 0.663174 0.090033 0.123569
C57   C     C_2   0.455835 0.451455 0.816083 0.935387
O18   O     O_2   0.414349 0.502251 0.856170 -0.592417
O19   O     O_R   0.370343 0.359329 0.732317 -0.761068
H40   H     H_    0.278218 0.346967 0.708945 0.339234

loop_
_geom_bond_atom_site_label_1
_geom_bond_atom_site_label_2
_ccdc_geom_bond_type
O12   C52   S    
Cu1   N1    S    
C37   N2    A    
C17   C29   A    
C19   C20   A    
C50   H23   S    
C20   H6    S    
C26   C27   A    
C17   C23   S    
C31   C43   A    
C21   C22   A    
C36   C37   A    
Cu2   N2    S    
C50   H22   S    
C32   H11   S    
C29   O10   S    
C46   O17   S    
C57   O19   S    
C34   O8    A    
C5    C6    A    
C55   H34   S    
C18   C19   A    
C31   H9    S    
C16   H3    S    
C43   O12   S    
C13   H1    S    
C11   C15   A    
O10   C50   S    
C55   H35   S    
C43   N1    A    
Cu1   O3    S    
O16   C55   S    
C18   C30   A    
C48   H15   S    
C51   H25   S    
C9    C10   A    
C44   C47   A    
C4    C8    A    
C56   H39   S    
O11   C51   S    
C12   O3    A    
Cu2   O6    S    
C12   O4    A    
C42   N1    A    
O17   C56   S    
C14   C45   A    
C40   H8    S    
C24   C25   A    
C19   O11   S    
C27   H7    S    
Cu2   O4    S    
C42   H10   S    
C39   C40   A    
C49   H19   S    
C28   H4    S    
O9    C49   S    
C8    C9    A    
C52   H29   S    
C2    C48   A    
C16   C29   A    
C35   C36   A    
C2    C4    A    
Cu2   O2    S    
C26   H2    S    
C53   H30   S    
C47   C57   S    
C14   H14   S    
Cu1   O7    S    
C54   O15   S    
C34   C45   S    
C1    O2    A    
C50   H21   S    
C51   H26   S    
C52   H28   S    
C6    C7    A    
C18   H5    S    
C7    O9    S    
C40   C41   A    
C53   H31   S    
O13   C53   S    
C22   C27   A    
C5    C11   A    
C41   H13   S    
C23   O5    A    
Cu2   O8    S    
C56   H37   S    
C16   C25   A    
C46   C47   A    
C22   C30   A    
C33   C54   S    
C17   C28   A    
C24   C28   A    
C23   O6    A    
C4    C5    A    
C10   C13   A    
C49   H20   S    
O19   H40   S    
C38   C42   A    
C32   N2    A    
C9    O16   S    
O15   H33   S    
C3    C46   A    
C3    C7    A    
C1    O1    A    
C55   H36   S    
Cu1   O1    S    
C32   C33   A    
C36   C38   A    
C2    C3    A    
C25   C26   A    
C12   C44   S    
C57   O18   D    
C38   C39   A    
C1    C30   S    
C33   C35   A    
C31   C39   A    
C35   H12   S    
C37   C41   A    
C52   H27   S    
C10   C11   A    
C49   H18   S    
C6    H16   S    
C53   H32   S    
C20   C21   A    
C8    H17   S    
Cu1   Cu2   S    
C21   C24   A    
C54   O14   D    
C15   C45   A    
Cu1   O5    S    
C15   O13   S    
C51   H24   S    
C13   C14   A    
C44   C48   A    
C34   O7    A    
C56   H38   S    
