data_mof_unit_67529.cif
_audit_creation_date              2013-03-05T15:41:20-0500
_audit_creation_method            fapswitch 2.2
_symmetry_space_group_name_H-M    P1
_symmetry_Int_Tables_number       1
_space_group_crystal_system       triclinic
_cell_length_a                    10.774728
_cell_length_b                    8.875219
_cell_length_c                    7.654437
_cell_angle_alpha                 103.706839
_cell_angle_beta                  95.523116
_cell_angle_gamma                 96.058417
_cell_volume                      701.56896276

loop_
_atom_site_label
_atom_site_type_symbol
_atom_site_description
_atom_site_fract_x
_atom_site_fract_y
_atom_site_fract_z
_atom_type_partial_charge
O1    O     O_R   0.509190 0.286130 0.619780 -0.610516
O2    O     O_R   0.490810 0.713870 0.380220 -0.588856
O3    O     O_R   0.485310 0.256770 0.308360 -0.598590
O4    O     O_R   0.514690 0.743230 0.691640 -0.601287
C1    C     C_R   0.495309 0.200710 0.453585 0.804930
C2    C     C_R   0.505179 0.799210 0.546057 0.809345
O5    O     O_R   0.328790 0.514640 0.655680 -0.604424
O6    O     O_R   0.671210 0.485360 0.344320 -0.619328
O7    O     O_R   0.304910 0.485280 0.344260 -0.572504
O8    O     O_R   0.695090 0.514720 0.655740 -0.572349
C3    C     C_R   0.260604 0.501629 0.501056 0.790386
C4    C     C_R   0.739244 0.495303 0.498918 0.794121
Cu1   Cu    Cu3+1 0.514140 0.517380 0.684380 0.959683
Cu2   Cu    Cu3+1 0.485860 0.482620 0.315620 0.963209
N1    N     N_2   0.464560 0.456420 0.038510 -0.091308
N2    N     N_2   0.535440 0.543580 0.961490 -0.096397
C5    C     C_3   0.053093 0.513567 0.671979 -0.048000
C6    C     C_3   0.948001 0.480634 0.331173 -0.045941
C7    C     C_3   0.954889 0.376059 0.563910 -0.064418
C8    C     C_3   0.045636 0.618523 0.440411 -0.067672
C9    C     C_3   0.875451 0.490456 0.497055 -0.123205
C10   C     C_3   0.124611 0.503232 0.505279 -0.127521
C11   C     C_3   0.973416 0.628351 0.606226 -0.080133
C12   C     C_3   0.026896 0.365996 0.398243 -0.086525
C13   C     C_2   0.479134 0.032490 0.431444 -0.248114
C14   C     C_2   0.522972 0.967030 0.566385 -0.261087
C15   C     C_1   0.911334 0.232699 0.614314 0.281255
N3    N     N_1   0.878593 0.117105 0.650438 -0.257259
C16   C     C_1   0.095918 0.759238 0.390474 0.275660
N4    N     N_1   0.136348 0.872151 0.354828 -0.261256
C17   C     C_1   0.110767 0.549685 0.860866 0.292195
N5    N     N_1   0.156280 0.582704 0.010110 -0.254491
C18   C     C_1   0.901046 0.442186 0.138172 0.260485
N6    N     N_1   0.866324 0.407098 0.984751 -0.268047
C19   C     C_1   0.942119 0.769208 0.728541 0.242018
N7    N     N_1   0.917283 0.878638 0.827472 -0.257678
C20   C     C_1   0.050640 0.217801 0.282999 0.231767
N8    N     N_1   0.066670 0.099957 0.191412 -0.255868
C21   C     C_3   0.396102 0.311420 0.923026 -0.065627
C22   C     C_3   0.279545 0.240769 0.989458 -0.393979
C23   C     C_3   0.213907 0.100362 0.839161 -0.840797
H1    H     H_    0.177529 0.139310 0.718457 0.249305
H2    H     H_    0.280100 0.014042 0.798526 0.255544
H3    H     H_    0.133897 0.040480 0.886368 0.304019
H4    H     H_    0.303122 0.198376 0.110745 0.263867
H5    H     H_    0.212835 0.326163 0.021302 0.250910
H6    H     H_    0.358398 0.329497 0.794646 0.217402
H7    H     H_    0.460611 0.222760 0.905367 0.179514
C24   C     C_3   0.642903 0.650955 0.068363 -0.088513
C25   C     C_3   0.657239 0.813524 0.032255 -0.367677
C26   C     C_3   0.749990 0.928924 0.180389 -0.840651
H8    H     H_    0.714485 0.943580 0.313882 0.246436
H9    H     H_    0.842910 0.885767 0.189456 0.275924
H10   H     H_    0.762705 0.045129 0.149634 0.283496
H11   H     H_    0.696075 0.806564 0.902554 0.264181
H12   H     H_    0.565645 0.858645 0.025782 0.250006
H13   H     H_    0.641479 0.670474 0.211429 0.222095
H14   H     H_    0.728852 0.601334 0.035441 0.171897
C27   C     C_1   0.403495 0.943169 0.264640 0.318927
N9    N     N_1   0.343546 0.873458 0.130654 -0.234431
C28   C     C_1   0.604858 0.055377 0.727249 0.279783
N10   N     N_1   0.669885 0.125172 0.856491 -0.243912

loop_
_geom_bond_atom_site_label_1
_geom_bond_atom_site_label_2
_geom_bond_distance
_ccdc_geom_bond_type
C22   H5    1.100737 S    
O7    Cu2   1.984801 S    
C20   N8    1.152886 T    
C6    C12   1.538659 S    
C6    C9    1.543978 S    
C7    C15   1.459262 S    
C23   H1    1.112210 S    
C3    C10   1.470240 S    
C6    C8    1.541916 S    
C5    C10   1.542435 S    
C5    C11   1.540319 S    
C8    C11   1.541436 S    
O6    C4    1.309720 A    
C26   H10   1.108739 S    
C28   N10   1.156650 T    
C9    C11   1.543747 S    
C18   N6    1.154803 T    
C2    C14   1.450364 S    
C27   N9    1.157271 T    
O2    C2    1.300293 A    
Cu1   Cu2   2.749053 S    
O5    C3    1.305317 A    
C23   H2    1.112407 S    
N1    C21   1.454855 S    
C16   N4    1.152729 T    
O3    Cu2   1.991396 S    
O8    C4    1.313830 A    
O1    C1    1.303006 A    
N1    N2    1.306642 D    
C10   C12   1.534155 S    
C21   H6    1.080760 S    
C22   C23   1.534440 S    
C7    C9    1.539690 S    
C14   C28   1.448007 S    
C8    C10   1.536511 S    
C12   C20   1.462238 S    
C11   C19   1.465675 S    
C8    C16   1.456909 S    
O7    C3    1.315968 A    
C22   H4    1.099225 S    
O2    Cu2   1.987598 S    
C23   H3    1.100219 S    
C1    C13   1.451759 S    
O1    Cu1   1.987596 S    
C6    C18   1.461385 S    
C24   H14   1.092467 S    
C26   H8    1.109111 S    
C21   C22   1.528657 S    
O3    C1    1.321061 A    
O5    Cu1   1.984944 S    
C24   H13   1.069276 S    
N2    C24   1.460607 S    
O4    C2    1.322983 A    
C24   C25   1.527147 S    
Cu1   N2    2.065715 S    
C15   N3    1.153362 T    
Cu2   N1    2.065716 S    
C5    C7    1.540714 S    
O6    Cu2   1.984946 S    
C13   C27   1.451376 S    
C25   C26   1.532606 S    
C13   C14   1.369633 D    
C7    C12   1.538932 S    
C4    C9    1.474093 S    
O8    Cu1   1.984801 S    
C17   N5    1.155237 T    
C25   H12   1.104626 S    
C5    C17   1.464473 S    
C25   H11   1.104952 S    
O4    Cu1   1.991396 S    
C21   H7    1.097129 S    
C26   H9    1.110887 S    
C19   N7    1.154830 T    
