data_mof_unit_18693.cif
_audit_creation_date              2012-12-10T17:16:35-0500
_audit_creation_method            fapswitch 2.2
_symmetry_space_group_name_H-M    P1
_symmetry_Int_Tables_number       1
_space_group_crystal_system       triclinic
_cell_length_a                    10.228122
_cell_length_b                    10.619871
_cell_length_c                    10.76061
_cell_angle_alpha                 92.161496
_cell_angle_beta                  95.757652
_cell_angle_gamma                 79.3825
_cell_volume                      1142.80369541

loop_
_atom_site_label
_atom_site_type_symbol
_atom_type_description
_atom_site_fract_x
_atom_site_fract_y
_atom_site_fract_z
_atom_type_partial_charge
C1    C     C_R   0.444077 0.503744 0.267080 0.942635
C2    C     C_R   0.492977 0.740541 0.485355 0.899582
C3    C     C_R   0.751991 0.062618 0.469699 -0.119674
C4    C     C_R   0.248784 0.937662 0.532777 -0.119278
C5    C     C_R   0.840244 0.985309 0.395660 -0.165238
C6    C     C_R   0.160799 0.015070 0.607025 -0.163137
C7    C     C_R   0.801593 0.880563 0.330775 -0.124174
C8    C     C_R   0.199565 0.119950 0.671553 -0.124883
C9    C     C_R   0.678883 0.847822 0.347591 -0.102935
C10   C     C_R   0.322113 0.152710 0.654213 -0.102186
C11   C     C_R   0.592740 0.920479 0.429776 0.089302
C12   C     C_R   0.556176 0.487521 0.732648 0.950716
C13   C     C_R   0.408018 0.079824 0.571996 0.091371
C14   C     C_R   0.621910 0.036892 0.478622 0.095786
C15   C     C_R   0.378810 0.963325 0.523354 0.094782
C16   C     C_R   0.480502 0.877534 0.467086 -0.257053
C17   C     C_R   0.520029 0.122757 0.534374 -0.253542
C18   C     C_2   0.412877 0.491486 0.134079 -0.345783
C19   C     C_2   0.588337 0.465872 0.864441 -0.360677
C20   C     C_2   0.513115 0.447463 0.064737 -0.143397
C21   C     C_2   0.489956 0.450680 0.931675 -0.167381
C22   C     C_2   0.072241 0.490025 0.487482 0.146761
C23   C     C_2   0.927794 0.509844 0.512632 0.147994
C24   C     C_R   0.507129 0.259572 0.515008 0.891319
H1    H     H_    0.133109 0.178196 0.732046 0.142476
H2    H     H_    0.615708 0.419357 0.105513 0.192343
H3    H     H_    0.689676 0.464749 0.906716 0.168619
H4    H     H_    0.310608 0.519822 0.092808 0.165059
H5    H     H_    0.874353 0.384900 0.379432 0.176403
H6    H     H_    0.125561 0.615323 0.620366 0.178203
H7    H     H_    0.868225 0.822430 0.270373 0.143478
H8    H     H_    0.789025 0.139259 0.522781 0.160807
H9    H     H_    0.211391 0.861165 0.479825 0.160723
H10   H     H_    0.938149 0.007550 0.387682 0.146721
H11   H     H_    0.062944 0.992870 0.615342 0.146776
H12   H     H_    0.651935 0.764939 0.296751 0.144034
H13   H     H_    0.349147 0.235796 0.704635 0.138393
H14   H     H_    0.388290 0.452039 0.889907 0.190301
I1    I     I_    0.864380 0.642676 0.658965 -0.373710
I2    I     I_    0.135699 0.356875 0.341397 -0.375234
N1    N     N_2   0.157300 0.551390 0.551120 -0.213320
N2    N     N_2   0.842700 0.448610 0.448880 -0.212840
O1    O     O_R   0.568940 0.489660 0.307530 -0.625481
O2    O     O_R   0.431060 0.510340 0.692470 -0.621539
O3    O     O_R   0.348880 0.522640 0.340350 -0.580567
O4    O     O_R   0.651120 0.477360 0.659650 -0.580287
O5    O     O_R   0.610030 0.300280 0.483580 -0.627103
O6    O     O_R   0.389970 0.699720 0.516420 -0.623296
O7    O     O_R   0.389970 0.333270 0.516400 -0.578136
O8    O     O_R   0.610030 0.666730 0.483600 -0.575217
Zn1   Zn    Zn3+2 0.646940 0.477980 0.478080 0.965010
Zn2   Zn    Zn3+2 0.353060 0.522020 0.521920 0.966474

loop_
_geom_bond_atom_site_label_1
_geom_bond_atom_site_label_2
_ccdc_geom_bond_type
C9    H12   S    
C6    C8    A    
H6    N1    S    
C3    C14   A    
H5    N2    S    
C2    C16   S    
C11   C16   A    
N1    Zn2   S    
C13   C17   A    
N2    Zn1   S    
O7    Zn2   S    
C22   I2    S    
C5    H10   S    
O2    Zn2   S    
C4    C15   A    
O8    Zn1   S    
C18   H4    S    
C12   O2    A    
C20   C21   S    
C8    H1    S    
C9    C11   A    
C14   C17   A    
C1    O3    A    
C1    C18   S    
C23   N2    D    
C20   H2    S    
O1    Zn1   S    
C10   H13   S    
C23   I1    S    
C12   C19   S    
C4    C6    A    
C19   C21   D    
C18   C20   D    
C13   C15   A    
C3    H8    S    
C11   C14   A    
C22   N1    D    
C7    H7    S    
C15   C16   A    
C17   C24   S    
C7    C9    A    
O6    Zn2   S    
C19   H3    S    
C6    H11   S    
C12   O4    A    
C24   O7    A    
C5    C7    A    
C22   C23   S    
O5    Zn1   S    
C2    O8    A    
O3    Zn2   S    
C2    O6    A    
C4    H9    S    
C24   O5    A    
O4    Zn1   S    
C1    O1    A    
C8    C10   A    
C21   H14   S    
C3    C5    A    
C10   C13   A    
