data_mof_unit_62357.cif
_audit_creation_date              2012-12-10T21:41:19-0500
_audit_creation_method            fapswitch 2.2
_symmetry_space_group_name_H-M    P1
_symmetry_Int_Tables_number       1
_space_group_crystal_system       triclinic
_cell_length_a                    23.360681
_cell_length_b                    23.704517
_cell_length_c                    16.20345
_cell_angle_alpha                 89.862111
_cell_angle_beta                  96.112717
_cell_angle_gamma                 89.988958
_cell_volume                      8921.67710654

loop_
_atom_site_label
_atom_site_type_symbol
_atom_type_description
_atom_site_fract_x
_atom_site_fract_y
_atom_site_fract_z
_atom_type_partial_charge
Br1   Br    Br    0.387664 0.290546 0.580503 -0.326911
Br2   Br    Br    0.386660 0.000882 0.274465 -0.235747
Br3   Br    Br    0.113338 0.499057 0.725541 -0.235699
Br4   Br    Br    0.886663 0.500932 0.274454 -0.235670
Br5   Br    Br    0.611329 0.017731 0.924724 -0.258678
Br6   Br    Br    0.388667 0.982263 0.075279 -0.258729
Br7   Br    Br    0.111337 0.517707 0.924721 -0.258696
Br8   Br    Br    0.888667 0.482289 0.075275 -0.258690
Br9   Br    Br    0.612433 0.709452 0.419529 -0.327054
Br10  Br    Br    0.613030 0.289671 0.414444 -0.326325
Br11  Br    Br    0.386715 0.710206 0.584736 -0.326451
Br12  Br    Br    0.887648 0.790535 0.580528 -0.326941
Br13  Br    Br    0.112454 0.209437 0.419700 -0.327018
Br14  Br    Br    0.112846 0.789737 0.414550 -0.326241
Br15  Br    Br    0.886844 0.210318 0.585381 -0.326421
Br16  Br    Br    0.613337 0.999067 0.725549 -0.235638
C1    C     C_R   0.575526 0.077383 0.512006 1.082125
C2    C     C_R   0.486354 0.006741 0.889269 0.149186
C3    C     C_R   0.013643 0.493264 0.110730 0.149202
C4    C     C_R   0.986360 0.506739 0.889270 0.149195
C5    C     C_R   0.564689 0.993701 0.165639 0.227372
C6    C     C_R   0.435306 0.006314 0.834357 0.227415
C7    C     C_R   0.064691 0.493683 0.165641 0.227375
C8    C     C_R   0.935311 0.506320 0.834360 0.227400
C9    C     C_R   0.561827 0.999141 0.253085 0.403865
C10   C     C_R   0.438171 0.000870 0.746911 0.403781
C11   C     C_R   0.061828 0.499126 0.253088 0.403856
C12   C     C_R   0.424460 0.922634 0.487990 1.082425
C13   C     C_R   0.938173 0.500876 0.746913 0.403856
C14   C     C_R   0.612694 0.873675 0.520768 -0.196793
C15   C     C_R   0.387329 0.126343 0.479224 -0.196778
C16   C     C_R   0.387404 0.873622 0.479754 -0.199018
C17   C     C_R   0.612464 0.126485 0.520207 -0.198950
C18   C     C_R   0.112716 0.373693 0.520786 -0.196768
C19   C     C_R   0.887327 0.626339 0.479227 -0.196752
C20   C     C_R   0.887491 0.373551 0.479784 -0.198969
C21   C     C_R   0.112431 0.626511 0.520208 -0.198989
C22   C     C_R   0.594157 0.823854 0.479281 0.303553
C23   C     C_R   0.424426 0.077344 0.487845 1.082477
C24   C     C_R   0.405902 0.176170 0.520664 0.303406
C25   C     C_R   0.405580 0.824084 0.522716 0.303922
C26   C     C_R   0.594256 0.175912 0.476970 0.303901
C27   C     C_R   0.094164 0.323837 0.479414 0.303417
C28   C     C_R   0.905896 0.676167 0.520667 0.303394
C29   C     C_R   0.905675 0.324096 0.522965 0.303898
C30   C     C_R   0.094183 0.675933 0.476983 0.303893
C31   C     C_R   0.632247 0.777843 0.480344 0.119882
C32   C     C_R   0.367830 0.222193 0.519609 0.119975
C33   C     C_R   0.367491 0.778105 0.521867 0.119506
C34   C     C_R   0.575576 0.922657 0.512154 1.082401
C35   C     C_R   0.632252 0.221964 0.477773 0.119375
C36   C     C_R   0.132270 0.277839 0.480481 0.119995
C37   C     C_R   0.867820 0.722186 0.519620 0.120012
C38   C     C_R   0.867641 0.278074 0.522158 0.119401
C39   C     C_R   0.132127 0.722028 0.477841 0.119363
C40   C     C_R   0.687331 0.782650 0.523096 0.145911
C41   C     C_R   0.312744 0.217411 0.476858 0.145881
C42   C     C_R   0.312800 0.782617 0.477779 0.146050
C43   C     C_R   0.686864 0.217652 0.522143 0.146094
C44   C     C_R   0.187372 0.282680 0.523165 0.145881
C45   C     C_R   0.075525 0.577384 0.512006 1.082136
C46   C     C_R   0.812733 0.717399 0.476870 0.145842
C47   C     C_R   0.813011 0.282448 0.477858 0.146107
C48   C     C_R   0.186732 0.717760 0.522240 0.146071
C49   C     C_R   0.703279 0.830256 0.571910 0.306997
C50   C     C_R   0.296774 0.169808 0.428049 0.306961
C51   C     C_R   0.297332 0.829846 0.427542 0.307001
C52   C     C_R   0.702312 0.170570 0.572690 0.306882
C53   C     C_R   0.203333 0.330321 0.571898 0.307017
C54   C     C_R   0.796770 0.669797 0.428052 0.306975
C55   C     C_R   0.797573 0.329565 0.427378 0.306891
C56   C     C_R   0.924470 0.422622 0.487993 1.082191
C57   C     C_R   0.202223 0.670676 0.572758 0.306932
C58   C     C_R   0.666634 0.877612 0.567149 0.234782
C59   C     C_R   0.333390 0.122430 0.432831 0.234832
C60   C     C_R   0.333897 0.877221 0.432086 0.234252
C61   C     C_R   0.665872 0.123103 0.568169 0.234301
C62   C     C_R   0.166667 0.377670 0.567104 0.234807
C63   C     C_R   0.833388 0.622421 0.432837 0.234844
C64   C     C_R   0.834059 0.376998 0.431895 0.234277
C65   C     C_R   0.165832 0.623172 0.568200 0.234363
C66   C     C_R   0.459656 0.998165 0.231125 0.256627
C67   C     C_R   0.924427 0.577345 0.487845 1.082414
C68   C     C_R   0.540341 0.001824 0.768879 0.256709
C69   C     C_R   0.959657 0.498180 0.231122 0.256704
C70   C     C_R   0.040344 0.501817 0.768877 0.256698
C71   C     C_R   0.460418 0.993989 0.144484 0.084265
C72   C     C_R   0.539578 0.006009 0.855518 0.084251
C73   C     C_R   0.960420 0.494000 0.144482 0.084249
C74   C     C_R   0.039582 0.506000 0.855516 0.084255
C75   C     C_R   0.075580 0.422661 0.512156 1.082406
C76   C     C_R   0.513640 0.993269 0.110730 0.149201
H1    H     H_    0.470421 0.215676 0.582637 0.387605
H2    H     H_    0.247886 0.145509 0.330155 0.370109
H3    H     H_    0.249503 0.853428 0.328057 0.370954
H4    H     H_    0.749942 0.147317 0.672516 0.370908
H5    H     H_    0.252249 0.354703 0.669716 0.370130
H6    H     H_    0.747895 0.645503 0.330143 0.370113
H7    H     H_    0.749905 0.352904 0.327628 0.370925
H8    H     H_    0.249873 0.647446 0.672577 0.370860
H9    H     H_    0.725916 0.931561 0.607168 0.371347
H10   H     H_    0.274083 0.068512 0.392793 0.371314
H11   H     H_    0.274862 0.930866 0.389527 0.371614
H12   H     H_    0.529752 0.784400 0.416911 0.387702
H13   H     H_    0.724963 0.069692 0.611310 0.371750
H14   H     H_    0.225959 0.431651 0.607007 0.371364
H15   H     H_    0.774081 0.568505 0.392785 0.371352
H16   H     H_    0.774998 0.430481 0.388891 0.371724
H17   H     H_    0.224964 0.569809 0.611370 0.371785
H18   H     H_    0.644533 0.969524 0.174013 0.359392
H19   H     H_    0.355460 0.030483 0.825968 0.359413
H20   H     H_    0.144528 0.469487 0.174020 0.359401
H21   H     H_    0.855471 0.530509 0.825978 0.359410
H22   H     H_    0.641276 0.021751 0.280594 0.343519
H23   H     H_    0.530266 0.214850 0.412517 0.387537
H24   H     H_    0.358727 0.978254 0.719393 0.343479
H25   H     H_    0.141282 0.521717 0.280599 0.343523
H26   H     H_    0.858722 0.478278 0.719401 0.343503
H27   H     H_    0.469564 0.784933 0.586881 0.387683
H28   H     H_    0.970426 0.715686 0.582598 0.387585
H29   H     H_    0.029659 0.284267 0.417509 0.387654
H30   H     H_    0.030165 0.714823 0.412515 0.387514
H31   H     H_    0.969644 0.285099 0.587383 0.387581
H32   H     H_    0.752161 0.854573 0.669801 0.370136
N1    N     N_2   0.727899 0.740190 0.512857 -0.023434
N2    N     N_R   0.490310 0.000000 0.716270 -0.164142
N3    N     N_R   0.009690 0.500000 0.283730 -0.164111
N4    N     N_R   0.990310 0.500000 0.716270 -0.164114
N5    N     N_2   0.517859 0.986160 0.023503 -0.022314
N6    N     N_2   0.482133 0.013851 0.976495 -0.022278
N7    N     N_2   0.017862 0.486153 0.023504 -0.022296
N8    N     N_2   0.982141 0.513851 0.976496 -0.022289
N9    N     N_2   0.272190 0.259882 0.487106 -0.023407
N10   N     N_2   0.272112 0.740261 0.488031 -0.023847
N11   N     N_2   0.727528 0.260018 0.511829 -0.023509
N12   N     N_2   0.227940 0.240218 0.512934 -0.023530
N13   N     N_2   0.772174 0.759864 0.487123 -0.023454
N14   N     N_2   0.772332 0.240092 0.488156 -0.023628
N15   N     N_2   0.227367 0.760154 0.511945 -0.023384
N16   N     N_R   0.509690 0.000000 0.283730 -0.164099
O1    O     O_R   0.554580 0.058040 0.577230 -0.578030
O2    O     O_R   0.439190 0.941940 0.561660 -0.569215
O3    O     O_R   0.439190 0.058060 0.561660 -0.570612
O4    O     O_R   0.560810 0.941940 0.438340 -0.570638
O5    O     O_R   0.060810 0.558060 0.438340 -0.568942
O6    O     O_R   0.939190 0.441940 0.561660 -0.569033
O7    O     O_R   0.939190 0.558060 0.561660 -0.570620
O8    O     O_R   0.060810 0.441940 0.438340 -0.570663
O9    O     O_3   0.460523 0.177118 0.563187 -0.712308
O10   O     O_3   0.539548 0.822905 0.436713 -0.712059
O11   O     O_3   0.540073 0.176453 0.433078 -0.710118
O12   O     O_R   0.445420 0.941960 0.422770 -0.578186
O13   O     O_3   0.459831 0.823365 0.566399 -0.710050
O14   O     O_3   0.960518 0.677121 0.563190 -0.712331
O15   O     O_3   0.039530 0.322835 0.436937 -0.712228
O16   O     O_3   0.040010 0.676428 0.433054 -0.710140
O17   O     O_3   0.959873 0.323501 0.566812 -0.710059
O18   O     O_3   0.754854 0.828948 0.622185 -0.677220
O19   O     O_3   0.245202 0.171140 0.377768 -0.677232
O20   O     O_3   0.246277 0.828165 0.376111 -0.676647
O21   O     O_3   0.753245 0.172471 0.624367 -0.676751
O22   O     O_3   0.254929 0.329051 0.622126 -0.677186
O23   O     O_R   0.445420 0.058040 0.422770 -0.577624
O24   O     O_3   0.745202 0.671126 0.377763 -0.677249
O25   O     O_3   0.746611 0.327728 0.375758 -0.676719
O26   O     O_3   0.253155 0.672610 0.624431 -0.676785
O27   O     O_3   0.683388 0.928938 0.601983 -0.684262
O28   O     O_3   0.316613 0.071109 0.397999 -0.684108
O29   O     O_3   0.317405 0.928284 0.395755 -0.682310
O30   O     O_3   0.682414 0.072149 0.604803 -0.682259
O31   O     O_3   0.183432 0.429022 0.601851 -0.684286
O32   O     O_3   0.816613 0.571099 0.398010 -0.684225
O33   O     O_3   0.817544 0.427980 0.395328 -0.682257
O34   O     O_R   0.554580 0.941960 0.577230 -0.577734
O35   O     O_3   0.182415 0.572226 0.604827 -0.682251
O36   O     O_3   0.616173 0.987228 0.132060 -0.665163
O37   O     O_3   0.383822 0.012793 0.867931 -0.665168
O38   O     O_3   0.116174 0.487197 0.132065 -0.665160
O39   O     O_3   0.883828 0.512808 0.867936 -0.665159
O40   O     O_3   0.610457 0.003676 0.308793 -0.702473
O41   O     O_3   0.389544 0.996339 0.691200 -0.702460
O42   O     O_3   0.110458 0.503651 0.308798 -0.702441
O43   O     O_3   0.889543 0.496351 0.691205 -0.702454
O44   O     O_R   0.054580 0.558040 0.577230 -0.578059
O45   O     O_R   0.945420 0.441960 0.422770 -0.578106
O46   O     O_R   0.945420 0.558040 0.422770 -0.577615
O47   O     O_R   0.054580 0.441960 0.577230 -0.577717
O48   O     O_R   0.560810 0.058060 0.438340 -0.568971
Zn1   Zn    Zn3+2 0.495820 0.000000 0.592740 1.112780
Zn2   Zn    Zn3+2 0.504180 0.000000 0.407260 1.112821
Zn3   Zn    Zn3+2 0.995820 0.500000 0.592740 1.112824
Zn4   Zn    Zn3+2 0.004180 0.500000 0.407260 1.112852

loop_
_geom_bond_atom_site_label_1
_geom_bond_atom_site_label_2
_ccdc_geom_bond_type
O8    Zn4   S    
N11   N14   D    
H2    O19   S    
C33   C42   A    
N16   Zn2   S    
H14   O31   S    
H1    O9    S    
C41   C50   A    
C41   N9    S    
C9    O40   S    
C32   C41   A    
H26   O43   S    
C42   N10   S    
C14   C22   A    
C3    C73   A    
C17   C26   A    
C65   O35   S    
C1    O1    A    
C69   C73   A    
C64   O33   S    
C14   C58   A    
C27   C36   A    
C38   C47   A    
C1    O48   A    
C40   C49   A    
Br16  C68   S    
H4    O21   S    
C46   C54   A    
H8    O26   S    
C10   N2    A    
H12   O10   S    
H9    O27   S    
C45   O5    A    
C8    C13   A    
C58   O27   S    
C7    O38   S    
O12   Zn2   S    
C36   C44   A    
C15   C24   A    
C18   C75   S    
Br5   C72   S    
C11   N3    A    
C28   C37   A    
C25   C33   A    
C4    C8    A    
O48   Zn2   S    
O7    Zn3   S    
C61   O30   S    
H32   O18   S    
C30   C39   A    
N9    N12   D    
C66   N16   A    
C16   C25   A    
C67   O46   A    
C59   O28   S    
C7    C11   A    
H29   O15   S    
C44   N12   S    
O47   Zn3   S    
Br12  C37   S    
C26   C35   A    
Br14  C39   S    
C14   C34   S    
C50   O19   S    
H27   O13   S    
C19   C28   A    
C71   C76   A    
H24   O41   S    
Br3   C70   S    
C3    N7    S    
C21   C65   A    
C53   C62   A    
C1    C17   S    
C4    N8    S    
C6    O37   S    
C27   O15   S    
Br10  C35   S    
C57   C65   A    
C55   C64   A    
C34   O4    A    
C25   O13   S    
H15   O32   S    
C68   N2    A    
H13   O30   S    
C70   N4    A    
H3    O20   S    
Br15  C38   S    
C12   C16   S    
C9    N16   A    
O1    Zn1   S    
C53   O22   S    
C70   C74   A    
N10   N15   D    
C19   C67   S    
H25   O42   S    
C49   O18   S    
Br4   C69   S    
H31   O17   S    
N1    N13   D    
C52   O21   S    
Br7   C74   S    
C4    C74   A    
C2    C72   A    
C49   C58   A    
C63   O32   S    
N2    Zn1   S    
C3    C7    A    
Br11  C33   S    
C43   C52   A    
Br13  C36   S    
C37   C46   A    
C15   C59   A    
C48   C57   A    
C5    O36   S    
C39   C48   A    
C8    O39   S    
H28   O14   S    
O3    Zn1   S    
O44   Zn3   S    
C29   O17   S    
C20   C29   A    
C40   N1    S    
C26   O11   S    
C22   C31   A    
C51   O20   S    
C67   O7    A    
H21   O39   S    
C47   C55   A    
C29   C38   A    
Br9   C31   S    
H22   O40   S    
O5    Zn4   S    
C20   C64   A    
C5    C76   A    
C47   N14   S    
C75   O8    A    
O6    Zn3   S    
Br2   C66   S    
C35   C43   A    
C23   O23   A    
N7    N8    D    
H16   O33   S    
O45   Zn4   S    
H20   O38   S    
N5    N6    D    
C52   C61   A    
C24   C32   A    
C5    C9    A    
C45   O44   A    
H10   O28   S    
C13   O43   S    
C54   C63   A    
C2    C6    A    
H30   O16   S    
C43   N11   S    
C18   C27   A    
C68   C72   A    
C23   O3    A    
C57   O26   S    
C54   O24   S    
C16   C60   A    
C21   C45   S    
H17   O35   S    
Br1   C32   S    
C12   O12   A    
Br8   C73   S    
H18   O36   S    
C30   O16   S    
N3    Zn4   S    
C34   O34   A    
N4    Zn3   S    
C28   O14   S    
H6    O24   S    
C76   N5    S    
C11   O42   S    
C18   C62   A    
O2    Zn1   S    
C17   C61   A    
O4    Zn2   S    
C44   C53   A    
C56   O6    A    
C50   C59   A    
C69   N3    A    
C19   C63   A    
C62   O31   S    
C15   C23   S    
C24   O9    S    
O23   Zn2   S    
C55   O25   S    
C46   N13   S    
O46   Zn4   S    
C60   O29   S    
C56   O45   A    
C2    N6    S    
Br6   C71   S    
O34   Zn1   S    
C10   O41   S    
C20   C56   S    
C42   C51   A    
C12   O2    A    
H5    O22   S    
C6    C10   A    
C13   N4    A    
H23   O11   S    
H19   O37   S    
H11   O29   S    
C51   C60   A    
C21   C30   A    
C75   O47   A    
C22   O10   S    
C66   C71   A    
C31   C40   A    
H7    O25   S    
C48   N15   S    
