data_mof_unit_55894.cif
_audit_creation_date              2012-12-11T15:33:48-0500
_audit_creation_method            fapswitch 2.2
_symmetry_space_group_name_H-M    P1
_symmetry_Int_Tables_number       1
_space_group_crystal_system       triclinic
_cell_length_a                    27.251848
_cell_length_b                    7.19055
_cell_length_c                    22.734171
_cell_angle_alpha                 90.351696
_cell_angle_beta                  101.046293
_cell_angle_gamma                 90.328479
_cell_volume                      4372.16426125

loop_
_atom_site_label
_atom_site_type_symbol
_atom_type_description
_atom_site_fract_x
_atom_site_fract_y
_atom_site_fract_z
_atom_type_partial_charge
O1    O     O_R   0.207310 0.594030 0.676830 -0.530264
O2    O     O_R   0.792690 0.405970 0.323170 -0.530267
O3    O     O_R   0.292690 0.094030 0.823170 -0.532382
O4    O     O_R   0.707310 0.905970 0.176830 -0.532381
O5    O     O_R   0.197320 0.262370 0.795700 -0.537261
O6    O     O_R   0.802680 0.737630 0.204300 -0.537260
O7    O     O_R   0.302680 0.762370 0.704300 -0.536684
O8    O     O_R   0.697320 0.237630 0.295700 -0.536685
C1    C     C_R   0.184047 0.431785 0.811248 0.684054
C2    C     C_R   0.815953 0.568215 0.188752 0.684057
C3    C     C_R   0.315914 0.931899 0.688722 0.684196
C4    C     C_R   0.684086 0.068101 0.311278 0.684199
O9    O     O_R   0.201410 0.264250 0.675590 -0.537095
O10   O     O_R   0.798590 0.735750 0.324410 -0.537093
O11   O     O_R   0.298590 0.764250 0.824410 -0.537273
O12   O     O_R   0.701410 0.235750 0.175590 -0.537275
O13   O     O_R   0.296810 0.094940 0.702210 -0.537647
O14   O     O_R   0.703190 0.905060 0.297790 -0.537648
O15   O     O_R   0.203190 0.594940 0.797790 -0.536712
O16   O     O_R   0.796810 0.405060 0.202210 -0.536712
C5    C     C_R   0.189763 0.431721 0.653563 0.708707
C6    C     C_R   0.810236 0.568279 0.346436 0.708713
C7    C     C_R   0.310573 0.933748 0.846181 0.708476
C8    C     C_R   0.689426 0.066252 0.153820 0.708475
O17   O     O_3   0.281300 0.427390 0.758870 -0.372359
O18   O     O_3   0.718700 0.572610 0.241130 -0.372359
O19   O     O_3   0.218700 0.927390 0.741130 -0.371019
O20   O     O_3   0.781300 0.072610 0.258870 -0.371019
V1    V     V_3+5 0.244190 0.152150 0.748350 1.407669
V2    V     V_3+5 0.755810 0.847850 0.251650 1.407668
V3    V     V_3+5 0.255810 0.652150 0.751650 1.404155
V4    V     V_3+5 0.744190 0.347850 0.248350 1.404147
C9    C     C_R   0.653736 0.054228 0.095982 -0.073604
C10   C     C_R   0.346262 0.945774 0.904020 -0.073603
C11   C     C_R   0.846765 0.566459 0.403652 -0.073537
C12   C     C_R   0.153236 0.433540 0.596347 -0.073530
C13   C     C_R   0.642418 0.030488 0.987514 0.150276
C14   C     C_R   0.357577 0.969518 0.012486 0.150270
C15   C     C_R   0.863599 0.668495 0.507761 0.152821
C16   C     C_R   0.136403 0.331508 0.492238 0.152821
C17   C     C_R   0.673183 0.026640 0.044312 -0.215610
C18   C     C_R   0.326813 0.973353 0.955688 -0.215608
C19   C     C_R   0.830047 0.625360 0.454781 -0.215027
C20   C     C_R   0.169954 0.374645 0.545218 -0.215025
C21   C     C_R   0.601474 0.072340 0.091782 0.120947
C22   C     C_R   0.398524 0.927679 0.908221 0.120957
C23   C     C_R   0.898394 0.534821 0.406134 0.120320
C24   C     C_R   0.101607 0.465171 0.593864 0.120308
C25   C     C_R   0.568632 0.036432 0.035377 0.011279
C26   C     C_R   0.431365 0.963603 0.964627 0.011282
C27   C     C_R   0.932311 0.544935 0.462987 0.011573
C28   C     C_R   0.067691 0.455055 0.537011 0.011567
C29   C     C_R   0.589638 0.041686 0.982554 -0.037249
C30   C     C_R   0.410359 0.958353 0.017450 -0.037259
C31   C     C_R   0.915565 0.636652 0.511313 -0.034383
C32   C     C_R   0.084437 0.363343 0.488685 -0.034377
C33   C     C_R   0.515890 0.998151 0.028844 -0.030256
C34   C     C_R   0.484106 0.001892 0.971161 -0.030254
C35   C     C_R   0.982572 0.474131 0.473578 -0.022910
C36   C     C_R   0.017430 0.525857 0.526420 -0.022918
C37   C     C_R   0.505555 0.056220 0.922504 -0.235610
C38   C     C_R   0.494441 0.943832 0.077503 -0.235595
C39   C     C_R   0.001802 0.655944 0.565064 -0.230285
C40   C     C_R   0.998200 0.344041 0.434935 -0.230292
C41   C     C_R   0.557065 0.063111 0.926747 0.605795
C42   C     C_R   0.442931 0.936953 0.073259 0.605803
C43   C     C_R   0.951691 0.700021 0.560502 0.604551
C44   C     C_R   0.048311 0.299971 0.439496 0.604553
H1    H     H_    0.286678 0.986929 0.951587 0.116127
H2    H     H_    0.713317 0.013046 0.048411 0.116131
H3    H     H_    0.209550 0.348987 0.548238 0.115245
H4    H     H_    0.790452 0.651022 0.451763 0.115246
H5    H     H_    0.482738 0.092050 0.879926 0.177736
H6    H     H_    0.517258 0.908008 0.120082 0.177731
H7    H     H_    0.028146 0.724335 0.600106 0.174966
H8    H     H_    0.971855 0.275640 0.399894 0.174971
C45   C     C_R   0.640810 0.898287 0.382961 -0.193689
C46   C     C_R   0.359188 0.101708 0.617037 -0.193689
C47   C     C_R   0.859332 0.397216 0.117261 -0.191418
C48   C     C_R   0.140668 0.602783 0.882740 -0.191418
H9    H     H_    0.666250 0.783647 0.382068 0.128941
H10   H     H_    0.333747 0.216346 0.617928 0.128940
H11   H     H_    0.833913 0.281473 0.118201 0.129711
H12   H     H_    0.166088 0.718525 0.881801 0.129710
C49   C     C_R   0.605177 0.882534 0.419580 -0.137795
C50   C     C_R   0.394821 0.117460 0.580417 -0.137791
C51   C     C_R   0.894970 0.381451 0.080662 -0.138807
C52   C     C_R   0.105030 0.618548 0.919338 -0.138807
H13   H     H_    0.604129 0.756282 0.445043 0.148139
H14   H     H_    0.395867 0.243708 0.554952 0.148140
H15   H     H_    0.896033 0.254130 0.055266 0.147797
H16   H     H_    0.103968 0.745867 0.944736 0.147797
C53   C     C_R   0.571755 0.027652 0.423707 -0.019063
C54   C     C_R   0.428245 0.972347 0.576293 -0.019065
C55   C     C_R   0.928361 0.527879 0.076449 -0.019467
C56   C     C_R   0.071639 0.472121 0.923551 -0.019468
C57   C     C_R   0.574523 0.188216 0.389632 -0.115985
C58   C     C_R   0.425478 0.811787 0.610371 -0.115986
C59   C     C_R   0.925578 0.689797 0.110467 -0.119080
C60   C     C_R   0.074421 0.310204 0.889531 -0.119080
H17   H     H_    0.548794 0.300972 0.392145 0.146516
H18   H     H_    0.451209 0.699034 0.607860 0.146516
H19   H     H_    0.951289 0.803588 0.107893 0.146135
H20   H     H_    0.048710 0.196415 0.892105 0.146135
C61   C     C_R   0.610019 0.206516 0.352302 0.143446
C62   C     C_R   0.389983 0.793488 0.647701 0.143444
C63   C     C_R   0.890064 0.708156 0.147786 0.141585
C64   C     C_R   0.109935 0.291846 0.852212 0.141584
C65   C     C_R   0.644399 0.059389 0.348930 -0.057499
C66   C     C_R   0.355601 0.940610 0.651070 -0.057499
C67   C     C_R   0.855692 0.559661 0.151185 -0.056332
C68   C     C_R   0.144308 0.440339 0.848815 -0.056330
N1    N     N_R   0.502457 0.155125 0.468080 -0.277984
N2    N     N_R   0.497542 0.844872 0.531919 -0.277984
N3    N     N_R   0.997605 0.656382 0.031899 -0.279440
N4    N     N_R   0.002395 0.343617 0.968101 -0.279440
N5    N     N_R   0.469012 0.142599 0.503744 -0.279041
N6    N     N_R   0.530987 0.857398 0.496256 -0.279041
N7    N     N_R   0.030984 0.643730 0.996152 -0.280118
N8    N     N_R   0.969016 0.356269 0.003848 -0.280118
C69   C     C_R   0.465779 0.987144 0.536532 0.531788
C70   C     C_R   0.534220 0.012854 0.463468 0.531788
C71   C     C_R   0.034153 0.487023 0.963381 0.530264
C72   C     C_R   0.965847 0.512976 0.036619 0.530264
F1    F     F_    0.574097 0.100010 0.875731 -0.687008
F2    F     F_    0.425899 0.900100 0.124278 -0.687012
F3    F     F_    0.939919 0.814166 0.603374 -0.691470
F4    F     F_    0.060085 0.185827 0.396624 -0.691467
C73   C     C_3   0.416582 0.840789 0.855363 -0.786932
H21   H     H_    0.413838 0.942045 0.818204 0.196494
H22   H     H_    0.455062 0.785827 0.867597 0.229341
H23   H     H_    0.393293 0.717156 0.839023 0.211317
C74   C     C_3   0.583418 0.159234 0.144641 -0.786912
H24   H     H_    0.544942 0.214239 0.132401 0.229340
H25   H     H_    0.586149 0.057955 0.181795 0.196495
H26   H     H_    0.606717 0.282842 0.160990 0.211318
C75   C     C_3   0.083446 0.471501 0.652925 -0.765335
H27   H     H_    0.091725 0.609680 0.674751 0.205701
H28   H     H_    0.043162 0.436786 0.647671 0.230711
H29   H     H_    0.102528 0.363982 0.683752 0.188508
C76   C     C_3   0.916552 0.528479 0.347071 -0.765372
H30   H     H_    0.956837 0.563131 0.352319 0.230713
H31   H     H_    0.908253 0.390326 0.325238 0.205709
H32   H     H_    0.897482 0.636035 0.316251 0.188516
C77   C     C_3   0.667248 0.015133 0.933741 -0.612528
H33   H     H_    0.650581 0.897731 0.904532 0.236238
H34   H     H_    0.663041 0.147287 0.908369 0.250760
H35   H     H_    0.707969 0.988167 0.946874 0.168891
C78   C     C_3   0.332744 0.984839 0.066257 -0.612535
H36   H     H_    0.349392 0.102281 0.095460 0.236235
H37   H     H_    0.292021 0.011713 0.053119 0.168890
H38   H     H_    0.336969 0.852705 0.091638 0.250773
C79   C     C_3   0.842277 0.745170 0.559476 -0.614909
H39   H     H_    0.855434 0.661730 0.600334 0.235971
H40   H     H_    0.853469 0.893129 0.567669 0.249267
H41   H     H_    0.800752 0.739860 0.550330 0.169222
C80   C     C_3   0.157727 0.254841 0.440522 -0.614909
H42   H     H_    0.144569 0.338283 0.399664 0.235969
H43   H     H_    0.199251 0.260157 0.449669 0.169224
H44   H     H_    0.146537 0.106880 0.432328 0.249267
C81   C     C_3   0.609151 0.382852 0.316444 -0.725374
H45   H     H_    0.576894 0.472292 0.320716 0.202580
H46   H     H_    0.643551 0.465912 0.332752 0.211414
H47   H     H_    0.605871 0.348705 0.268206 0.209095
C82   C     C_3   0.390853 0.617159 0.683563 -0.725371
H48   H     H_    0.423113 0.527727 0.679296 0.202583
H49   H     H_    0.394131 0.651316 0.731800 0.209093
H50   H     H_    0.356456 0.534087 0.667256 0.211416
C83   C     C_3   0.890846 0.886190 0.183523 -0.722600
H51   H     H_    0.923063 0.976969 0.179167 0.202495
H52   H     H_    0.856416 0.966840 0.167111 0.210535
H53   H     H_    0.894112 0.854678 0.231827 0.207276
C84   C     C_3   0.109152 0.113815 0.816473 -0.722600
H54   H     H_    0.076934 0.023039 0.820828 0.202496
H55   H     H_    0.105886 0.145333 0.768170 0.207275
H56   H     H_    0.143581 0.033161 0.832885 0.210537

loop_
_geom_bond_atom_site_label_1
_geom_bond_atom_site_label_2
_ccdc_geom_bond_type
C55   C72   S    
O17   V3    S    
C59   H19   S    
C52   C56   A    
O1    C5    A    
C82   H48   S    
N4    C71   A    
C51   H15   S    
O19   V1    S    
C9    C21   A    
C83   H51   S    
O12   C8    A    
O3    C7    A    
C10   C18   A    
C60   H20   S    
C48   H12   S    
C11   C23   A    
C81   H47   S    
C22   C73   S    
C47   C51   A    
C81   H45   S    
C25   C33   A    
C33   C38   A    
C5    C12   S    
C84   H54   S    
O7    C3    A    
C6    C11   S    
C75   H28   S    
C35   C40   A    
C19   H4    S    
C24   C75   S    
C15   C79   S    
C36   C39   A    
C40   C44   A    
O9    V1    S    
C14   C18   A    
C78   H37   S    
C62   C66   A    
O4    C8    A    
C55   C59   A    
C54   C58   A    
O1    V3    S    
O13   V1    S    
C20   H3    S    
O2    V4    S    
N6    C70   A    
O3    V1    S    
N5    C69   A    
C50   C54   A    
C77   H34   S    
N2    C69   A    
C49   C53   A    
C1    O15   A    
C80   H42   S    
C15   C31   A    
N1    C70   A    
C52   H16   S    
C2    O16   A    
C16   C32   A    
C51   C55   A    
O2    C6    A    
C74   H26   S    
C10   C22   A    
C21   C25   A    
C79   H40   S    
C11   C19   A    
C23   C76   S    
C44   F4    S    
C14   C78   S    
C73   H23   S    
C13   C29   A    
C46   C50   A    
C34   C37   A    
O11   C7    A    
O15   V3    S    
C35   C36   A    
C80   H43   S    
C3    C66   S    
C83   H52   S    
O10   V2    S    
C4    C65   S    
C81   H46   S    
C77   H33   S    
O5    V1    S    
C84   H55   S    
C75   H29   S    
C39   C43   A    
C60   C64   A    
O7    V3    S    
C38   C42   A    
C28   C32   A    
C26   C34   A    
C62   C82   S    
C16   C80   S    
C53   C70   S    
C76   H32   S    
C50   H14   S    
C78   H38   S    
C49   H13   S    
O18   V4    S    
C15   C19   A    
C37   H5    S    
C58   H18   S    
C18   H1    S    
N4    N8    A    
C41   F1    S    
O5    C1    A    
C43   F3    S    
C46   H10   S    
C31   C43   A    
C14   C30   A    
C45   H9    S    
O8    C4    A    
C7    C10   S    
C64   C84   S    
C48   C68   A    
C40   H8    S    
O9    C5    A    
C2    C67   S    
C46   C66   A    
C26   C30   A    
C79   H41   S    
C45   C65   A    
N2    N6    A    
N1    N5    A    
O6    V2    S    
C16   C20   A    
C82   H50   S    
N3    N7    A    
C74   H24   S    
C83   H53   S    
C61   C81   S    
C12   C20   A    
C27   C35   A    
C53   C57   A    
C77   H35   S    
C29   C41   A    
C73   H21   S    
O16   V4    S    
C84   H56   S    
C61   C65   A    
C3    O13   A    
N3    C72   A    
C56   C71   S    
C63   C67   A    
O6    C2    A    
C23   C27   A    
O11   V3    S    
C30   C42   A    
N7    C71   A    
C80   H44   S    
O12   V4    S    
C59   C63   A    
C75   H27   S    
C22   C26   A    
C21   C74   S    
C8    C9    S    
C58   C62   A    
C47   C67   A    
C9    C17   A    
O10   C6    A    
C76   H31   S    
C42   F2    S    
C57   C61   A    
C48   C52   A    
C32   C44   A    
C76   H30   S    
C47   H11   S    
C63   C83   S    
C33   C34   A    
O8    V4    S    
C39   H7    S    
C1    C68   S    
C25   C29   A    
C56   C60   A    
O20   V2    S    
C12   C24   A    
C27   C31   A    
C37   C41   A    
C13   C17   A    
C57   H17   S    
O14   V2    S    
C45   C49   A    
C54   C69   S    
C64   C68   A    
C24   C28   A    
C28   C36   A    
C82   H49   S    
C4    O14   A    
C74   H25   S    
C38   H6    S    
C13   C77   S    
C79   H39   S    
C78   H36   S    
O4    V2    S    
N8    C72   A    
C17   H2    S    
C73   H22   S    
