data_mof_unit_8670.cif
_audit_creation_date              2012-12-11T15:35:26-0500
_audit_creation_method            fapswitch 2.2
_symmetry_space_group_name_H-M    P1
_symmetry_Int_Tables_number       1
_space_group_crystal_system       triclinic
_cell_length_a                    17.344225
_cell_length_b                    24.271313
_cell_length_c                    14.885366
_cell_angle_alpha                 89.677087
_cell_angle_beta                  124.951896
_cell_angle_gamma                 90.519683
_cell_volume                      5135.81489688

loop_
_atom_site_label
_atom_site_type_symbol
_atom_type_description
_atom_site_fract_x
_atom_site_fract_y
_atom_site_fract_z
_atom_type_partial_charge
C1    C     C_R   0.317649 0.133867 0.908676 -0.112500
C2    C     C_R   0.599144 0.124057 0.908481 -0.109052
C3    C     C_R   0.252813 0.545403 0.306105 -0.123193
C4    C     C_R   0.057534 0.347595 0.910459 -0.107949
C5    C     C_R   0.099144 0.624057 0.908482 -0.109046
C6    C     C_R   0.434086 0.999203 0.632508 0.054726
C7    C     C_R   0.934084 0.499203 0.632507 0.054728
C8    C     C_R   0.796973 0.999100 0.368937 0.179717
C9    C     C_R   0.296963 0.499095 0.368943 0.179742
C10   C     C_R   0.688813 0.136216 0.999793 0.040201
C11   C     C_R   0.617252 0.816292 0.002553 0.042661
C12   C     C_R   0.188814 0.636216 0.999793 0.040206
C13   C     C_R   0.350203 0.848137 0.907777 -0.126578
C14   C     C_R   0.117249 0.316291 0.002553 0.042673
C15   C     C_3   0.024597 0.944380 0.631122 -0.511942
C16   C     C_3   0.023801 0.047362 0.641070 -0.555188
C17   C     C_3   0.524651 0.444314 0.630952 -0.511960
C18   C     C_3   0.523780 0.547288 0.641161 -0.555200
C19   C     C_3   0.920106 0.942766 0.533835 0.464341
C20   C     C_3   0.919611 0.050619 0.543413 0.413182
C21   C     C_3   0.420112 0.442749 0.533800 0.464344
C22   C     C_3   0.419618 0.550598 0.543439 0.412118
C23   C     C_3   0.058105 0.001843 0.513890 -0.378578
C24   C     C_R   0.817640 0.633858 0.908674 -0.112443
C25   C     C_3   0.558089 0.501936 0.513848 -0.378583
C26   C     C_3   0.071785 0.997902 0.625787 0.261983
C27   C     C_3   0.571788 0.497890 0.625744 0.262208
C28   C     C_3   0.893157 0.998581 0.468219 -0.016431
C29   C     C_3   0.393153 0.498573 0.468213 -0.015968
C30   C     C_R   0.443015 0.846942 0.090467 -0.145777
C31   C     C_R   0.411672 0.135987 0.091929 -0.142101
C32   C     C_R   0.943015 0.346942 0.090467 -0.145790
C33   C     C_R   0.911666 0.635982 0.091928 -0.142097
C34   C     C_3   0.954036 0.002233 0.421666 -0.580882
C35   C     C_R   0.850204 0.348136 0.907778 -0.126573
C36   C     C_3   0.454015 0.502240 0.421636 -0.580813
C37   C     C_R   0.291909 0.730838 0.899615 -0.147704
C38   C     C_R   0.166699 0.192784 0.904830 -0.165146
C39   C     C_R   0.791910 0.230838 0.899614 -0.147859
C40   C     C_R   0.666692 0.692779 0.904828 -0.164849
C41   C     C_R   0.744504 0.184711 0.899922 -0.126390
C42   C     C_R   0.611373 0.733010 0.905424 -0.152441
C43   C     C_R   0.244504 0.684711 0.899922 -0.126273
C44   C     C_R   0.111373 0.233010 0.905426 -0.152750
C45   C     C_R   0.762613 0.165518 0.999295 0.131525
C46   C     C_R   0.689874 0.123256 0.091637 -0.118882
C47   C     C_R   0.642319 0.759307 0.004285 0.136043
C48   C     C_R   0.262613 0.665518 0.999296 0.131490
C49   C     C_R   0.142317 0.259307 0.004286 0.136097
C50   C     C_R   0.842740 0.184469 0.098250 -0.158083
C51   C     C_R   0.713904 0.735747 0.103836 -0.160468
C52   C     C_R   0.342740 0.684469 0.098250 -0.158057
C53   C     C_R   0.213906 0.235748 0.103838 -0.160481
C54   C     C_R   0.390242 0.730554 0.098049 -0.161958
C55   C     C_R   0.269176 0.195517 0.103295 -0.163979
C56   C     C_R   0.890243 0.230554 0.098049 -0.161982
C57   C     C_R   0.648203 0.849086 0.092836 -0.127025
C58   C     C_R   0.769167 0.695511 0.103293 -0.163967
C59   C     C_R   0.358146 0.757314 0.998775 0.124559
C60   C     C_R   0.251839 0.179019 0.003218 0.146831
C61   C     C_R   0.858147 0.257313 0.998775 0.124589
C62   C     C_R   0.751830 0.679011 0.003216 0.146780
C63   C     C_R   0.393849 0.948030 0.467971 -0.157094
C64   C     C_R   0.388786 0.047815 0.462738 -0.155210
C65   C     C_R   0.893848 0.448030 0.467971 -0.157093
C66   C     C_R   0.888786 0.547815 0.462738 -0.155189
C67   C     C_R   0.399459 0.947735 0.379181 -0.138469
C68   C     C_R   0.189875 0.623256 0.091637 -0.118881
C69   C     C_R   0.393586 0.047456 0.373237 -0.142530
C70   C     C_R   0.899459 0.447736 0.379182 -0.138440
C71   C     C_R   0.893588 0.547457 0.373239 -0.142491
C72   C     C_R   0.410745 0.997706 0.340491 0.139926
C73   C     C_R   0.910747 0.497706 0.340493 0.139915
C74   C     C_R   0.489443 0.044545 0.260434 -0.045685
C75   C     C_R   0.482534 0.953105 0.251399 -0.057742
C76   C     C_R   0.989446 0.544545 0.260437 -0.045656
C77   C     C_R   0.982534 0.453105 0.251400 -0.057715
C78   C     C_R   0.399720 0.998298 0.517556 0.129623
C79   C     C_R   0.148202 0.349085 0.092836 -0.127005
C80   C     C_R   0.899718 0.498298 0.517555 0.129604
C81   C     C_R   0.230670 0.952622 0.743081 -0.149434
C82   C     C_R   0.229284 0.045188 0.734132 -0.149154
C83   C     C_R   0.730674 0.452618 0.743063 -0.149480
C84   C     C_R   0.729280 0.545186 0.734098 -0.149102
C85   C     C_R   0.324257 0.150930 0.001304 0.046614
C86   C     C_R   0.381472 0.815400 0.998940 0.055231
C87   C     C_R   0.824247 0.650921 0.001303 0.046614
C88   C     C_R   0.881473 0.315399 0.998940 0.055239
C89   C     C_R   0.455875 0.998393 0.283012 0.021648
C90   C     C_R   0.557536 0.847595 0.910458 -0.107937
C91   C     C_R   0.955878 0.498393 0.283015 0.021648
C92   C     C_R   0.173557 0.998553 0.708635 0.087627
C93   C     C_R   0.673558 0.498547 0.708584 0.087578
C94   C     C_R   0.449828 0.045145 0.695498 -0.130879
C95   C     C_R   0.451920 0.953889 0.697649 -0.104479
C96   C     C_R   0.949827 0.545145 0.695498 -0.130856
C97   C     C_R   0.951919 0.453889 0.697649 -0.104474
C98   C     C_R   0.752514 0.953498 0.304144 -0.119828
C99   C     C_R   0.752814 0.045405 0.306099 -0.123243
C100  C     C_R   0.252500 0.453496 0.304148 -0.119890
H1    H     H_    0.265299 0.145703 0.825563 0.087038
H2    H     H_    0.914201 0.087232 0.494786 0.038695
H3    H     H_    0.415087 0.410078 0.478449 0.044168
H4    H     H_    0.414307 0.587208 0.494857 0.038554
H5    H     H_    0.092119 0.966258 0.502944 0.172342
H6    H     H_    0.091554 0.040115 0.509147 0.171106
H7    H     H_    0.592212 0.466430 0.502852 0.172361
H8    H     H_    0.591414 0.540278 0.509146 0.171050
H9    H     H_    0.938417 0.967096 0.365539 0.196081
H10   H     H_    0.938326 0.040502 0.372364 0.192008
H11   H     H_    0.438458 0.467073 0.365593 0.196049
H12   H     H_    0.312434 0.834606 0.823666 0.086250
H13   H     H_    0.438224 0.540482 0.372241 0.192006
H14   H     H_    0.269508 0.748268 0.821309 0.118175
H15   H     H_    0.146454 0.176578 0.826599 0.104688
H16   H     H_    0.769509 0.248268 0.821308 0.118171
H17   H     H_    0.646446 0.676573 0.826597 0.104456
H18   H     H_    0.687364 0.168396 0.821858 0.121913
H19   H     H_    0.551390 0.747322 0.827501 0.113655
H20   H     H_    0.187364 0.668395 0.821859 0.121919
H21   H     H_    0.051388 0.247320 0.827504 0.113826
H22   H     H_    0.862957 0.168023 0.176490 0.106898
H23   H     H_    0.765283 0.645688 0.825560 0.087012
H24   H     H_    0.734926 0.752286 0.182104 0.114528
H25   H     H_    0.362957 0.668023 0.176490 0.106882
H26   H     H_    0.234926 0.252287 0.182106 0.114493
H27   H     H_    0.445272 0.747769 0.176294 0.110143
H28   H     H_    0.329585 0.181532 0.181209 0.107162
H29   H     H_    0.945273 0.247769 0.176294 0.110162
H30   H     H_    0.829574 0.681524 0.181207 0.107175
H31   H     H_    0.395573 0.908823 0.503746 0.110355
H32   H     H_    0.386499 0.087208 0.494576 0.110980
H33   H     H_    0.895571 0.408823 0.503745 0.110374
H34   H     H_    0.812437 0.334605 0.823667 0.086241
H35   H     H_    0.886498 0.587209 0.494575 0.110985
H36   H     H_    0.490065 0.832577 0.173773 0.094615
H37   H     H_    0.445113 0.150124 0.174677 0.094416
H38   H     H_    0.990066 0.332577 0.173773 0.094625
H39   H     H_    0.945105 0.650121 0.174675 0.094421
H40   H     H_    0.405349 0.908408 0.349994 0.109191
H41   H     H_    0.393807 0.086547 0.338164 0.104076
H42   H     H_    0.905350 0.408408 0.349996 0.109207
H43   H     H_    0.893809 0.586547 0.338166 0.104079
H44   H     H_    0.491972 0.085875 0.287167 0.092027
H45   H     H_    0.034162 0.942623 0.711455 0.224151
H46   H     H_    0.471288 0.910104 0.259284 0.088825
H47   H     H_    0.991978 0.585874 0.287173 0.092034
H48   H     H_    0.971288 0.410104 0.259285 0.088842
H49   H     H_    0.210956 0.909682 0.728845 0.103221
H50   H     H_    0.206185 0.086017 0.701648 0.088387
H51   H     H_    0.710967 0.409677 0.728850 0.103263
H52   H     H_    0.706172 0.586014 0.701613 0.088350
H53   H     H_    0.431231 0.087201 0.667511 0.089912
H54   H     H_    0.435862 0.911250 0.672841 0.084651
H55   H     H_    0.931230 0.587201 0.667511 0.089911
H56   H     H_    0.031541 0.042543 0.720183 0.213328
H57   H     H_    0.935861 0.411250 0.672840 0.084664
H58   H     H_    0.765207 0.910605 0.327715 0.124484
H59   H     H_    0.766455 0.087809 0.333045 0.115774
H60   H     H_    0.265166 0.410602 0.327718 0.124277
H61   H     H_    0.266467 0.587806 0.333056 0.115801
H62   H     H_    0.747511 0.127892 0.176563 0.089417
H63   H     H_    0.686544 0.836469 0.177610 0.095109
H64   H     H_    0.247512 0.627890 0.176564 0.089404
H65   H     H_    0.186542 0.336469 0.177611 0.095050
H66   H     H_    0.512423 0.833852 0.826432 0.087624
H67   H     H_    0.534357 0.442417 0.711355 0.224032
H68   H     H_    0.572239 0.128967 0.823236 0.100425
H69   H     H_    0.012421 0.333851 0.826432 0.087643
H70   H     H_    0.072240 0.628967 0.823237 0.100428
H71   H     H_    0.058167 0.906995 0.625780 0.141014
H72   H     H_    0.057914 0.087222 0.646025 0.135261
H73   H     H_    0.558173 0.406981 0.625330 0.140960
H74   H     H_    0.557932 0.587171 0.646337 0.134926
H75   H     H_    0.782998 0.837349 0.561658 0.369655
H76   H     H_    0.928329 0.137388 0.687474 0.330185
H77   H     H_    0.283586 0.337353 0.562654 0.369698
H78   H     H_    0.531437 0.542352 0.720207 0.213790
H79   H     H_    0.428327 0.637744 0.685959 0.329500
H80   H     H_    0.915220 0.910103 0.478549 0.044381
N1    N     N_R   0.392140 0.102630 0.941800 -0.041064
N2    N     N_R   0.525160 0.972040 0.206160 -0.039164
N3    N     N_R   0.025160 0.527960 0.206160 -0.040198
N4    N     N_R   0.025160 0.472040 0.206160 -0.039169
N5    N     N_R   0.317870 0.971120 0.792790 -0.042228
N6    N     N_R   0.317870 0.028880 0.792790 -0.039827
N7    N     N_R   0.817870 0.471120 0.792790 -0.042222
N8    N     N_R   0.817870 0.528880 0.792790 -0.039824
N9    N     N_R   0.473480 0.027920 0.793480 -0.042007
N10   N     N_R   0.473480 0.972080 0.793480 -0.041699
N11   N     N_R   0.973480 0.527920 0.793480 -0.042009
N12   N     N_R   0.392140 0.897370 0.941800 -0.039978
N13   N     N_R   0.973480 0.472080 0.793480 -0.041699
N14   N     N_R   0.681610 0.971120 0.207570 -0.051018
N15   N     N_R   0.681610 0.028880 0.207570 -0.051665
N16   N     N_R   0.181610 0.471120 0.207570 -0.051002
N17   N     N_R   0.181610 0.528880 0.207570 -0.051675
N18   N     N_R   0.605410 0.102620 0.056870 -0.042737
N19   N     N_R   0.605410 0.897380 0.056870 -0.041332
N20   N     N_R   0.105410 0.602620 0.056870 -0.042738
N21   N     N_R   0.105410 0.397380 0.056870 -0.041328
N22   N     N_R   0.549680 0.896430 0.944180 -0.041106
N23   N     N_R   0.892140 0.602630 0.941800 -0.041071
N24   N     N_R   0.549680 0.103570 0.944180 -0.044727
N25   N     N_R   0.049680 0.396430 0.944180 -0.041106
N26   N     N_R   0.049680 0.603570 0.944180 -0.044728
N27   N     N_R   0.892140 0.397370 0.941800 -0.039977
N28   N     N_R   0.450890 0.896450 0.057150 -0.043797
N29   N     N_R   0.450890 0.103550 0.057150 -0.042899
N30   N     N_R   0.950890 0.396450 0.057150 -0.043797
N31   N     N_R   0.950890 0.603550 0.057150 -0.042902
N32   N     N_R   0.525160 0.027960 0.206160 -0.040197
Ni1   Ni    Ni4+2 0.433410 0.064680 0.868830 0.214937
Ni2   Ni    Ni4+2 0.433410 0.935320 0.868830 0.206808
Ni3   Ni    Ni4+2 0.933410 0.564680 0.868830 0.214948
Ni4   Ni    Ni4+2 0.933410 0.435320 0.868830 0.206811
Ni5   Ni    Ni4+2 0.565650 0.934380 0.131170 0.235974
Ni6   Ni    Ni4+2 0.565650 0.065620 0.131170 0.246257
Ni7   Ni    Ni4+2 0.065650 0.434380 0.131170 0.235961
Ni8   Ni    Ni4+2 0.065650 0.565620 0.131170 0.246268
O1    O     O_2   0.887799 0.924408 0.692144 -0.236927
O2    O     O_2   0.242949 0.559029 0.497891 -0.232547
O3    O     O_2   0.369509 0.534510 0.686278 -0.206958
O4    O     O_3   0.361727 0.634717 0.622446 -0.530451
O5    O     O_2   0.749688 0.944750 0.507394 -0.241522
O6    O     O_3   0.827266 0.849353 0.543452 -0.572294
O7    O     O_2   0.742989 0.059159 0.497935 -0.232680
O8    O     O_2   0.869463 0.034283 0.686139 -0.207494
O9    O     O_3   0.862068 0.134611 0.623039 -0.530887
O10   O     O_2   0.387954 0.424708 0.692306 -0.236863
O11   O     O_2   0.249717 0.444649 0.507401 -0.241746
O12   O     O_3   0.327723 0.349340 0.544239 -0.572086
S1    S     S_3+6 0.843905 0.917140 0.571789 -0.015588
S2    S     S_3+6 0.845208 0.067609 0.588016 0.003110
S3    S     S_3+6 0.344058 0.417186 0.572005 -0.015601
S4    S     S_3+6 0.345135 0.567652 0.587912 0.003409

loop_
_geom_bond_atom_site_label_1
_geom_bond_atom_site_label_2
_ccdc_geom_bond_type
N26   Ni3   S    
C58   C62   A    
C24   N23   A    
N3    Ni8   S    
C31   C85   A    
C22   C29   S    
C99   H59   S    
C53   C55   A    
C11   C47   S    
C50   H22   S    
C12   C48   S    
N23   N31   A    
H77   O12   S    
C24   H23   S    
C22   H4    S    
C4    N25   A    
C39   C41   A    
C15   C19   S    
C7    C96   A    
C12   C68   A    
C29   C36   S    
O2    S4    D    
C13   N12   A    
C82   N6    A    
N29   Ni6   S    
C96   N11   A    
N23   Ni3   S    
C75   C89   A    
C8    C99   A    
C33   H39   S    
C13   H12   S    
C81   H49   S    
C42   H19   S    
C46   N18   A    
C14   C49   S    
C20   H2    S    
C69   H41   S    
C65   C70   A    
C83   C93   A    
N6    Ni1   S    
C99   N15   A    
C44   H21   S    
N15   Ni6   S    
C77   N4    A    
C82   C92   A    
N5    Ni2   S    
C98   N14   A    
C6    C78   S    
N1    N29   A    
C67   C72   A    
C23   C26   S    
C97   N13   A    
O9    S2    S    
C65   H33   S    
C8    C98   A    
C74   H44   S    
C95   N10   A    
N11   Ni3   S    
C5    N26   A    
C81   C92   A    
C52   H25   S    
N4    Ni7   S    
C98   H58   S    
C76   H47   S    
C17   H73   S    
C79   N21   A    
N19   Ni5   S    
C13   C86   A    
C16   H56   S    
N19   N22   A    
C5    H70   S    
N21   N25   A    
C63   H31   S    
C41   H18   S    
C30   C86   A    
C76   N3    A    
C43   C48   A    
O8    S2    D    
C56   H29   S    
C9    C29   S    
C43   H20   S    
C42   C47   A    
C40   C42   A    
C40   H17   S    
N17   Ni8   S    
C40   C62   A    
C28   C34   S    
C65   C80   A    
C55   C60   A    
C57   N19   A    
C16   C26   S    
C51   H24   S    
N12   N28   A    
C83   N7    A    
N18   Ni6   S    
C3    H61   S    
C70   C73   A    
C36   H13   S    
C19   S1    S    
C35   H34   S    
C81   N5    A    
N8    Ni3   S    
C52   C54   A    
C38   C44   A    
N14   Ni5   S    
C83   H51   S    
C54   C59   A    
C100  N16   A    
C75   H46   S    
C1    C85   A    
C39   C61   A    
C63   C67   A    
C70   H42   S    
C4    H69   S    
C21   H3    S    
C57   H63   S    
C17   C27   S    
C64   H32   S    
C2    N24   A    
N21   Ni7   S    
C5    C12   A    
C17   H67   S    
C15   H45   S    
C1    N1    A    
N16   N17   A    
C15   C26   S    
C47   C51   A    
C37   H14   S    
C20   C28   S    
C6    C94   A    
C64   C69   A    
C23   H6    S    
C21   C29   S    
N24   Ni1   S    
C44   C49   A    
C17   C21   S    
N30   Ni7   S    
C74   N32   A    
C97   H57   S    
C76   C91   A    
C37   C43   A    
C69   C72   A    
N3    N4    A    
N11   N13   A    
C32   H38   S    
C3    C9    A    
C61   C88   S    
N27   N30   A    
C32   N30   A    
C35   C88   A    
C16   H72   S    
C2    H68   S    
C66   C71   A    
C31   N29   A    
N31   Ni8   S    
C16   C20   S    
C23   C34   S    
C30   N28   A    
C36   H11   S    
N2    N32   A    
C15   H71   S    
O10   S3    D    
N12   Ni2   S    
C51   C58   A    
C82   H50   S    
C14   C79   A    
C79   H65   S    
C19   C28   S    
H75   O6    S    
C77   H48   S    
C73   C91   S    
C37   C59   A    
N9    Ni1   S    
N2    Ni5   S    
C22   S4    S    
C18   H74   S    
C35   N27   A    
C39   H16   S    
C9    C100  A    
C30   H36   S    
N10   Ni2   S    
N18   N24   A    
N20   Ni8   S    
C53   H26   S    
C38   C60   A    
C27   C93   S    
C8    C28   S    
C2    C10   A    
C1    H1    S    
C10   C46   A    
N16   Ni7   S    
C74   C89   A    
N13   Ni4   S    
C71   C73   A    
C54   H27   S    
N28   Ni5   S    
C72   C89   S    
O7    S2    D    
C67   H40   S    
N7    Ni4   S    
C77   C91   A    
N20   N26   A    
C7    C97   A    
O1    S1    D    
C18   C22   S    
C64   C78   A    
C84   H52   S    
C18   C27   S    
C100  H60   S    
O11   S3    D    
C60   C85   S    
C25   C27   S    
C66   C80   A    
C62   C87   S    
C20   S2    S    
N25   Ni4   S    
H79   O4    S    
C68   N20   A    
C95   H54   S    
O5    S1    D    
C33   C87   A    
C94   N9    A    
C31   H37   S    
N7    N8    A    
C38   H15   S    
C33   N31   A    
C11   C90   A    
N5    N6    A    
C21   S3    S    
C71   H43   S    
N32   Ni6   S    
C45   C50   A    
C58   H30   S    
C94   H53   S    
C49   C53   A    
H76   O9    S    
N27   Ni4   S    
C3    N17   A    
C68   H64   S    
N14   N15   A    
C84   C93   A    
O12   S3    S    
C4    C14   A    
N9    N10   A    
C24   C87   A    
C50   C56   A    
C59   C86   S    
C23   H5    S    
C84   N8    A    
O3    S4    D    
O4    S4    S    
C25   C36   S    
C66   H35   S    
C96   H55   S    
C48   C52   A    
C55   H28   S    
C18   H78   S    
N22   Ni2   S    
C6    C95   A    
C46   H62   S    
C10   C45   S    
O6    S1    S    
C34   H9    S    
C41   C45   A    
C56   C61   A    
N1    Ni1   S    
C34   H10   S    
C11   C57   A    
C75   N2    A    
C26   C92   S    
C19   H80   S    
C25   H7    S    
C90   H66   S    
C25   H8    S    
C7    C80   S    
C90   N22   A    
C63   C78   A    
C32   C88   A    
