data_mof_unit_63014.cif
_audit_creation_date              2012-12-11T18:55:37-0500
_audit_creation_method            fapswitch 2.2
_symmetry_space_group_name_H-M    P1
_symmetry_Int_Tables_number       1
_space_group_crystal_system       triclinic
_cell_length_a                    8.239072
_cell_length_b                    15.028665
_cell_length_c                    16.41425
_cell_angle_alpha                 111.509768
_cell_angle_beta                  97.297964
_cell_angle_gamma                 81.895879
_cell_volume                      1865.74306237

loop_
_atom_site_label
_atom_site_type_symbol
_atom_type_description
_atom_site_fract_x
_atom_site_fract_y
_atom_site_fract_z
_atom_type_partial_charge
Ba1   Ba    Ba6+2 0.364200 0.465260 0.540910 1.810014
Ba2   Ba    Ba6+2 0.825640 0.534660 0.459080 1.697795
C1    C     C_3   0.199057 0.177472 0.751431 -0.058564
C2    C     C_R   0.894454 0.532332 0.753443 0.287278
C3    C     C_2   0.479100 0.383122 0.131463 -0.147618
C4    C     C_3   0.730787 0.324777 0.770325 0.325092
C5    C     C_2   0.453713 0.419602 0.217451 0.107462
C6    C     C_2   0.181192 0.499401 0.190435 -0.115337
C7    C     C_3   0.229292 0.487395 0.100312 -0.120194
C8    C     C_3   0.348272 0.397008 0.062814 0.170714
C9    C     C_2   0.091662 0.495814 0.032878 0.458953
C10   C     C_2   0.118969 0.529073 0.970438 0.504367
C11   C     C_R   0.835113 0.588641 0.929647 0.136863
C12   C     C_3   0.204301 0.263284 0.722652 0.294388
C13   C     C_R   0.988865 0.540724 0.902784 -0.150852
C14   C     C_R   0.713263 0.609456 0.869935 0.511913
C15   C     C_R   0.742905 0.581814 0.781342 -0.051861
C16   C     C_3   0.806045 0.303638 0.852163 0.531687
C17   C     C_R   0.019228 0.512744 0.813381 0.005968
C18   C     C_R   0.850775 0.186755 0.555064 0.075432
C19   C     C_R   0.071870 0.205115 0.478822 -0.001128
C20   C     C_R   0.254555 0.764180 0.472222 -0.210489
C21   C     C_R   0.338544 0.816104 0.439530 -0.079885
C22   C     C_R   0.280586 0.911407 0.449155 -0.009116
C23   C     C_3   0.026091 0.737526 0.733751 0.277415
C24   C     C_R   0.135840 0.956561 0.492592 0.091747
C25   C     C_R   0.058664 0.903526 0.530357 -0.056460
C26   C     C_R   0.067334 0.052918 0.502088 -0.042350
C27   C     C_R   0.920113 0.092145 0.546498 -0.144584
C28   C     C_3   0.721862 0.230088 0.334281 0.956128
C29   C     C_R   0.849298 0.036181 0.582498 0.572661
C30   C     C_R   0.920986 0.946342 0.577103 -0.069532
C31   C     C_R   0.138264 0.110757 0.467383 -0.109238
C32   C     C_R   0.931460 0.243019 0.524310 -0.214314
C33   C     C_R   0.120185 0.808016 0.520728 0.077300
C34   C     C_3   0.042862 0.790703 0.832678 0.427073
C35   C     C_3   0.768561 0.121728 0.300206 -0.276903
C36   C     C_3   0.494322 0.766281 0.656500 0.241524
C37   C     C_3   0.469538 0.875279 0.682340 -0.322616
C38   C     C_3   0.141715 0.280701 0.265235 0.790361
C39   C     C_3   0.071514 0.238921 0.169959 1.093793
C40   C     C_3   0.474036 0.137970 0.816002 -0.076148
C41   C     C_3   0.486164 0.707340 0.228270 0.948526
C42   C     C_3   0.487415 0.732849 0.146733 -0.187253
C43   C     C_3   0.978919 0.735829 0.263410 0.915469
C44   C     C_3   0.955470 0.814697 0.224093 0.478514
C45   C     C_2   0.297508 0.477033 0.247264 0.353702
F1    F     F_    0.303127 0.291459 0.265105 -0.745444
F2    F     F_    0.922198 0.506274 0.667809 -0.700252
F3    F     F_    0.945819 0.461874 0.030426 -0.677299
F4    F     F_    0.270195 0.555863 0.970634 -0.663588
F5    F     F_    0.710112 0.065687 0.624896 -0.726785
F6    F     F_    0.694939 0.335527 0.916145 -0.634319
F7    F     F_    0.632861 0.254203 0.406381 -0.703910
F8    F     F_    0.160337 0.152439 0.126766 -0.639033
F9    F     F_    0.908673 0.224048 0.166288 -0.730641
F10   F     F_    0.016779 0.731708 0.876297 -0.734684
F11   F     F_    0.555724 0.613459 0.211478 -0.683164
F12   F     F_    0.912472 0.771087 0.343773 -0.669310
F13   F     F_    0.048945 0.888289 0.273928 -0.715160
F14   F     F_    0.569158 0.659574 0.899513 -0.629719
F15   F     F_    0.267903 0.498723 0.332275 -0.703153
H1    H     H_    0.279056 0.241694 0.665478 0.089041
H2    H     H_    0.072350 0.351767 0.296590 -0.056345
H3    H     H_    0.079168 0.289996 0.136191 -0.118293
H4    H     H_    0.076901 0.283973 0.700786 -0.056007
H5    H     H_    0.101276 0.133635 0.709512 0.048656
H6    H     H_    0.898979 0.716645 0.713769 0.016770
H7    H     H_    0.116017 0.672297 0.717492 0.074228
H8    H     H_    0.951330 0.855084 0.850845 0.058872
H9    H     H_    0.168447 0.813963 0.853468 0.084031
H10   H     H_    0.164290 0.202678 0.820426 0.110026
H11   H     H_    0.918328 0.341279 0.878854 0.039384
H12   H     H_    0.846586 0.100961 0.244369 0.152656
H13   H     H_    0.356590 0.713472 0.242103 -0.194584
H14   H     H_    0.613708 0.719238 0.125179 0.131257
H15   H     H_    0.405559 0.688494 0.092776 0.168276
H16   H     H_    0.442807 0.809936 0.160845 0.077991
H17   H     H_    0.112205 0.716112 0.274006 -0.182740
H18   H     H_    0.824158 0.843940 0.222671 0.044580
H19   H     H_    0.641957 0.390449 0.789528 0.111082
H20   H     H_    0.993890 0.785269 0.156043 -0.020932
H21   H     H_    0.589300 0.335427 0.109475 0.168774
H22   H     H_    0.879697 0.315565 0.531795 0.137338
H23   H     H_    0.837332 0.098802 0.352885 0.065766
H24   H     H_    0.243962 0.084183 0.429700 0.109846
H25   H     H_    0.831707 0.340306 0.740524 -0.856829
H26   H     H_    0.301955 0.691255 0.465941 0.080487
H27   H     H_    0.352676 0.948227 0.423680 0.075557
H28   H     H_    0.861742 0.910272 0.609285 0.126100
H29   H     H_    0.842427 0.225219 0.835608 0.034411
H30   H     H_    0.834538 0.267163 0.353591 -0.151920
H31   H     H_    0.400686 0.096845 0.680561 0.257571
H32   H     H_    0.592083 0.092467 0.797295 0.132103
H33   H     H_    0.429446 0.122592 0.870265 0.109505
H34   H     H_    0.655826 0.083587 0.277643 0.135556
H35   H     H_    0.495551 0.214809 0.839152 0.210032
H36   H     H_    0.374567 0.736568 0.633143 -0.016057
H37   H     H_    0.578043 0.736680 0.602756 0.062697
H38   H     H_    0.381917 0.906895 0.734298 0.140750
H39   H     H_    0.420183 0.895076 0.624576 0.041795
H40   H     H_    0.589273 0.905770 0.707577 0.139421
N1    N     N_2   0.353782 0.116048 0.740851 -0.430746
O1    O     O_2   0.428380 0.595290 0.716080 -0.441590
O2    O     O_2   0.672420 0.816538 0.463305 -0.424238
O3    O     O_3   0.576815 0.771137 0.298448 -0.587085
O4    O     O_3   0.649320 0.571640 0.606850 -0.437748
O5    O     O_3   0.067570 0.379360 0.450830 -0.458243
O6    O     O_2   0.850910 0.734710 0.551660 -0.459191
O7    O     O_3   0.058515 0.799570 0.692931 -0.713520
O8    O     O_2   0.846696 0.483333 0.189133 -0.341390
O9    O     O_3   0.898574 0.656867 0.206088 -0.630854
O10   O     O_3   0.202060 0.415890 0.655600 -0.435194
O11   O     O_2   0.362937 0.505439 0.808269 -0.345146
O12   O     O_3   0.134944 0.216073 0.307696 -0.629602
O13   O     O_3   0.561547 0.744602 0.730540 -0.604014
O14   O     O_3   0.269616 0.340085 0.792481 -0.583935
O15   O     O_2   0.338780 0.265250 0.448290 -0.352689
O16   O     O_3   0.612600 0.359160 0.609560 -0.446999
O17   O     O_2   0.505348 0.187884 0.552156 -0.444840
O18   O     O_3   0.648971 0.246314 0.712498 -0.547021
O19   O     O_2   0.761310 0.404670 0.283870 -0.494222
O20   O     O_3   0.540390 0.428280 0.393140 -0.353889
O21   O     O_3   0.987650 0.584030 0.344390 -0.374542
O22   O     O_3   0.626728 0.254875 0.267501 -0.543993
O23   O     O_3   0.122140 0.620560 0.549160 -0.437751
O24   O     O_3   0.577110 0.640760 0.390430 -0.443720
P1    P     P_3+3 0.592580 0.619730 0.703530 1.158787
P2    P     P_3+3 0.156500 0.273340 0.422460 1.070377
P3    P     P_3+3 0.653778 0.241891 0.604637 1.190432
P4    P     P_3+3 0.597130 0.380190 0.296460 1.216116
P5    P     P_3+3 0.538831 0.761022 0.397176 1.101905
P6    P     P_3+3 0.214641 0.446071 0.769344 1.170182
P7    P     P_3+3 0.040394 0.741308 0.578854 0.962435
P8    P     P_3+3 0.978098 0.554607 0.230841 1.169840

loop_
_geom_bond_atom_site_label_1
_geom_bond_atom_site_label_2
_ccdc_geom_bond_type
C35   H12   S    
Ba2   O6    S    
Ba1   P1    S    
O18   P3    S    
C36   H36   S    
O14   P6    S    
C40   N1    S    
H31   N1    S    
C45   F15   S    
C43   O9    S    
Ba2   O20   S    
C13   C17   A    
C20   C33   A    
C28   F7    S    
C26   C27   A    
C24   C25   A    
C32   H22   S    
O17   P3    D    
C16   H29   S    
C35   H23   S    
C42   H15   S    
C22   C24   A    
O4    P1    S    
Ba1   P2    S    
C36   C37   S    
C3    H21   S    
C38   O12   S    
C19   C31   A    
Ba2   O4    S    
O16   P3    S    
Ba1   Ba2   S    
Ba1   O16   S    
C42   H14   S    
O24   P5    S    
C39   F8    S    
C16   F6    S    
C44   H20   S    
C2    C17   A    
C30   H28   S    
C14   C15   A    
C21   C22   A    
C20   H26   S    
C7    C8    S    
C29   F5    S    
C5    P4    S    
C41   F11   S    
C34   H9    S    
C18   C32   A    
Ba2   O24   S    
O6    P7    D    
C28   O22   S    
C4    H19   S    
O10   P6    S    
C22   H27   S    
C6    P8    S    
C23   H6    S    
Ba1   O10   S    
C33   P7    S    
C34   H8    S    
C37   H39   S    
O2    P5    D    
C18   C27   A    
Ba2   O19   S    
C41   H13   S    
C4    C16   S    
C40   H33   S    
Ba1   O23   S    
C28   H30   S    
C34   F10   S    
C40   H35   S    
C3    C5    D    
C6    C7    S    
C39   H3    S    
C19   C32   A    
C23   C34   S    
C25   C33   A    
C43   C44   S    
O20   P4    S    
C4    H25   S    
C28   C35   S    
C41   O3    S    
C5    C45   S    
O3    P5    S    
C41   C42   S    
Ba1   O20   S    
C39   F9    S    
C36   O13   S    
O22   P4    S    
C29   C30   A    
O1    P1    D    
C10   C13   S    
O23   P7    S    
C12   O14   S    
Ba2   P4    S    
C12   H4    S    
C43   H17   S    
C7    C9    S    
Ba1   O1    S    
C19   P2    S    
O5    P2    S    
C1    C12   S    
C23   O7    S    
Ba1   O4    S    
C2    C15   A    
Ba2   O23   S    
C38   C39   S    
C26   C31   A    
C16   H11   S    
C11   C13   A    
O7    P7    S    
C23   H7    S    
C14   F14   S    
O9    P8    S    
O19   P4    D    
C10   F4    S    
C37   H40   S    
O12   P2    S    
C1    N1    S    
C38   F1    S    
C43   F12   S    
O21   P8    S    
C44   F13   S    
C25   C30   A    
C40   H32   S    
C1    H5    S    
C18   P3    S    
C36   H37   S    
C9    C10   D    
C15   P1    S    
Ba2   O21   S    
C17   P6    S    
C24   C26   A    
C38   H2    S    
C2    F2    S    
C42   H16   S    
C1    H10   S    
C6    C45   D    
C3    C8    S    
C27   C29   A    
O15   P2    D    
C44   H18   S    
O8    P8    D    
C37   H38   S    
C12   H1    S    
Ba2   O5    S    
O11   P6    D    
C21   P5    S    
Ba1   O15   S    
Ba1   O5    S    
C35   H34   S    
O13   P1    S    
C11   C14   A    
C9    F3    S    
C20   C21   A    
C4    O18   S    
C31   H24   S    
