data_mof_unit_66811.cif
_audit_creation_date              2013-03-05T15:41:26-0500
_audit_creation_method            fapswitch 2.2
_symmetry_space_group_name_H-M    P1
_symmetry_Int_Tables_number       1
_space_group_crystal_system       triclinic
_cell_length_a                    8.613383
_cell_length_b                    15.396773
_cell_length_c                    15.326056
_cell_angle_alpha                 100.296393
_cell_angle_beta                  100.779779
_cell_angle_gamma                 97.862566
_cell_volume                      1933.78659248

loop_
_atom_site_label
_atom_site_type_symbol
_atom_site_description
_atom_site_fract_x
_atom_site_fract_y
_atom_site_fract_z
_atom_type_partial_charge
P1    P     P_3+3 0.004160 0.709210 0.580280 0.510700
O1    O     O_2   0.174040 0.723040 0.553850 -0.369337
O2    O     O_3   0.901550 0.609570 0.550800 -0.390383
O3    O     O_3   0.370320 0.665070 0.388210 -0.325742
O4    O     O_2   0.310689 0.824870 0.462493 -0.416324
O5    O     O_3   0.062552 0.754961 0.699778 -0.597477
O6    O     O_3   0.368699 0.809183 0.300342 -0.512904
H1    H     H_    0.562466 0.747006 0.271643 0.083716
C1    C     C_3   0.432219 0.777973 0.152389 0.095805
H2    H     H_    0.380088 0.834351 0.130095 0.119426
P2    P     P_3+3 0.305010 0.425580 0.290930 0.547928
P3    P     P_3+3 0.866074 0.597493 0.223938 0.591176
O7    O     O_2   0.134800 0.452800 0.278160 -0.266472
O8    O     O_3   0.937630 0.618610 0.340820 -0.415421
O9    O     O_2   0.995581 0.558791 0.179152 -0.225779
O10   O     O_3   0.229384 0.309483 0.257080 -0.554998
O11   O     O_3   0.859024 0.701515 0.192732 -0.486320
C2    C     C_3   0.912321 0.771196 0.270517 0.376256
H3    H     H_    0.037643 0.769936 0.304644 0.164942
H4    H     H_    0.833193 0.765089 0.319254 0.025889
C3    C     C_3   0.908909 0.861629 0.243214 -0.914308
H5    H     H_    0.006463 0.877652 0.207643 0.284484
H6    H     H_    0.793077 0.861133 0.197099 0.249150
C4    C     C_3   0.832216 0.242539 0.249346 0.880774
H7    H     H_    0.960391 0.260020 0.284466 0.003404
C5    C     C_3   0.780691 0.140486 0.219636 -0.906332
H8    H     H_    0.653156 0.122424 0.183070 0.286250
H9    H     H_    0.855255 0.112699 0.173515 0.313879
H10   H     H_    0.796162 0.107104 0.277420 0.169704
Ba1   Ba    Ba6+2 0.154720 0.543770 0.458160 1.708244
C6    C     C_3   0.985232 0.708871 0.756234 0.633456
H11   H     H_    0.889434 0.654659 0.714434 -0.007482
C7    C     C_3   0.907457 0.770135 0.820861 0.142684
H12   H     H_    0.830552 0.726564 0.851850 0.163170
H13   H     H_    0.829257 0.804982 0.779600 0.101694
C8    C     C_3   0.313167 0.256742 0.307333 0.102306
H14   H     H_    0.226446 0.213628 0.332176 0.077976
H15   H     H_    0.400136 0.296409 0.367210 0.139101
C9    C     C_3   0.390673 0.194681 0.246355 0.097493
H16   H     H_    0.479700 0.166280 0.289080 0.074594
H17   H     H_    0.451548 0.233557 0.204801 0.121943
P4    P     P_3+3 0.806120 0.290780 0.419650 0.544119
O12   O     O_2   0.636250 0.276900 0.446120 -0.384199
O13   O     O_3   0.908740 0.390420 0.449120 -0.279093
O14   O     O_3   0.439970 0.334920 0.611710 -0.367277
O15   O     O_3   0.732429 0.281102 0.302755 -0.648446
P5    P     P_3+3 0.929945 0.371490 0.772234 0.627566
O16   O     O_3   0.402050 0.547860 0.609740 -0.311726
O17   O     O_3   0.872650 0.381380 0.659100 -0.272046
O18   O     O_2   0.842272 0.438085 0.823525 -0.284209
O19   O     O_3   0.837067 0.265060 0.785286 -0.541689
Ba2   Ba    Ba6+2 0.655440 0.456220 0.541760 1.761501
P6    P     P_3+3 0.424562 0.782662 0.407045 0.464618
C10   C     C_3   0.495861 0.800993 0.254694 0.144633
H18   H     H_    0.580280 0.865608 0.271932 0.036180
H19   H     H_    0.532572 0.767174 0.118108 0.127583
O20   O     O_3   0.408230 0.452130 0.390190 -0.402543
C11   C     C_3   0.496585 0.736278 0.716564 0.139144
H20   H     H_    0.599527 0.755033 0.685929 0.002465
H21   H     H_    0.395621 0.701867 0.660273 0.141836
C12   C     C_3   0.442636 0.820300 0.763781 0.239401
H22   H     H_    0.423495 0.866395 0.716522 0.078108
H23   H     H_    0.326666 0.800151 0.779317 0.179934
P7    P     P_3+3 0.502149 0.567377 0.725589 0.596821
O21   O     O_2   0.675480 0.547140 0.721810 -0.379617
O22   O     O_3   0.536256 0.681603 0.778797 -0.515720
H24   H     H_    0.925666 0.915471 0.304516 0.220482
C13   C     C_3   0.934735 0.200590 0.766398 0.546262
H25   H     H_    0.056182 0.225745 0.811213 -0.130130
C14   C     C_3   0.875717 0.106795 0.784550 0.464530
H26   H     H_    0.853466 0.117838 0.854033 0.109952
P8    P     P_3+3 0.384701 0.216769 0.578599 0.599798
C15   C     C_3   0.433337 0.250693 0.754069 0.362816
H27   H     H_    0.329499 0.285077 0.743040 0.026420
O23   O     O_2   0.517941 0.183260 0.535347 -0.326169
O24   O     O_3   0.415920 0.177617 0.680632 -0.430816
H28   H     H_    0.544251 0.299531 0.759824 0.128060
H29   H     H_    0.381564 0.148099 0.830929 0.243928
C16   C     C_3   0.435400 0.219749 0.843868 -0.106592
H30   H     H_    0.362123 0.257857 0.883710 0.033273
C17   C     C_R   0.640717 0.830272 0.458816 0.130228
H31   H     H_    0.675068 0.703440 0.491391 0.152323
H32   H     H_    0.490639 0.963772 0.409728 0.174149
C18   C     C_R   0.898577 0.793955 0.524330 0.282354
C19   C     C_R   0.085828 0.212673 0.461871 -0.362837
C20   C     C_R   0.186090 0.159948 0.501913 0.278675
C21   C     C_R   0.122063 0.071094 0.504760 -0.160172
C22   C     C_R   0.954152 0.038021 0.479642 0.073982
C23   C     C_R   0.851872 0.099640 0.448999 0.043560
C24   C     C_R   0.884024 0.947423 0.487342 0.060115
C25   C     C_R   0.713997 0.919760 0.458648 0.017863
C26   C     C_R   0.619890 0.981536 0.429311 -0.122352
C27   C     C_R   0.686815 0.067891 0.424000 -0.087681
C28   C     C_R   0.973936 0.883001 0.522495 -0.182724
C29   C     C_R   0.733566 0.770222 0.491059 -0.476095
C30   C     C_R   0.918542 0.191321 0.444606 0.192647
H33   H     H_    0.101390 0.900996 0.549988 0.173539
H34   H     H_    0.138387 0.277412 0.454182 0.160771
H35   H     H_    0.203958 0.032133 0.534894 0.164490
H36   H     H_    0.606706 0.109685 0.398590 0.143668
C31   C     C_R   0.251545 0.439902 0.751672 0.101856
C32   C     C_R   0.154506 0.408677 0.810545 0.109159
C33   C     C_R   0.222634 0.414103 0.902629 -0.303031
C34   C     C_R   0.379308 0.460660 0.944563 0.033272
C35   C     C_R   0.463886 0.507737 0.888838 0.167928
C36   C     C_R   0.404130 0.493842 0.792582 0.066312
C37   C     C_R   0.610056 0.498733 0.085718 -0.113849
C38   C     C_R   0.668169 0.526343 0.179533 0.266029
C39   C     C_R   0.413105 0.463917 0.205827 0.285204
C40   C     C_R   0.348035 0.444935 0.110085 -0.204501
C41   C     C_R   0.445203 0.467010 0.047348 0.100522
C42   C     C_R   0.571199 0.507910 0.238935 -0.419652
H37   H     H_    0.696521 0.504648 0.043829 0.205104
H38   H     H_    0.147323 0.383636 0.941712 0.177152
H39   H     H_    0.222787 0.415205 0.087003 0.174820
H40   H     H_    0.620005 0.527222 0.311425 0.149240
S1    S     S_3+6 0.128734 0.659341 0.820548 -0.010123
O25   O     O_2   0.047322 0.589381 0.861209 -0.227447
O26   O     O_2   0.212724 0.618298 0.752516 -0.430649
O27   O     O_3   0.269388 0.730212 0.902267 -0.423756
H41   H     H_    0.366190 0.702307 0.905346 0.416432
S2    S     S_3+6 0.040868 0.851632 0.913846 0.173391
O28   O     O_2   0.186606 0.888021 0.883274 -0.132412
O29   O     O_2   0.964516 0.928560 0.948943 -0.145350
O30   O     O_3   0.094948 0.804349 0.001616 -0.418273
H42   H     H_    0.134781 0.855701 0.053912 0.366394
S3    S     S_3+6 0.284588 0.678322 0.122074 0.093572
O31   O     O_2   0.289963 0.624169 0.031839 -0.188230
O32   O     O_2   0.312436 0.623955 0.193353 -0.276642
O33   O     O_3   0.102575 0.704549 0.115941 -0.356683
H43   H     H_    0.122134 0.762138 0.159852 0.337180
S4    S     S_3+6 0.249740 0.102505 0.172939 0.011510
O34   O     O_2   0.149176 0.056406 0.227205 -0.318661
O35   O     O_2   0.338971 0.036703 0.127772 -0.236599
O36   O     O_3   0.130205 0.138882 0.092799 -0.401664
H44   H     H_    0.200874 0.187172 0.076770 0.339378
S5    S     S_3+6 0.572911 0.880307 0.868768 0.086983
O37   O     O_2   0.712021 0.934260 0.847181 -0.183852
O38   O     O_2   0.488886 0.944463 0.920152 -0.148431
O39   O     O_3   0.637820 0.810941 0.935039 -0.485255
H45   H     H_    0.684792 0.849881 0.995699 0.384034
N1    N     N_R   0.946478 0.188601 0.673085 0.234931
O40   O     O_R   0.085015 0.181624 0.655736 -0.431724
O41   O     O_R   0.836392 0.208258 0.613303 -0.291801
S6    S     S_3+6 0.689208 0.043175 0.708513 0.068115
O42   O     O_2   0.555927 0.046433 0.758861 -0.220156
O43   O     O_2   0.643208 0.079667 0.625808 -0.238410
O44   O     O_3   0.697641 0.934989 0.670479 -0.511397
H46   H     H_    0.594742 0.910619 0.626244 0.336346
S7    S     S_3+6 0.036658 0.041533 0.788925 0.058739
O45   O     O_2   0.970081 0.943829 0.765039 -0.174415
O46   O     O_2   0.144666 0.056316 0.725072 -0.274654
O47   O     O_3   0.148583 0.067532 0.895407 -0.403998
H47   H     H_    0.164258 0.133651 0.913241 0.298535
N2    N     N_R   0.597568 0.234056 0.898664 0.285724
O48   O     O_R   0.677753 0.315185 0.930043 -0.344561
O49   O     O_R   0.650004 0.167951 0.929972 -0.237695
N3    N     N_R   0.598055 0.578921 0.930218 0.245243
O50   O     O_R   0.586069 0.643967 0.994078 -0.362108
O51   O     O_R   0.736327 0.576453 0.908629 -0.292836
S8    S     S_3+6 0.165882 0.417789 0.629979 0.055468
O52   O     O_2   0.251810 0.412408 0.553911 -0.214494
O53   O     O_2   0.079245 0.325017 0.609731 -0.304138
O54   O     O_3   0.044372 0.491443 0.608727 -0.398848
H48   H     H_    0.010719 0.514952 0.664921 0.358341
S9    S     S_3+6 0.807718 0.286461 0.148632 0.045460
O55   O     O_2   0.853169 0.386210 0.173289 -0.313090
O56   O     O_2   0.911977 0.250309 0.087796 -0.196883
O57   O     O_3   0.614444 0.258119 0.093144 -0.492582
H49   H     H_    0.567565 0.312985 0.105761 0.323948

loop_
_geom_bond_atom_site_label_1
_geom_bond_atom_site_label_2
_geom_bond_distance
_ccdc_geom_bond_type
N3    O51   1.297952 A    
C21   C22   1.421056 A    
C31   C32   1.439142 A    
O3    P6    1.763794 S    
N2    O49   1.299787 A    
C2    C3    1.526293 S    
O57   H49   0.989027 S    
C14   S7    1.818312 S    
C42   H40   1.082789 S    
P8    O24   1.762127 S    
S8    O54   1.678319 S    
S6    O42   1.499715 D    
O36   H44   0.990503 S    
P5    O17   1.751574 S    
C19   C20   1.397516 A    
P1    C18   1.922963 S    
H32   C26   1.080120 S    
S5    O38   1.500149 D    
C5    H8    1.108398 S    
C1    S3    1.782494 S    
O30   H42   0.990766 S    
P4    C30   1.976243 S    
Ba1   O16   2.828242 S    
O54   H48   0.983561 S    
C4    C5    1.533331 S    
P1    O1    1.586758 D    
S1    O26   1.476993 D    
P4    O15   1.757274 S    
C17   C29   1.398732 A    
C19   C30   1.396775 A    
O12   Ba2   2.852455 S    
O16   P7    1.775348 S    
P2    C39   1.869654 S    
C9    S4    1.789039 S    
C11   H21   1.100529 S    
Ba1   O20   3.002063 S    
P6    C17   1.870662 S    
C2    H3    1.112343 S    
C15   H27   1.101704 S    
C12   H23   1.086881 S    
C40   C41   1.442403 A    
C37   H37   1.075316 S    
C19   H34   1.072790 S    
S6    O43   1.485590 D    
C11   O22   1.406751 S    
C6    S1    1.775331 S    
C35   N3    1.438674 S    
P2    Ba1   3.431380 S    
C13   H25   1.114138 S    
S7    O47   1.680842 S    
P3    O11   1.757028 S    
C37   C38   1.397366 A    
C6    C7    1.551335 S    
C13   N1    1.433318 S    
C14   H26   1.104618 S    
C1    H2    1.107760 S    
C2    H4    1.108737 S    
O19   C13   1.411965 S    
O13   Ba2   3.008597 S    
C11   C12   1.539075 S    
O5    C6    1.414751 S    
P5    C32   1.888344 S    
C3    H5    1.107629 S    
C3    H24   1.108541 S    
O14   P8    1.770911 S    
S9    O56   1.500014 D    
Ba1   O13   2.913338 S    
C32   C33   1.406312 A    
P4    O13   1.603375 S    
O8    Ba1   2.851442 S    
P8    O23   1.531984 D    
C34   C35   1.447430 A    
S8    O53   1.468591 D    
C24   C28   1.455679 A    
P5    O18   1.544443 D    
C21   H35   1.078729 S    
S5    O39   1.680342 S    
N2    O48   1.301373 A    
C7    S2    1.810955 S    
P1    O5    1.789036 S    
O7    Ba1   2.824451 S    
C33   H38   1.078034 S    
O39   H45   0.990518 S    
C9    H17   1.101876 S    
C39   C42   1.391710 A    
H1    C10   1.113300 S    
C25   C26   1.411158 A    
C14   S6    1.832869 S    
C20   C21   1.414776 A    
S4    O34   1.502690 D    
P5    O19   1.784274 S    
C28   H33   1.077740 S    
C11   H20   1.106433 S    
C38   C42   1.385267 A    
P1    O2    1.603346 S    
C18   C29   1.390623 A    
P7    O22   1.760880 S    
O2    Ba1   3.007631 S    
C4    S9    1.781789 S    
S3    O32   1.495147 D    
P2    O10   1.764137 S    
C6    H11   1.100300 S    
P3    O9    1.546798 D    
O17   Ba2   2.852057 S    
O11   C2    1.409360 S    
C15   C16   1.532636 S    
C1    H19   1.108518 S    
C18   C28   1.441853 A    
C4    H7    1.107092 S    
C26   C27   1.397595 A    
C27   H36   1.073494 S    
P2    O20   1.563369 S    
C5    H10   1.097054 S    
S4    O35   1.502561 D    
C22   C24   1.476320 A    
C3    H6    1.107792 S    
S9    O55   1.492474 D    
C15   O24   1.411797 S    
N1    O41   1.297240 A    
S1    O27   1.676070 S    
P4    O12   1.586994 D    
O6    P6    1.752333 S    
S2    O29   1.497486 D    
S3    O31   1.494054 D    
C9    H16   1.101935 S    
S6    O44   1.679735 S    
O27   H41   0.986195 S    
P3    C38   1.832379 S    
S5    O37   1.486423 D    
O4    P6    1.547673 D    
C31   C36   1.420261 A    
Ba1   Ba2   4.800565 S    
C10   H18   1.106587 S    
C8    H14   1.097571 S    
H31   C29   1.082691 S    
H29   C16   1.103990 S    
C37   C41   1.412739 A    
C8    C9    1.523417 S    
P3    O8    1.737372 S    
C34   C41   1.551942 S    
P8    C20   1.882572 S    
O2    Ba2   2.914018 S    
P7    C36   1.878072 S    
C35   C36   1.435274 A    
C5    H9    1.109988 S    
O14   Ba2   2.931466 S    
O1    Ba1   2.851847 S    
C4    O15   1.410798 S    
P7    O21   1.575617 D    
S2    O30   1.662808 S    
C31   S8    1.824374 S    
O33   H43   0.985348 S    
S2    O28   1.493536 D    
S3    O33   1.661739 S    
S8    O52   1.489572 D    
S1    O25   1.495691 D    
O10   C8    1.396195 S    
P2    O7    1.566348 D    
C12   S5    1.791999 S    
C24   C25   1.428658 A    
N3    O50   1.298939 A    
C23   C30   1.467491 A    
S4    O36   1.677188 S    
C8    H15   1.092526 S    
P1    Ba1   3.432287 S    
C7    H13   1.096482 S    
C7    H12   1.106537 S    
S7    O46   1.495736 D    
O44   H46   0.989571 S    
C23   C27   1.395042 A    
C12   H22   1.107516 S    
Ba2   O20   2.827523 S    
C16   N2    1.454570 S    
C16   H30   1.110362 S    
C17   C25   1.435524 A    
O16   Ba2   3.001235 S    
C22   C23   1.459443 A    
S9    O57   1.680477 S    
C13   C14   1.554674 S    
C33   C34   1.412171 A    
N1    O40   1.284405 A    
C15   H28   1.110915 S    
S7    O45   1.488105 D    
C1    C10   1.520253 S    
O6    C10   1.413480 S    
O47   H47   0.989161 S    
C39   C40   1.430701 A    
C40   H39   1.078310 S    
O3    Ba1   2.932153 S    
Ba2   O21   2.824684 S    
P4    Ba2   3.432816 S    
