data_mof_unit_10093.cif
_audit_creation_date              2012-12-10T16:45:48-0500
_audit_creation_method            fapswitch 2.2
_symmetry_space_group_name_H-M    P1
_symmetry_Int_Tables_number       1
_space_group_crystal_system       triclinic
_cell_length_a                    13.829817
_cell_length_b                    8.702966
_cell_length_c                    7.502119
_cell_angle_alpha                 103.443958
_cell_angle_beta                  89.051797
_cell_angle_gamma                 93.391795
_cell_volume                      876.673209063

loop_
_atom_site_label
_atom_site_type_symbol
_atom_type_description
_atom_site_fract_x
_atom_site_fract_y
_atom_site_fract_z
_atom_type_partial_charge
C1    C     C_R   0.496525 0.199789 0.453628 0.847187
C2    C     C_1   0.869857 0.481934 0.432771 -0.054444
C3    C     C_2   0.492926 0.031474 0.428723 -0.367752
C4    C     C_2   0.507074 0.968526 0.571277 -0.367752
C5    C     C_3   0.038422 0.657429 0.888027 -0.303217
C6    C     C_3   0.961578 0.342567 0.111975 -0.303219
C7    C     C_3   0.371483 0.243953 0.983885 -0.106433
C8    C     C_3   0.628517 0.756047 0.016115 -0.106433
C9    C     C_R   0.503475 0.800210 0.546372 0.847188
C10   C     C_R   0.318774 0.503289 0.531573 0.801195
C11   C     C_R   0.681226 0.496711 0.468427 0.801195
C12   C     C_1   0.783538 0.489301 0.446385 -0.156173
C13   C     C_1   0.216462 0.510699 0.553615 -0.156173
C14   C     C_2   0.974421 0.473074 0.422093 0.401757
C15   C     C_2   0.025579 0.526925 0.577907 0.401757
C16   C     C_1   0.130142 0.518066 0.567229 -0.054444
Cu1   Cu    Cu3+1 0.510540 0.517220 0.682700 1.025173
Cu2   Cu    Cu3+1 0.489460 0.482780 0.317300 1.025172
H1    H     H_    0.477673 0.959072 0.292409 0.165283
H2    H     H_    0.437728 0.175691 0.972650 0.125250
H3    H     H_    0.320910 0.177945 0.875866 0.119795
H4    H     H_    0.562272 0.824309 0.027350 0.125250
H5    H     H_    0.665203 0.750692 0.882697 0.167896
H6    H     H_    0.679090 0.822055 0.124134 0.119795
H7    H     H_    0.522327 0.040928 0.707591 0.165283
H8    H     H_    0.082789 0.758139 0.855041 0.160621
H9    H     H_    0.085325 0.569911 0.924497 0.197547
H10   H     H_    0.993790 0.705635 0.010239 0.195661
H11   H     H_    0.914674 0.430083 0.075503 0.197547
H12   H     H_    0.917212 0.241857 0.144963 0.160621
H13   H     H_    0.006210 0.294360 0.989763 0.195661
H14   H     H_    0.334796 0.249307 0.117303 0.167896
N1    N     N_2   0.473570 0.456830 0.042740 0.154544
N2    N     N_2   0.526430 0.543170 0.957260 0.154544
O1    O     O_R   0.506850 0.286020 0.618680 -0.556607
O2    O     O_3   0.024069 0.415173 0.258068 -0.607612
O3    O     O_3   0.391050 0.396320 0.954407 -0.473003
O4    O     O_3   0.608950 0.603679 0.045593 -0.473003
O5    O     O_R   0.493150 0.713980 0.381320 -0.556607
O6    O     O_R   0.489050 0.256940 0.310110 -0.627809
O7    O     O_R   0.510950 0.743060 0.689890 -0.627810
O8    O     O_R   0.372320 0.516630 0.676100 -0.533943
O9    O     O_R   0.627680 0.483370 0.323900 -0.533943
O10   O     O_R   0.354510 0.487550 0.367530 -0.574914
O11   O     O_R   0.645490 0.512450 0.632470 -0.574914
O12   O     O_3   0.975931 0.584827 0.741932 -0.607612

loop_
_geom_bond_atom_site_label_1
_geom_bond_atom_site_label_2
_ccdc_geom_bond_type
C8    H4    S    
C11   C12   S    
C3    H1    S    
Cu2   O10   S    
C10   O8    A    
C5    H10   S    
C5    O12   S    
C9    O7    A    
C15   O12   S    
Cu2   O5    S    
C2    C12   T    
C6    H11   S    
C6    H13   S    
C7    O3    S    
C7    H3    S    
Cu2   O9    S    
C11   O9    A    
C8    O4    S    
C15   C16   S    
C6    H12   S    
C6    O2    S    
N1    N2    D    
C14   O2    S    
C14   C15   D    
C2    C14   S    
Cu2   N1    S    
Cu1   O7    S    
C11   O11   A    
Cu1   N2    S    
C10   O10   A    
C5    H8    S    
C4    H7    S    
C9    O5    A    
C8    H5    S    
C1    O1    A    
Cu1   Cu2   S    
C7    H2    S    
C13   C16   T    
Cu2   O6    S    
Cu1   O8    S    
C7    H14   S    
Cu1   O1    S    
C1    O6    A    
C8    H6    S    
C4    C9    S    
C5    H9    S    
N1    O3    S    
C3    C4    D    
Cu1   O11   S    
C1    C3    S    
C10   C13   S    
N2    O4    S    
