data_mof_unit_63518.cif
_audit_creation_date              2012-10-26T21:02:03-0400
_audit_creation_method            fapswitch 2.2
_symmetry_space_group_name_H-M    P1
_symmetry_Int_Tables_number       1
_space_group_crystal_system       triclinic
_cell_length_a                    9.706448
_cell_length_b                    10.93545
_cell_length_c                    13.888182
_cell_angle_alpha                 90.048373
_cell_angle_beta                  84.795466
_cell_angle_gamma                 89.945419
_cell_volume                      1468.07351478

loop_
_atom_site_label
_atom_site_type_symbol
_atom_type_description
_atom_site_fract_x
_atom_site_fract_y
_atom_site_fract_z
_atom_type_partial_charge
C1    C     C_R   0.500390 0.734403 0.496176 0.559147
C2    C     C_R   0.499317 0.265682 0.505506 0.552255
C3    C     C_R   0.522449 0.499955 0.317062 0.553104
C4    C     C_1   0.535957 0.500047 0.213891 0.052449
C5    C     C_2   0.555828 0.500255 0.023355 -0.080385
C6    C     C_2   0.441529 0.499371 0.976597 0.396853
C7    C     C_1   0.452845 0.499562 0.872942 -0.008223
C8    C     C_1   0.546157 0.500140 0.127042 0.051905
C9    C     C_3   0.376221 0.090840 0.595989 -0.320009
C10   C     C_1   0.463850 0.499741 0.786093 -0.033264
C11   C     C_2   0.605349 0.066234 0.495262 -0.085848
C12   C     C_2   0.496315 0.135910 0.527788 0.037619
C13   C     C_2   0.607548 0.933397 0.505404 -0.130942
C14   C     C_2   0.500332 0.865481 0.483063 0.363152
C15   C     C_2   0.071397 0.579731 0.546745 0.040797
C16   C     C_2   0.916142 0.566874 0.557607 0.094259
C17   C     C_R   0.477541 0.499940 0.682933 0.527869
Cu1   Cu    Cu3+1 0.361370 0.499980 0.499980 1.029168
Cu2   Cu    Cu3+1 0.638630 0.500020 0.500020 1.077385
F1    F     F_    0.313715 0.498315 0.025749 -0.583731
F2    F     F_    0.912782 0.467079 0.416608 -0.533585
F3    F     F_    0.389711 0.916934 0.444764 -0.622657
H1    H     H_    0.657714 0.501105 0.983823 0.081584
H2    H     H_    0.696028 0.107580 0.456739 0.151372
H3    H     H_    0.700683 0.891258 0.528112 0.102263
H4    H     H_    0.116471 0.655709 0.583056 0.129175
H5    H     H_    0.110426 0.421009 0.479388 0.283950
H6    H     H_    0.859533 0.617465 0.615659 0.065866
H7    H     H_    0.357890 0.155799 0.657374 0.109418
H8    H     H_    0.280921 0.086559 0.557564 0.200457
H9    H     H_    0.395814 0.000524 0.628291 0.138138
N1    N     N_2   0.152970 0.501340 0.501040 -0.311776
N2    N     N_2   0.846830 0.501370 0.501060 0.042890
O1    O     O_R   0.382960 0.678040 0.499980 -0.463971
O2    O     O_R   0.617100 0.678080 0.500020 -0.546123
O3    O     O_R   0.366380 0.499950 0.637830 -0.505108
O4    O     O_R   0.600520 0.499990 0.637860 -0.526099
O5    O     O_R   0.382900 0.321920 0.499980 -0.502979
O6    O     O_R   0.617040 0.321960 0.500020 -0.489094
O7    O     O_R   0.399480 0.500010 0.362140 -0.462441
O8    O     O_R   0.633620 0.500050 0.362170 -0.434839

loop_
_geom_bond_atom_site_label_1
_geom_bond_atom_site_label_2
_ccdc_geom_bond_type
C16   H6    S    
C7    C10   T    
C11   C12   D    
C6    C7    S    
C17   O3    A    
C16   N2    D    
C5    C8    S    
C6    F1    S    
C2    O5    A    
C5    H1    S    
C9    H7    S    
C4    C8    T    
C2    C12   S    
C14   F3    S    
Cu1   O5    S    
C15   N1    D    
C17   O4    A    
C13   C14   D    
Cu1   O1    S    
C13   H3    S    
Cu2   O6    S    
C9    H8    S    
C3    O7    A    
C5    C6    D    
C9    C12   S    
Cu1   N1    S    
C9    H9    S    
C10   C17   S    
C15   C16   S    
C11   H2    S    
C11   C13   S    
F2    N2    S    
C1    O1    A    
C1    O2    A    
Cu1   Cu2   S    
Cu2   N2    S    
Cu1   O7    S    
C3    O8    A    
C15   H4    S    
Cu2   O2    S    
C1    C14   S    
Cu2   O4    S    
H5    N1    S    
Cu1   O3    S    
C2    O6    A    
C3    C4    S    
Cu2   O8    S    
