data_mof_unit_54980.cif
_audit_creation_date              2012-12-10T21:05:09-0500
_audit_creation_method            fapswitch 2.2
_symmetry_space_group_name_H-M    P1
_symmetry_Int_Tables_number       1
_space_group_crystal_system       triclinic
_cell_length_a                    22.34696
_cell_length_b                    22.19476
_cell_length_c                    15.078168
_cell_angle_alpha                 90.34479
_cell_angle_beta                  90.061392
_cell_angle_gamma                 89.818448
_cell_volume                      7478.37430162

loop_
_atom_site_label
_atom_site_type_symbol
_atom_type_description
_atom_site_fract_x
_atom_site_fract_y
_atom_site_fract_z
_atom_type_partial_charge
C1    C     C_R   0.080849 0.419345 0.499738 0.889512
C2    C     C_R   0.027665 0.547096 0.047809 0.178178
C3    C     C_3   0.723063 0.153986 0.301536 0.107878
C4    C     C_3   0.761849 0.168649 0.221007 -0.322589
C5    C     C_3   0.780068 0.111605 0.170776 -0.973292
C6    C     C_3   0.744480 0.118066 0.665802 0.091426
C7    C     C_3   0.693592 0.089917 0.719188 -0.308928
C8    C     C_3   0.698827 0.021389 0.722146 -0.964147
C9    C     C_3   0.304514 0.770171 0.287501 0.156857
C10   C     C_3   0.320160 0.736215 0.201965 -0.316705
C11   C     C_3   0.281928 0.757403 0.124106 -0.982980
C12   C     C_3   0.662367 0.779163 0.289038 0.099738
C13   C     C_R   0.027251 0.547532 0.953586 0.175216
C14   C     C_3   0.652430 0.822446 0.211958 -0.297050
C15   C     C_3   0.599253 0.803378 0.154930 -0.988167
C16   C     C_3   0.319508 0.230290 0.698541 0.135877
C17   C     C_3   0.360057 0.228724 0.780119 -0.326334
C18   C     C_3   0.331757 0.193004 0.855340 -0.986585
C19   C     C_3   0.329815 0.209090 0.285306 0.097941
C20   C     C_3   0.337471 0.160079 0.214517 -0.290109
C21   C     C_3   0.387702 0.175345 0.149971 -0.994328
C22   C     C_3   0.700233 0.791758 0.700028 0.139314
C23   C     C_3   0.659625 0.820527 0.769892 -0.349940
C24   C     C_R   0.975665 0.450782 0.046545 0.172047
C25   C     C_3   0.695230 0.859017 0.835340 -0.978449
C26   C     C_R   0.483802 0.948267 0.952552 0.175735
C27   C     C_R   0.520522 0.051566 0.047640 0.174963
C28   C     C_R   0.520224 0.051604 0.953352 0.175187
C29   C     C_R   0.483294 0.948500 0.046679 0.176495
C30   C     C_R   0.001134 0.499468 0.905012 -0.156213
C31   C     C_R   0.001244 0.499120 0.095062 -0.167351
C32   C     C_R   0.501552 0.000040 0.905022 -0.157165
C33   C     C_R   0.919245 0.580658 0.500113 0.894309
C34   C     C_R   0.501421 0.000181 0.095060 -0.156775
C35   C     C_R   0.233983 0.722484 0.587071 0.350958
C36   C     C_R   0.777818 0.265256 0.419502 0.343815
C37   C     C_R   0.798588 0.245680 0.576638 0.370491
C38   C     C_R   0.261443 0.691705 0.436256 0.317357
C39   C     C_R   0.762535 0.716795 0.411651 0.348618
C40   C     C_R   0.267923 0.314242 0.555997 0.316238
C41   C     C_R   0.234833 0.278966 0.409718 0.349972
C42   C     C_R   0.738640 0.694316 0.566774 0.343085
C43   C     C_R   0.753110 0.202704 0.577707 0.355956
C44   C     C_R   0.919293 0.419402 0.499849 0.890440
C45   C     C_R   0.303245 0.738442 0.432658 0.334978
C46   C     C_R   0.277494 0.767371 0.584898 0.345021
C47   C     C_R   0.735775 0.219213 0.418704 0.340598
C48   C     C_R   0.279023 0.234435 0.410882 0.347711
C49   C     C_R   0.697479 0.741624 0.567892 0.330823
C50   C     C_R   0.719105 0.762017 0.411687 0.343715
C51   C     C_R   0.310124 0.267812 0.559103 0.337448
C52   C     C_R   0.224326 0.687228 0.510817 -0.245140
C53   C     C_R   0.808782 0.278195 0.498113 -0.246928
C54   C     C_R   0.774036 0.685705 0.490917 -0.254223
C55   C     C_R   0.080743 0.580579 0.500300 0.897516
C56   C     C_R   0.227287 0.315751 0.485147 -0.252042
C57   C     C_R   0.721036 0.191208 0.498869 -0.255854
C58   C     C_R   0.310368 0.776215 0.506829 -0.225078
C59   C     C_R   0.314284 0.227377 0.487477 -0.234135
C60   C     C_R   0.688624 0.775430 0.490833 -0.234685
C61   C     C_1   0.000504 0.499831 0.807011 0.070107
C62   C     C_1   0.000503 0.499572 0.193013 0.069366
C63   C     C_1   0.500712 0.000080 0.807011 0.066467
C64   C     C_1   0.500648 0.000179 0.193013 0.072054
C65   C     C_1   0.173021 0.650418 0.505551 0.104273
C66   C     C_R   0.580778 0.919318 0.499757 0.891533
C67   C     C_1   0.847090 0.328680 0.499426 0.093715
C68   C     C_1   0.825897 0.649499 0.496897 0.106607
C69   C     C_1   0.174898 0.351258 0.493226 0.110566
C70   C     C_1   0.670065 0.153895 0.500551 0.103757
C71   C     C_1   0.348729 0.826675 0.501673 0.125136
C72   C     C_1   0.351164 0.175649 0.495009 0.106857
C73   C     C_1   0.651459 0.826932 0.495146 0.113291
C74   C     C_1   0.879412 0.370924 0.499633 -0.200848
C75   C     C_1   0.130037 0.619323 0.501778 -0.197325
C76   C     C_1   0.131041 0.381359 0.498133 -0.197861
C77   C     C_R   0.419581 0.081186 0.500041 0.897555
C78   C     C_1   0.869423 0.618946 0.499763 -0.196092
C79   C     C_1   0.380529 0.869461 0.499658 -0.190278
C80   C     C_1   0.628065 0.121472 0.500638 -0.208507
C81   C     C_1   0.619993 0.870004 0.498383 -0.199381
C82   C     C_1   0.381643 0.131772 0.499190 -0.192178
C83   C     C_3   0.885721 0.404161 0.101213 -0.745842
C84   C     C_3   0.014868 0.648990 0.900259 -0.732621
C85   C     C_3   0.118733 0.586665 0.110455 -0.743937
C86   C     C_3   0.989510 0.350463 0.893359 -0.741073
C87   C     C_3   0.400539 0.892132 0.105092 -0.764152
C88   C     C_R   0.419599 0.918927 0.499789 0.897250
C89   C     C_3   0.492650 0.148983 0.896663 -0.750366
C90   C     C_3   0.604614 0.107951 0.103886 -0.750270
C91   C     C_3   0.517118 0.853867 0.891390 -0.765015
C92   C     C_3   0.886994 0.246584 0.656196 0.108287
C93   C     C_3   0.896438 0.184759 0.698311 -0.366679
C94   C     C_3   0.962710 0.172040 0.714374 -0.947732
C95   C     C_3   0.280166 0.599444 0.375734 0.101464
C96   C     C_3   0.260883 0.556069 0.302027 -0.308998
C97   C     C_3   0.288394 0.493661 0.314539 -1.021353
C98   C     C_3   0.210759 0.664182 0.707233 0.080446
C99   C     C_R   0.580268 0.080998 0.500217 0.896279
C100  C     C_3   0.196475 0.673504 0.805430 -0.301779
C101  C     C_3   0.213152 0.618215 0.859892 -0.986916
C102  C     C_3   0.747728 0.345894 0.338293 0.131997
C103  C     C_3   0.766047 0.387470 0.262804 -0.338425
C104  C     C_3   0.723858 0.441380 0.255158 -0.996356
C105  C     C_3   0.203193 0.332433 0.288546 0.080496
C106  C     C_3   0.145414 0.346936 0.238474 -0.291508
C107  C     C_3   0.150850 0.405178 0.185761 -0.979961
C108  C     C_3   0.724511 0.604131 0.636760 0.105212
C109  C     C_3   0.659196 0.604643 0.667682 -0.328379
C110  C     C_R   0.975772 0.450862 0.952279 0.178093
C111  C     C_3   0.633329 0.541120 0.669164 -0.978537
C112  C     C_3   0.787518 0.654943 0.294676 0.085026
C113  C     C_3   0.842823 0.636268 0.241387 -0.288628
C114  C     C_3   0.834632 0.574846 0.197044 -0.984956
C115  C     C_3   0.287702 0.408912 0.605715 0.114628
C116  C     C_3   0.277419 0.453253 0.682116 -0.296476
C117  C     C_3   0.302146 0.515493 0.660656 -1.027313
C118  C     C_3   0.325086 0.782946 0.716601 0.111440
C119  C     C_3   0.318572 0.815956 0.805389 -0.315095
C120  C     C_3   0.353083 0.783980 0.878839 -0.971099
H1    H     H_    0.971307 0.389254 0.149842 0.228069
H2    H     H_    0.137981 0.628189 0.140219 0.241366
H3    H     H_    0.806336 0.081335 0.214570 0.269298
H4    H     H_    0.808149 0.123807 0.112935 0.274065
H5    H     H_    0.739825 0.087381 0.146355 0.266050
H6    H     H_    0.786947 0.110793 0.702432 0.138622
H7    H     H_    0.748424 0.094245 0.600690 0.114605
H8    H     H_    0.694398 0.108127 0.788026 0.221915
H9    H     H_    0.649911 0.102188 0.689013 0.242000
H10   H     H_    0.695713 0.002069 0.654152 0.267315
H11   H     H_    0.661766 0.002818 0.762590 0.270577
H12   H     H_    0.742110 0.007920 0.752528 0.258765
H13   H     H_    0.142568 0.576917 0.047376 0.248172
H14   H     H_    0.316540 0.818412 0.279759 0.132714
H15   H     H_    0.255012 0.768170 0.297597 0.148134
H16   H     H_    0.368215 0.743093 0.186197 0.215633
H17   H     H_    0.312783 0.687202 0.211522 0.247777
H18   H     H_    0.233944 0.747843 0.136840 0.275674
H19   H     H_    0.295672 0.733024 0.062884 0.272408
H20   H     H_    0.287668 0.806502 0.113476 0.263953
H21   H     H_    0.621217 0.779105 0.330770 0.132130
H22   H     H_    0.669938 0.732997 0.262002 0.121926
H23   H     H_    0.644104 0.868553 0.238544 0.227735
H24   H     H_    0.125743 0.548693 0.157085 0.229733
H25   H     H_    0.693264 0.823628 0.169961 0.232197
H26   H     H_    0.607518 0.758262 0.125018 0.267655
H27   H     H_    0.592747 0.836432 0.100780 0.265565
H28   H     H_    0.557857 0.801853 0.195556 0.267507
H29   H     H_    0.310870 0.183173 0.676140 0.132097
H30   H     H_    0.276292 0.251916 0.717744 0.168914
H31   H     H_    0.403603 0.207778 0.761899 0.229159
H32   H     H_    0.368574 0.275548 0.803369 0.232396
H33   H     H_    0.287990 0.213111 0.874314 0.271002
H34   H     H_    0.361653 0.193941 0.914188 0.270771
H35   H     H_    0.927260 0.412741 0.848511 0.229391
H36   H     H_    0.325048 0.145374 0.834680 0.269678
H37   H     H_    0.372757 0.213280 0.322519 0.131911
H38   H     H_    0.319865 0.252648 0.252131 0.123504
H39   H     H_    0.347994 0.116533 0.247210 0.229536
H40   H     H_    0.294974 0.154865 0.176898 0.231914
H41   H     H_    0.376979 0.217485 0.113807 0.266448
H42   H     H_    0.393067 0.138183 0.100925 0.268644
H43   H     H_    0.430589 0.181154 0.186253 0.266370
H44   H     H_    0.722526 0.828742 0.662673 0.124343
H45   H     H_    0.734951 0.764085 0.733797 0.182311
H46   H     H_    0.964743 0.312897 0.861254 0.231581
H47   H     H_    0.625870 0.849332 0.736189 0.232823
H48   H     H_    0.635755 0.784701 0.806854 0.232827
H49   H     H_    0.728077 0.830702 0.871646 0.270987
H50   H     H_    0.664340 0.880092 0.884200 0.268852
H51   H     H_    0.719358 0.895255 0.799835 0.271740
H52   H     H_    0.006827 0.334478 0.958208 0.255104
H53   H     H_    0.027642 0.363196 0.850143 0.228943
H54   H     H_    0.488131 0.886571 0.149019 0.229762
H55   H     H_    0.385191 0.928925 0.150019 0.232235
H56   H     H_    0.389484 0.848275 0.135697 0.238137
H57   H     H_    0.873199 0.442858 0.144515 0.230160
H58   H     H_    0.376588 0.895457 0.040724 0.249211
H59   H     H_    0.562700 0.096086 0.850285 0.225052
H60   H     H_    0.456273 0.130538 0.854288 0.235075
H61   H     H_    0.511508 0.189467 0.864198 0.238653
H62   H     H_    0.473992 0.162808 0.961981 0.256127
H63   H     H_    0.518033 0.112894 0.152342 0.227810
H64   H     H_    0.616362 0.151546 0.135836 0.241076
H65   H     H_    0.626997 0.105741 0.038193 0.255854
H66   H     H_    0.621272 0.070639 0.146212 0.221075
H67   H     H_    0.442485 0.901654 0.849899 0.228323
H68   H     H_    0.869341 0.361918 0.131677 0.238296
H69   H     H_    0.501356 0.812807 0.856325 0.228856
H70   H     H_    0.537396 0.840135 0.955445 0.254642
H71   H     H_    0.551496 0.875973 0.849775 0.232349
H72   H     H_    0.910748 0.281035 0.696662 0.169783
H73   H     H_    0.908234 0.246888 0.589335 0.117603
H74   H     H_    0.872174 0.182741 0.762540 0.246099
H75   H     H_    0.878429 0.149522 0.653120 0.196622
H76   H     H_    0.987798 0.173415 0.650852 0.268027
H77   H     H_    0.968081 0.126575 0.743712 0.269147
H78   H     H_    0.981717 0.205846 0.761080 0.263408
H79   H     H_    0.863801 0.409209 0.035521 0.258158
H80   H     H_    0.267557 0.579270 0.440649 0.125199
H81   H     H_    0.329654 0.605063 0.373302 0.151356
H82   H     H_    0.211294 0.552017 0.302086 0.229595
H83   H     H_    0.274962 0.574203 0.236761 0.218910
H84   H     H_    0.338006 0.496534 0.315126 0.269686
H85   H     H_    0.274575 0.463723 0.258987 0.267498
H86   H     H_    0.272847 0.473688 0.377826 0.255740
H87   H     H_    0.258671 0.650379 0.701206 0.104529
H88   H     H_    0.182450 0.626961 0.681288 0.159553
H89   H     H_    0.221738 0.712941 0.831183 0.229928
H90   H     H_    0.074539 0.585964 0.849697 0.227933
H91   H     H_    0.147905 0.682925 0.813238 0.231836
H92   H     H_    0.188697 0.577924 0.835359 0.265432
H93   H     H_    0.201137 0.626255 0.930367 0.275386
H94   H     H_    0.262071 0.609622 0.855916 0.260673
H95   H     H_    0.747090 0.372784 0.401067 0.125287
H96   H     H_    0.701923 0.328473 0.324749 0.174307
H97   H     H_    0.812215 0.404075 0.275082 0.232762
H98   H     H_    0.765579 0.361789 0.199297 0.230299
H99   H     H_    0.677258 0.425949 0.243489 0.271166
H100  H     H_    0.737754 0.469781 0.198471 0.272794
H101  H     H_    0.975557 0.637755 0.858137 0.233042
H102  H     H_    0.725447 0.469105 0.316706 0.260946
H103  H     H_    0.239492 0.323638 0.239801 0.131418
H104  H     H_    0.215732 0.372800 0.328746 0.128917
H105  H     H_    0.134689 0.309215 0.192368 0.224619
H106  H     H_    0.108020 0.351815 0.286590 0.237547
H107  H     H_    0.158512 0.443943 0.231281 0.270680
H108  H     H_    0.108777 0.413311 0.148388 0.268755
H109  H     H_    0.188450 0.401892 0.137842 0.263292
H110  H     H_    0.750634 0.573987 0.680944 0.168114
H111  H     H_    0.727935 0.584333 0.568706 0.110044
H112  H     H_    0.039796 0.686422 0.868912 0.232375
H113  H     H_    0.656471 0.624580 0.735374 0.242478
H114  H     H_    0.631867 0.632686 0.622115 0.230966
H115  H     H_    0.634900 0.520681 0.601766 0.263723
H116  H     H_    0.585993 0.543033 0.691345 0.270465
H117  H     H_    0.658986 0.512358 0.715851 0.271279
H118  H     H_    0.749278 0.661162 0.248429 0.131376
H119  H     H_    0.776215 0.617640 0.340944 0.119820
H120  H     H_    0.851792 0.670568 0.189694 0.223827
H121  H     H_    0.882251 0.634133 0.286292 0.239427
H122  H     H_    0.828656 0.539422 0.247993 0.273118
H123  H     H_    0.999280 0.664479 0.966533 0.252338
H124  H     H_    0.874957 0.563664 0.157154 0.269476
H125  H     H_    0.795076 0.575451 0.152391 0.263518
H126  H     H_    0.267086 0.428080 0.544661 0.121397
H127  H     H_    0.336791 0.403433 0.595178 0.149615
H128  H     H_    0.228636 0.457267 0.695454 0.227314
H129  H     H_    0.299700 0.435987 0.742866 0.225735
H130  H     H_    0.350669 0.512593 0.645257 0.270578
H131  H     H_    0.296044 0.545709 0.718844 0.267710
H132  H     H_    0.277984 0.535095 0.603155 0.255686
H133  H     H_    0.371295 0.789652 0.691060 0.129831
H134  H     H_    0.032856 0.609823 0.150152 0.227378
H135  H     H_    0.318184 0.733943 0.728061 0.125532
H136  H     H_    0.335344 0.862803 0.798716 0.215691
H137  H     H_    0.270536 0.818086 0.824287 0.239742
H138  H     H_    0.333826 0.738657 0.890726 0.260402
H139  H     H_    0.350032 0.810598 0.941190 0.280027
H140  H     H_    0.400830 0.778915 0.860302 0.274778
H141  H     H_    0.682867 0.128962 0.278703 0.163578
H142  H     H_    0.747915 0.123034 0.346873 0.111646
H143  H     H_    0.736555 0.198700 0.175571 0.234533
H144  H     H_    0.802843 0.192588 0.243271 0.247003
N1    N     N_1   1.000000 0.500000 0.270550 -0.088023
N2    N     N_2   0.539185 0.104309 0.907946 -0.282438
N3    N     N_2   0.540373 0.104026 0.093909 -0.281579
N4    N     N_2   0.467476 0.894581 0.906435 -0.278293
N5    N     N_1   1.000000 0.500000 0.729450 -0.091435
N6    N     N_1   0.500000 0.000000 0.270550 -0.093030
N7    N     N_1   0.500000 0.000000 0.729450 -0.091581
N8    N     N_2   0.950002 0.400934 0.091700 -0.282969
N9    N     N_2   0.053660 0.597053 0.908534 -0.285359
N10   N     N_2   0.055528 0.595569 0.094266 -0.282315
N11   N     N_2   0.949735 0.401324 0.905793 -0.282545
N12   N     N_2   0.464464 0.895715 0.091920 -0.279423
O1    O     O_R   0.061000 0.439020 0.573650 -0.604990
O2    O     O_R   0.439000 0.060980 0.426350 -0.608386
O3    O     O_R   0.439000 0.060980 0.573650 -0.604967
O4    O     O_R   0.561000 0.939020 0.426350 -0.607773
O5    O     O_R   0.439000 0.939020 0.426350 -0.605923
O6    O     O_R   0.561000 0.060980 0.573650 -0.612411
O7    O     O_R   0.561000 0.060980 0.426350 -0.608024
O8    O     O_R   0.439000 0.939020 0.573650 -0.605959
O9    O     O_3   0.825408 0.262138 0.656165 -0.590642
O10   O     O_3   0.251829 0.655635 0.362441 -0.623932
O11   O     O_3   0.197540 0.718006 0.661073 -0.590656
O12   O     O_R   0.939000 0.560980 0.426350 -0.613530
O13   O     O_3   0.789013 0.297639 0.343146 -0.621949
O14   O     O_3   0.194080 0.280260 0.340373 -0.587730
O15   O     O_3   0.749586 0.662461 0.643856 -0.623571
O16   O     O_3   0.799583 0.710174 0.338537 -0.587232
O17   O     O_3   0.261781 0.352998 0.627663 -0.618710
O18   O     O_3   0.283096 0.806737 0.655948 -0.590897
O19   O     O_3   0.703150 0.208102 0.342206 -0.622579
O20   O     O_3   0.733853 0.180822 0.658855 -0.585913
O21   O     O_3   0.338720 0.746089 0.358244 -0.626709
O22   O     O_3   0.712768 0.798383 0.338041 -0.590073
O23   O     O_R   0.939000 0.560980 0.573650 -0.600716
O24   O     O_3   0.348385 0.263014 0.630957 -0.614582
O25   O     O_3   0.282171 0.193092 0.341925 -0.589192
O26   O     O_3   0.665210 0.754739 0.643928 -0.625782
O27   O     O_R   0.061000 0.439020 0.426350 -0.611615
O28   O     O_R   0.939000 0.439020 0.426350 -0.605208
O29   O     O_R   0.061000 0.560980 0.573650 -0.612193
O30   O     O_R   0.061000 0.560980 0.426350 -0.603811
O31   O     O_R   0.939000 0.439020 0.573650 -0.609198
O32   O     O_R   0.561000 0.939020 0.573650 -0.608328
Zn1   Zn    Zn3+2 1.000000 0.500000 0.598370 0.971237
Zn2   Zn    Zn3+2 0.000000 0.500000 0.401630 0.964251
Zn3   Zn    Zn3+2 0.500000 1.000000 0.598370 0.967371
Zn4   Zn    Zn3+2 0.500000 0.000000 0.401630 0.969166

loop_
_geom_bond_atom_site_label_1
_geom_bond_atom_site_label_2
_ccdc_geom_bond_type
C25   H50   S    
N6    Zn4   S    
C83   N8    S    
C26   C32   A    
C93   C94   S    
C21   H43   S    
C26   C29   A    
C115  O17   S    
C60   C73   S    
C114  H124  S    
C95   C96   S    
C86   H46   S    
O5    Zn4   S    
O6    Zn3   S    
C71   C79   T    
H134  N10   S    
C28   N2    S    
C7    C8    S    
C104  H99   S    
C108  H110  S    
C41   O14   S    
C108  C109  S    
O28   Zn2   S    
C87   H56   S    
C91   H69   S    
C5    H4    S    
O30   Zn2   S    
C49   C60   A    
C20   H40   S    
C24   N8    S    
C25   H51   S    
C86   H52   S    
H67   N4    S    
C44   O31   A    
C30   C110  A    
C49   O26   S    
C22   O26   S    
C11   H18   S    
C10   H16   S    
C6    H7    S    
C42   C54   A    
C84   H101  S    
C109  C111  S    
C62   N1    T    
C15   H28   S    
C15   H27   S    
C108  O15   S    
C6    O20   S    
C58   C71   S    
C39   C54   A    
C54   C68   S    
C116  H129  S    
C115  C116  S    
C100  H89   S    
H90   N9    S    
H63   N3    S    
C116  C117  S    
C69   C76   T    
C89   N2    S    
C89   H60   S    
C104  H102  S    
C2    C13   A    
C63   N7    T    
C118  C119  S    
C104  H100  S    
C38   C45   A    
C11   H19   S    
C36   C53   A    
C103  C104  S    
C93   H74   S    
C105  O14   S    
C22   H45   S    
C66   O32   A    
O3    Zn3   S    
O23   Zn1   S    
C113  H120  S    
H54   N12   S    
C116  H128  S    
C101  H93   S    
C16   C17   S    
C40   C56   A    
C20   H39   S    
C107  H107  S    
C8    H12   S    
C111  H115  S    
C19   O25   S    
C66   O4    A    
C16   H29   S    
C10   H17   S    
C97   H86   S    
C47   O19   S    
C9    C10   S    
C9    O21   S    
C18   H34   S    
O32   Zn3   S    
C13   N9    S    
C59   C72   S    
C115  H126  S    
C55   C75   S    
C9    H14   S    
C112  H119  S    
C29   N12   S    
C23   C25   S    
C42   C49   A    
C92   H72   S    
C72   C82   T    
C101  H92   S    
C84   N9    S    
C119  H136  S    
C68   C78   T    
C19   H38   S    
C31   C62   S    
C98   H88   S    
C40   O17   S    
C17   H31   S    
C7    H8    S    
C53   C67   S    
C88   O8    A    
C85   H24   S    
C61   N5    T    
C51   O24   S    
C117  H132  S    
C120  H138  S    
C111  H116  S    
C100  C101  S    
N5    Zn1   S    
C27   C34   A    
C117  H131  S    
C36   O13   S    
C91   H70   S    
C27   N3    S    
C45   C58   A    
C21   H41   S    
C85   N10   S    
C83   H57   S    
C70   C80   T    
C19   H37   S    
C73   C81   T    
C13   C30   A    
C28   C32   A    
C24   C110  A    
C6    H6    S    
H35   N11   S    
C48   O25   S    
C118  H135  S    
C37   O9    S    
O7    Zn4   S    
C95   H80   S    
O2    Zn4   S    
C90   H66   S    
C3    H141  S    
C33   C78   S    
C105  H103  S    
C91   H71   S    
C29   C34   A    
C109  H113  S    
C93   H75   S    
C79   C88   S    
C2    C31   A    
C94   H78   S    
N7    Zn3   S    
C77   O2    A    
C37   C43   A    
C11   H20   S    
H59   N2    S    
C41   C56   A    
C1    O1    A    
C118  H133  S    
C2    N10   S    
C22   H44   S    
C14   H25   S    
C33   O12   A    
C85   H13   S    
C101  H94   S    
C4    H144  S    
C3    H142  S    
C96   C97   S    
C8    H11   S    
C106  H106  S    
C17   C18   S    
C106  H105  S    
C85   H2    S    
C67   C74   T    
C111  H117  S    
C119  C120  S    
C44   C74   S    
C55   O29   A    
H1    N8    S    
C18   H33   S    
C64   N6    T    
C103  H97   S    
O27   Zn2   S    
C23   H47   S    
C97   H85   S    
C9    H15   S    
C102  H96   S    
C119  H137  S    
C12   C14   S    
C92   H73   S    
C112  H118  S    
C96   H83   S    
C102  O13   S    
C80   C99   S    
C8    H10   S    
C120  H139  S    
C57   C70   S    
C94   H76   S    
C83   H68   S    
C17   H32   S    
C51   C59   A    
C87   N12   S    
C97   H84   S    
C83   H79   S    
C3    C4    S    
C95   O10   S    
C98   H87   S    
C27   C28   A    
C113  H121  S    
C18   H36   S    
C98   O11   S    
C38   O10   S    
C48   C59   A    
C113  C114  S    
C112  C113  S    
C25   H49   S    
O12   Zn2   S    
C16   O24   S    
C42   O15   S    
C12   O22   S    
C21   H42   S    
C114  H122  S    
C39   O16   S    
C22   C23   S    
C1    C76   S    
C118  O18   S    
C105  H104  S    
C32   C63   S    
C90   H64   S    
C92   O9    S    
C15   H26   S    
C117  H130  S    
C107  H108  S    
C96   H82   S    
C6    C7    S    
C90   H65   S    
C95   H81   S    
C40   C51   A    
C87   H55   S    
C105  C106  S    
C5    H3    S    
C100  H91   S    
C98   C100  S    
C65   C75   T    
C36   C47   A    
C94   H77   S    
C50   C60   A    
C86   N11   S    
C86   H53   S    
C19   C20   S    
C107  H109  S    
C90   N3    S    
C14   H23   S    
C24   C31   A    
C37   C53   A    
C50   O22   S    
C120  H140  S    
C109  H114  S    
C87   H58   S    
O1    Zn1   S    
C35   C52   A    
C77   O3    A    
C26   N4    S    
C45   O21   S    
C77   C82   S    
C4    H143  S    
C112  O16   S    
O4    Zn4   S    
C92   C93   S    
C41   C48   A    
C12   H22   S    
C84   H123  S    
C35   O11   S    
C114  H125  S    
C12   H21   S    
C102  C103  S    
C84   H112  S    
C55   O30   A    
C33   O23   A    
C7    H9    S    
C10   C11   S    
C43   C57   A    
C103  H98   S    
C3    O19   S    
C23   H48   S    
O29   Zn1   S    
C99   O6    A    
C44   O28   A    
C102  H95   S    
C4    C5    S    
C39   C50   A    
C38   C52   A    
C20   C21   S    
C88   O5    A    
O8    Zn3   S    
C56   C69   S    
C106  C107  S    
C30   C61   S    
C5    H5    S    
C47   C57   A    
C14   C15   S    
C1    O27   A    
C16   H30   S    
N1    Zn2   S    
C46   O18   S    
O31   Zn1   S    
C43   O20   S    
C35   C46   A    
C34   C64   S    
C115  H127  S    
C46   C58   A    
C52   C65   S    
C91   N4    S    
C89   H62   S    
C89   H61   S    
C110  N11   S    
C66   C81   S    
C108  H111  S    
C99   O7    A    
