data_mof_unit_21494.cif
_audit_creation_date              2012-12-10T17:31:08-0500
_audit_creation_method            fapswitch 2.2
_symmetry_space_group_name_H-M    P1
_symmetry_Int_Tables_number       1
_space_group_crystal_system       triclinic
_cell_length_a                    11.989645
_cell_length_b                    12.899205
_cell_length_c                    15.463457
_cell_angle_alpha                 87.193767
_cell_angle_beta                  115.373744
_cell_angle_gamma                 93.357403
_cell_volume                      2156.35968785

loop_
_atom_site_label
_atom_site_type_symbol
_atom_type_description
_atom_site_fract_x
_atom_site_fract_y
_atom_site_fract_z
_atom_type_partial_charge
C1    C     C_R   0.477635 0.299422 0.499123 0.892621
C2    C     C_R   0.659874 0.969768 0.521168 -0.219382
C3    C     C_R   0.350994 0.137476 0.482450 -0.203938
C4    C     C_R   0.649068 0.862494 0.517703 -0.203876
C5    C     C_R   0.567277 0.132121 0.512255 -0.277492
C6    C     C_R   0.432793 0.867853 0.487920 -0.277289
C7    C     C_R   0.557266 0.025621 0.508554 0.186716
C8    C     C_R   0.442818 0.974347 0.491657 0.186430
C9    C     C_R   0.000171 0.593544 0.405522 -0.338209
C10   C     C_R   0.999718 0.406338 0.594282 -0.336101
C11   C     C_R   0.121703 0.585342 0.415556 0.015373
C12   C     C_R   0.522376 0.700574 0.500903 0.890698
C13   C     C_R   0.878239 0.414550 0.584318 0.014069
C14   C     C_R   0.162631 0.460554 0.541977 -0.056755
C15   C     C_R   0.837323 0.539468 0.457987 -0.053550
C16   C     C_R   0.576351 0.497107 0.680494 0.875395
C17   C     C_R   0.424335 0.507613 0.319598 0.878445
C18   C     C_R   0.041091 0.466262 0.534563 0.092382
C19   C     C_R   0.958836 0.533735 0.465334 0.095308
C20   C     C_R   0.624314 0.512556 0.783361 -0.061756
C21   C     C_R   0.381194 0.528832 0.216966 -0.060184
C22   C     C_R   0.791030 0.544759 0.939330 -0.202553
C23   C     C_R   0.657005 0.585882 0.109470 -0.228678
C24   C     C_R   0.221909 0.568759 0.059541 -0.203399
C25   C     C_R   0.751100 0.521326 0.843141 -0.198602
C26   C     C_R   0.256809 0.544628 0.156356 -0.201191
C27   C     C_R   0.538855 0.528728 0.819780 -0.259955
C28   C     C_R   0.470020 0.540521 0.181092 -0.264070
C29   C     C_R   0.576431 0.558141 0.913864 0.092463
C30   C     C_R   0.438135 0.568388 0.085596 0.092138
C31   C     C_R   0.704407 0.561740 0.975443 0.179010
C32   C     C_R   0.311418 0.578429 0.023342 0.179388
C33   C     C_R   0.488804 0.576579 0.949416 0.067721
C34   C     C_R   0.362706 0.592068 0.888606 -0.232001
C35   C     C_R   0.528567 0.577770 0.049383 0.070435
C36   C     C_R   0.743507 0.580060 0.072351 -0.236954
C37   C     C_R   0.275825 0.595067 0.925609 -0.238778
C38   C     C_R   0.535662 0.811867 0.501676 -0.055395
C39   C     C_R   0.464386 0.188113 0.498439 -0.058352
C40   C     C_R   0.340210 0.030197 0.479038 -0.219322
H1    H     H_    0.841074 0.585536 0.120318 0.142798
H2    H     H_    0.818791 0.510266 0.815711 0.153370
H3    H     H_    0.889206 0.549057 0.985503 0.128737
H4    H     H_    0.125048 0.578081 0.012741 0.128932
H5    H     H_    0.692908 0.599006 0.185269 0.140199
H6    H     H_    0.329356 0.604090 0.812139 0.152277
H7    H     H_    0.344532 0.828853 0.474773 0.160283
H8    H     H_    0.655533 0.171124 0.525390 0.160714
H9    H     H_    0.729051 0.819419 0.528357 0.162363
H10   H     H_    0.270998 0.180547 0.471769 0.163226
H11   H     H_    0.252202 0.991109 0.466237 0.139108
H12   H     H_    0.179786 0.605564 0.877076 0.147293
H13   H     H_    0.747886 0.008853 0.533978 0.139205
H14   H     H_    0.773342 0.591474 0.405359 0.119765
H15   H     H_    0.226597 0.408556 0.594610 0.124817
H16   H     H_    0.847201 0.368453 0.630815 0.126436
H17   H     H_    0.152714 0.631334 0.368984 0.124316
H18   H     H_    0.939084 0.646032 0.351310 0.140316
H19   H     H_    0.060731 0.353697 0.648347 0.145743
H20   H     H_    0.564196 0.523554 0.228104 0.160190
H21   H     H_    0.442036 0.515332 0.774079 0.158187
H22   H     H_    0.186939 0.537502 0.183448 0.151549
N1    N     N_R   0.799120 0.480200 0.517090 -0.095654
N2    N     N_R   0.200880 0.519800 0.482910 -0.095732
O1    O     O_R   0.580150 0.341050 0.504560 -0.622608
O2    O     O_R   0.419850 0.658950 0.495440 -0.624462
O3    O     O_R   0.388090 0.353760 0.493600 -0.622404
O4    O     O_R   0.611910 0.646240 0.506400 -0.624517
O5    O     O_R   0.650890 0.490020 0.640860 -0.620886
O6    O     O_R   0.349110 0.509980 0.359140 -0.620369
O7    O     O_R   0.458830 0.502730 0.629890 -0.621503
O8    O     O_R   0.541170 0.497270 0.370110 -0.620362
Zn1   Zn    Zn3+2 0.628240 0.491510 0.507320 0.939165
Zn2   Zn    Zn3+2 0.371760 0.508490 0.492680 0.938697

loop_
_geom_bond_atom_site_label_1
_geom_bond_atom_site_label_2
_ccdc_geom_bond_type
C21   C26   A    
C23   H5    S    
C27   C29   A    
C34   C37   A    
C14   C18   A    
C2    C7    A    
C7    C8    A    
C15   C19   A    
C12   O4    A    
C30   C35   A    
C24   C26   A    
C18   C19   A    
C20   C25   A    
O2    Zn2   S    
C29   C33   A    
O1    Zn1   S    
C9    H18   S    
C27   H21   S    
C1    O3    A    
C9    C19   A    
C22   C25   A    
O6    Zn2   S    
C1    O1    A    
C6    C38   A    
O5    Zn1   S    
C34   H6    S    
C13   H16   S    
C14   H15   S    
C3    C39   A    
C17   O6    A    
C36   H1    S    
C16   O7    A    
C3    H10   S    
C28   H20   S    
C5    H8    S    
C6    H7    S    
C15   H14   S    
C11   N2    A    
C22   C31   A    
C5    C7    A    
C37   H12   S    
C6    C8    A    
N1    Zn1   S    
O4    Zn1   S    
C12   O2    A    
C2    H13   S    
C17   C21   S    
C2    C4    A    
C24   C32   A    
C22   H3    S    
C13   N1    A    
C16   C20   S    
C14   N2    A    
C33   C34   A    
O3    Zn2   S    
C32   C37   A    
C9    C11   A    
C21   C28   A    
C4    C38   A    
C3    C40   A    
C23   C35   A    
C5    C39   A    
C24   H4    S    
N2    Zn2   S    
C16   O5    A    
O8    Zn1   S    
C10   C13   A    
C25   H2    S    
O7    Zn2   S    
C20   C27   A    
C40   H11   S    
C4    H9    S    
C28   C30   A    
C10   H19   S    
C26   H22   S    
C29   C31   A    
C30   C32   A    
C10   C18   A    
C33   C35   A    
C12   C38   S    
C1    C39   S    
C17   O8    A    
C23   C36   A    
C15   N1    A    
C31   C36   A    
C8    C40   A    
C11   H17   S    
