data_mof_unit_64123.cif
_audit_creation_date              2012-12-10T17:08:40-0500
_audit_creation_method            fapswitch 2.2
_symmetry_space_group_name_H-M    P1
_symmetry_Int_Tables_number       1
_space_group_crystal_system       triclinic
_cell_length_a                    37.026602
_cell_length_b                    30.139526
_cell_length_c                    21.586396
_cell_angle_alpha                 90.050394
_cell_angle_beta                  54.602487
_cell_angle_gamma                 89.96588
_cell_volume                      19636.720004

loop_
_atom_site_label
_atom_site_type_symbol
_atom_type_description
_atom_site_fract_x
_atom_site_fract_y
_atom_site_fract_z
_atom_type_partial_charge
Br1   Br    Br    0.089437 0.458041 0.103080 -0.446040
Br2   Br    Br    0.196846 0.623590 0.212162 -0.499242
Br3   Br    Br    0.302634 0.129667 0.769337 -0.507919
Br4   Br    Br    0.696991 0.129371 0.230573 -0.507977
Br5   Br    Br    0.021284 0.403228 0.283679 -0.414973
Br6   Br    Br    0.928063 0.433050 0.755513 -0.455580
Br7   Br    Br    0.520463 0.903021 0.284475 -0.414525
Br8   Br    Br    0.479195 0.903215 0.715675 -0.414608
Br9   Br    Br    0.923668 0.435072 0.391446 -0.438364
Br10  Br    Br    0.027504 0.405503 0.670523 -0.410747
Br11  Br    Br    0.423134 0.935702 0.392050 -0.436829
Br12  Br    Br    0.908331 0.543664 0.908089 -0.452262
Br13  Br    Br    0.576645 0.935292 0.608055 -0.435808
Br14  Br    Br    0.589051 0.957272 0.103393 -0.447076
Br15  Br    Br    0.410782 0.957874 0.896614 -0.447382
Br16  Br    Br    0.622887 0.589133 0.932237 -0.540333
Br17  Br    Br    0.376736 0.586846 0.060825 -0.540970
Br18  Br    Br    0.122809 0.089943 0.929408 -0.543956
Br19  Br    Br    0.876932 0.089827 0.070761 -0.543572
Br20  Br    Br    0.802717 0.628229 0.774227 -0.487557
C1    C     C_R   0.914227 0.500045 0.585657 0.832528
C2    C     C_R   0.343265 0.467354 0.183889 -0.286151
C3    C     C_R   0.016192 0.842334 0.035435 -0.208085
C4    C     C_R   0.500016 0.365615 0.999930 -0.065131
C5    C     C_R   0.000105 0.865614 0.999842 -0.064879
C6    C     C_R   0.516847 0.295992 0.034767 0.057182
C7    C     C_R   0.483137 0.295977 0.965161 0.057116
C8    C     C_R   0.016636 0.795969 0.035126 0.057297
C9    C     C_R   0.983721 0.795999 0.964255 0.053682
C10   C     C_R   0.499977 0.272651 0.999988 0.058008
C11   C     C_R   0.000160 0.772645 0.999690 0.058585
C12   C     C_R   0.533927 0.272701 0.068636 -0.293969
C13   C     C_R   0.156687 0.965409 0.820417 -0.284257
C14   C     C_R   0.466057 0.272667 0.931294 -0.293691
C15   C     C_R   0.033390 0.772656 0.069507 -0.293799
C16   C     C_R   0.967183 0.772735 0.929496 -0.287007
C17   C     C_R   0.033521 0.726183 0.069839 0.433555
C18   C     C_R   0.967108 0.726304 0.928904 0.438528
C19   C     C_R   0.534039 0.226228 0.069044 0.433808
C20   C     C_R   0.465915 0.226191 0.930934 0.433745
C21   C     C_R   0.017414 0.702694 0.034052 0.038736
C22   C     C_R   0.982836 0.702706 0.965256 0.028768
C23   C     C_R   0.517615 0.202719 0.033791 0.037607
C24   C     C_R   0.843416 0.965411 0.179505 -0.283762
C25   C     C_R   0.482281 0.202700 0.966280 0.037615
C26   C     C_3   0.971330 0.538623 0.241817 -0.512395
C27   C     C_3   0.046561 0.508404 0.738667 -0.485664
C28   C     C_3   0.471643 0.038834 0.241484 -0.512863
C29   C     C_3   0.528476 0.038738 0.758482 -0.512601
C30   C     C_R   0.000131 0.726016 0.999674 -0.062740
C31   C     C_R   0.499952 0.226027 0.000028 -0.065486
C32   C     C_R   0.017901 0.656291 0.032428 -0.205291
C33   C     C_R   0.981963 0.656294 0.967494 -0.201904
C34   C     C_R   0.518129 0.156308 0.032138 -0.204806
C35   C     C_R   0.633618 0.502020 0.866657 -0.095206
C36   C     C_R   0.481734 0.156290 0.967992 -0.204988
C37   C     C_R   0.999899 0.633471 0.000023 -0.074731
C38   C     C_R   0.499924 0.133474 0.000081 -0.073899
C39   C     C_R   0.518840 0.657431 0.031061 -0.184185
C40   C     C_R   0.480946 0.657422 0.969323 -0.186675
C41   C     C_R   0.018678 0.157434 0.031394 -0.183025
C42   C     C_R   0.981262 0.157434 0.968827 -0.183801
C43   C     C_R   0.499905 0.634198 0.000169 -0.064007
C44   C     C_R   0.999972 0.134203 0.000100 -0.060908
C45   C     C_R   0.480154 0.703763 0.970245 0.095729
C46   C     C_R   0.366314 0.502250 0.133315 -0.097154
C47   C     C_R   0.519694 0.703769 0.030038 0.095851
C48   C     C_R   0.980460 0.203771 0.969767 0.096508
C49   C     C_R   0.019526 0.203772 0.030396 0.096367
C50   C     C_R   0.499948 0.727053 0.000101 0.061528
C51   C     C_R   0.000009 0.227058 0.000058 0.060999
C52   C     C_R   0.459877 0.727204 0.941958 -0.170924
C53   C     C_R   0.540013 0.727210 0.058254 -0.170415
C54   C     C_R   0.960403 0.227209 0.941083 -0.170066
C55   C     C_R   0.039608 0.227215 0.059042 -0.170480
C56   C     C_R   0.959565 0.273525 0.942560 -0.177793
C57   C     C_R   0.133595 0.001959 0.866645 -0.094095
C58   C     C_R   0.040504 0.273531 0.057474 -0.172544
C59   C     C_R   0.459061 0.773523 0.943405 -0.172552
C60   C     C_R   0.540926 0.773524 0.056644 -0.171937
C61   C     C_R   0.979328 0.296969 0.971747 0.106897
C62   C     C_R   0.020777 0.296975 0.028230 0.101223
C63   C     C_R   0.479064 0.796968 0.972161 0.102255
C64   C     C_R   0.520978 0.796968 0.027794 0.101982
C65   C     C_3   0.045978 0.507836 0.242432 -0.536251
C66   C     C_3   0.965766 0.535329 0.746903 -0.527913
C67   C     C_3   0.546035 0.007414 0.242370 -0.536994
C68   C     C_R   0.866400 0.001929 0.133354 -0.094270
C69   C     C_3   0.453986 0.007776 0.757628 -0.537008
C70   C     C_R   0.000039 0.273677 0.000010 0.064004
C71   C     C_R   0.499998 0.773672 0.000016 0.064474
C72   C     C_R   0.978874 0.343311 0.973086 -0.219011
C73   C     C_R   0.021270 0.343320 0.026820 -0.213620
C74   C     C_R   0.478631 0.843312 0.973475 -0.213392
C75   C     C_R   0.521487 0.843311 0.026353 -0.213236
C76   C     C_R   0.000076 0.366261 0.999939 -0.055928
C77   C     C_R   0.500071 0.866258 0.999892 -0.061210
C78   C     C_3   0.981758 0.452871 0.301599 0.508104
C79   C     C_R   0.656347 0.539064 0.867913 0.215816
C80   C     C_3   0.985219 0.453142 0.731771 0.482918
C81   C     C_3   0.481355 0.953004 0.302016 0.507578
C82   C     C_3   0.518479 0.952961 0.698058 0.507871
C83   C     C_3   0.998011 0.499055 0.312765 -0.056222
C84   C     C_3   0.999291 0.499794 0.689915 -0.062535
C85   C     C_3   0.497995 0.999053 0.312778 -0.057220
C86   C     C_3   0.501996 0.999112 0.687231 -0.057301
C87   C     C_3   0.000372 0.499814 0.188685 -0.046744
C88   C     C_3   0.998798 0.502146 0.812216 -0.041692
C89   C     C_3   0.500357 0.999782 0.188697 -0.046172
C90   C     C_R   0.343472 0.538012 0.128651 0.215846
C91   C     C_3   0.499634 0.999854 0.811313 -0.046241
C92   C     C_3   0.048175 0.505213 0.168843 0.166466
C93   C     C_3   0.968737 0.540022 0.815184 0.114102
C94   C     C_3   0.548202 0.004782 0.168810 0.165963
C95   C     C_3   0.451804 0.005142 0.831196 0.166137
C96   C     C_3   0.901166 0.573979 0.403275 0.059468
C97   C     C_3   0.901233 0.593981 0.468383 -0.342878
C98   C     C_3   0.874730 0.637062 0.497175 -0.872980
C99   C     C_3   0.122474 0.509059 0.572487 0.069759
C100  C     C_3   0.130601 0.549281 0.522195 -0.393907
C101  C     C_R   0.156306 0.039429 0.866580 0.214379
C102  C     C_3   0.179933 0.559378 0.466778 -0.849355
C103  C     C_3   0.401788 0.074795 0.402667 0.059365
C104  C     C_3   0.402090 0.094811 0.467533 -0.341334
C105  C     C_3   0.375779 0.138006 0.496238 -0.873834
C106  C     C_3   0.598458 0.074265 0.597254 0.059377
C107  C     C_3   0.598195 0.094294 0.532404 -0.342288
C108  C     C_3   0.624669 0.137319 0.503621 -0.872226
C109  C     C_3   0.019477 0.700980 0.180990 0.031995
C110  C     C_3   0.036412 0.669845 0.214797 -0.293903
C111  C     C_3   0.003865 0.667110 0.301089 -0.937536
C112  C     C_R   0.085741 0.499946 0.413470 0.807681
C113  C     C_R   0.843580 0.039338 0.133442 0.214476
C114  C     C_3   0.983986 0.697150 0.818114 0.025349
C115  C     C_3   0.964968 0.673622 0.780215 -0.277927
C116  C     C_3   0.001200 0.662401 0.697387 -0.939599
C117  C     C_3   0.520484 0.201057 0.179856 0.032072
C118  C     C_3   0.537617 0.169852 0.213253 -0.294797
C119  C     C_3   0.505330 0.167122 0.299592 -0.938797
C120  C     C_3   0.479635 0.200865 0.820009 0.032417
C121  C     C_3   0.462536 0.169770 0.786406 -0.295187
C122  C     C_3   0.494930 0.166916 0.700077 -0.938682
C123  C     C_R   0.703087 0.539493 0.820647 0.001474
C124  C     C_R   0.296719 0.538254 0.175297 0.000979
C125  C     C_R   0.203041 0.039890 0.819188 0.001785
C126  C     C_R   0.796844 0.039766 0.180766 0.001858
C127  C     C_R   0.726272 0.502381 0.773725 0.019242
C128  C     C_R   0.273624 0.502289 0.225222 0.018231
C129  C     C_R   0.226235 0.002381 0.773512 0.018108
C130  C     C_R   0.773759 0.002288 0.226369 0.018150
C131  C     C_R   0.702873 0.465506 0.773323 0.129900
C132  C     C_R   0.414218 0.000050 0.585601 0.824721
C133  C     C_R   0.297110 0.466805 0.229299 0.129898
C134  C     C_R   0.202843 0.965074 0.774444 0.129961
C135  C     C_R   0.797259 0.965045 0.225422 0.129695
C136  C     C_R   0.727270 0.576014 0.818895 -0.163213
C137  C     C_R   0.272431 0.573455 0.173425 -0.164373
C138  C     C_R   0.227210 0.076828 0.816084 -0.164411
C139  C     C_R   0.772568 0.076640 0.183872 -0.164242
C140  C     C_R   0.773487 0.576145 0.772034 0.241701
C141  C     C_R   0.226209 0.573414 0.219686 0.235459
C142  C     C_R   0.273424 0.076975 0.769143 0.237634
C143  C     C_R   0.585781 0.000001 0.414354 0.824457
C144  C     C_R   0.726355 0.076762 0.230757 0.237644
C145  C     C_R   0.796736 0.539056 0.725902 0.044288
C146  C     C_R   0.203054 0.537483 0.268949 0.042455
C147  C     C_R   0.296683 0.039481 0.724330 0.046060
C148  C     C_R   0.703207 0.039305 0.275515 0.046011
C149  C     C_R   0.998273 0.499783 0.381618 0.844896
C150  C     C_R   0.999427 0.499898 0.620691 0.871084
C151  C     C_R   0.498262 0.999784 0.381629 0.849183
C152  C     C_R   0.501731 0.999807 0.618378 0.849125
C153  C     C_R   0.772947 0.502011 0.727000 0.037930
C154  C     C_3   0.979473 0.455940 0.232318 -0.381224
C155  C     C_R   0.226952 0.501701 0.271340 0.033797
C156  C     C_R   0.272907 0.002039 0.726721 0.038144
C157  C     C_R   0.727087 0.001920 0.273109 0.038208
C158  C     C_R   0.795813 0.464441 0.681325 0.115330
C159  C     C_R   0.204190 0.465259 0.320139 0.107419
C160  C     C_R   0.295784 0.964093 0.682299 0.115794
C161  C     C_R   0.704316 0.964013 0.317482 0.115652
C162  C     C_R   0.772111 0.428082 0.681791 -0.178776
C163  C     C_R   0.227973 0.430288 0.323372 -0.201918
C164  C     C_R   0.272090 0.927325 0.684042 -0.181118
C165  C     C_3   0.981267 0.456816 0.807064 -0.404607
C166  C     C_R   0.728119 0.927303 0.315712 -0.180569
C167  C     C_R   0.725957 0.428687 0.727245 -0.180054
C168  C     C_R   0.274116 0.431134 0.278469 -0.182272
C169  C     C_R   0.225935 0.927880 0.729576 -0.180163
C170  C     C_R   0.774274 0.927884 0.270219 -0.179531
C171  C     C_R   0.843124 0.537901 0.678783 -0.199831
C172  C     C_R   0.156660 0.536324 0.316034 -0.190963
C173  C     C_R   0.343069 0.038307 0.677306 -0.210489
C174  C     C_R   0.656830 0.038123 0.322527 -0.210249
C175  C     C_R   0.865737 0.500454 0.634243 -0.088867
C176  C     C_3   0.479083 0.956089 0.232722 -0.380970
C177  C     C_R   0.134198 0.500031 0.363818 -0.093898
C178  C     C_R   0.365709 0.000485 0.634043 -0.095641
C179  C     C_R   0.634290 0.000358 0.365794 -0.096059
C180  C     C_R   0.842055 0.463805 0.635762 -0.170663
C181  C     C_R   0.157962 0.464509 0.365479 -0.202038
C182  C     C_R   0.342027 0.963482 0.636731 -0.177693
C183  C     C_R   0.658070 0.963393 0.363055 -0.177883
C184  C     C_R   0.999966 0.585425 0.999973 0.778411
C185  C     C_R   0.499974 0.085426 0.000018 0.775261
C186  C     C_R   0.000190 0.500338 0.119901 0.801431
C187  C     C_3   0.520766 0.956038 0.767336 -0.381061
C188  C     C_R   0.999788 0.502064 0.880200 0.807044
C189  C     C_R   0.500187 0.000306 0.119903 0.802151
C190  C     C_R   0.499810 0.000355 0.880102 0.801974
C191  C     C_R   0.000026 0.414412 0.999995 0.800826
C192  C     C_R   0.500025 0.914411 0.999966 0.808073
C193  C     C_3   0.968728 0.537902 0.316127 0.301956
C194  C     C_3   0.045763 0.514287 0.668293 0.299102
C195  C     C_3   0.469041 0.038146 0.315794 0.302635
C196  C     C_3   0.531081 0.038027 0.684162 0.302210
C197  C     C_R   0.500007 0.414235 0.999972 0.778360
C198  C     C_R   0.656715 0.465882 0.819198 -0.283712
C199  C     C_R   0.000038 0.914234 0.999944 0.777512
C200  C     C_R   0.585435 0.500511 0.914613 0.850310
C201  C     C_R   0.414543 0.500666 0.085400 0.849066
C202  C     C_R   0.085428 0.000465 0.914616 0.850637
C203  C     C_R   0.914571 0.000457 0.085386 0.850911
C204  C     C_R   0.499957 0.585637 0.000067 0.867302
C205  C     C_R   0.999989 0.085639 0.000036 0.871497
C206  C     C_R   0.483579 0.342340 0.964886 -0.207936
C207  C     C_R   0.516445 0.342353 0.034981 -0.208749
C208  C     C_R   0.984097 0.842352 0.964109 -0.207710
Cu1   Cu    Cu3+1 0.000000 0.544430 0.500000 0.948592
Cu2   Cu    Cu3+1 0.500070 0.499950 0.062420 1.007575
Cu3   Cu    Cu3+1 0.999930 0.999950 0.937580 1.009596
Cu4   Cu    Cu3+1 0.000070 0.999950 0.062420 1.009350
Cu5   Cu    Cu3+1 0.500000 0.044430 0.500000 0.936322
Cu6   Cu    Cu3+1 0.000000 0.455520 0.500000 1.118501
Cu7   Cu    Cu3+1 0.500000 0.955520 0.500000 1.109722
Cu8   Cu    Cu3+1 0.955510 0.499950 0.044460 1.027214
Cu9   Cu    Cu3+1 0.044490 0.499950 0.955540 1.008579
Cu10  Cu    Cu3+1 0.455510 0.999950 0.044460 1.015322
Cu11  Cu    Cu3+1 0.544490 0.999950 0.955540 1.015654
Cu12  Cu    Cu3+1 0.499930 0.499950 0.937580 1.012185
H1    H     H_    0.983030 0.569660 0.319518 0.103656
H2    H     H_    0.931716 0.526337 0.765838 0.254487
H3    H     H_    0.415075 0.098927 0.355049 0.113042
H4    H     H_    0.387193 0.070761 0.515197 0.246994
H5    H     H_    0.436719 0.101487 0.447779 0.228468
H6    H     H_    0.390492 0.162926 0.449831 0.250028
H7    H     H_    0.376524 0.151442 0.543404 0.279225
H8    H     H_    0.340730 0.132035 0.517783 0.265150
H9    H     H_    0.633331 0.067526 0.576145 0.184293
H10   H     H_    0.585264 0.098474 0.644854 0.113246
H11   H     H_    0.612988 0.070153 0.484769 0.246960
H12   H     H_    0.563584 0.101192 0.552194 0.228490
H13   H     H_    0.569385 0.983497 0.240871 0.249704
H14   H     H_    0.610083 0.162323 0.550009 0.250302
H15   H     H_    0.623928 0.150773 0.456492 0.279254
H16   H     H_    0.659707 0.131113 0.481998 0.265192
H17   H     H_    0.987568 0.687420 0.194665 0.131210
H18   H     H_    0.013559 0.734410 0.207337 0.155544
H19   H     H_    0.041314 0.636098 0.190190 0.205653
H20   H     H_    0.068838 0.682020 0.200065 0.251203
H21   H     H_    0.999738 0.700212 0.327109 0.269900
H22   H     H_    0.016647 0.643579 0.323702 0.261963
H23   H     H_    0.971144 0.655186 0.317148 0.244005
H24   H     H_    0.430550 0.984013 0.759139 0.249551
H25   H     H_    0.010487 0.675892 0.812191 0.134602
H26   H     H_    0.998672 0.729293 0.788353 0.147167
H27   H     H_    0.948229 0.642529 0.811446 0.245812
H28   H     H_    0.939942 0.695414 0.782652 0.242273
H29   H     H_    0.018678 0.693009 0.665177 0.267466
H30   H     H_    0.986172 0.646606 0.670871 0.268210
H31   H     H_    0.025483 0.638938 0.693891 0.241067
H32   H     H_    0.488459 0.187563 0.193947 0.130424
H33   H     H_    0.514724 0.234482 0.206149 0.155220
H34   H     H_    0.542366 0.136115 0.188694 0.205486
H35   H     H_    0.638533 0.437689 0.819090 0.147058
H36   H     H_    0.570147 0.181960 0.198127 0.250009
H37   H     H_    0.501396 0.200202 0.325551 0.269551
H38   H     H_    0.518225 0.143505 0.321903 0.261695
H39   H     H_    0.472497 0.155305 0.316049 0.244095
H40   H     H_    0.511588 0.187201 0.806080 0.130675
H41   H     H_    0.485520 0.234266 0.793714 0.155391
H42   H     H_    0.457674 0.136046 0.810940 0.205503
H43   H     H_    0.430067 0.182047 0.801384 0.249931
H44   H     H_    0.498983 0.199989 0.674134 0.269667
H45   H     H_    0.482057 0.143385 0.677603 0.261618
H46   H     H_    0.361492 0.440148 0.186670 0.148905
H47   H     H_    0.527704 0.154931 0.683766 0.244165
H48   H     H_    0.138502 0.936897 0.821314 0.146398
H49   H     H_    0.861685 0.936944 0.178585 0.146663
H50   H     H_    0.710725 0.604995 0.853687 0.225634
H51   H     H_    0.288893 0.601513 0.136166 0.225733
H52   H     H_    0.210653 0.106128 0.849853 0.225712
H53   H     H_    0.049351 0.550293 0.654187 0.086055
H54   H     H_    0.789038 0.105910 0.150149 0.225627
H55   H     H_    0.862105 0.565774 0.676939 0.202278
H56   H     H_    0.137532 0.563305 0.315608 0.199175
H57   H     H_    0.362021 0.066476 0.674568 0.202172
H58   H     H_    0.637805 0.066260 0.325287 0.202299
H59   H     H_    0.859631 0.435044 0.600644 0.180846
H60   H     H_    0.140437 0.436760 0.403353 0.174211
H61   H     H_    0.359597 0.934422 0.602594 0.180654
H62   H     H_    0.640574 0.934377 0.397185 0.180753
H63   H     H_    0.789297 0.399185 0.646852 0.161986
H64   H     H_    0.483613 0.069785 0.318898 0.103506
H65   H     H_    0.210859 0.402316 0.360832 0.157687
H66   H     H_    0.289282 0.898134 0.650065 0.161477
H67   H     H_    0.711013 0.898143 0.349645 0.161914
H68   H     H_    0.708277 0.400237 0.726640 0.150617
H69   H     H_    0.291860 0.403760 0.281939 0.149555
H70   H     H_    0.208262 0.899103 0.729988 0.150685
H71   H     H_    0.792032 0.899154 0.269793 0.151120
H72   H     H_    0.470600 0.360330 0.938247 0.158098
H73   H     H_    0.529439 0.360350 0.061602 0.157978
H74   H     H_    0.971414 0.860342 0.936989 0.158487
H75   H     H_    0.516615 0.069746 0.681011 0.103516
H76   H     H_    0.028882 0.860316 0.062565 0.158079
H77   H     H_    0.547338 0.290489 0.094725 0.164472
H78   H     H_    0.452687 0.290442 0.905136 0.164589
H79   H     H_    0.046540 0.790428 0.096041 0.164557
H80   H     H_    0.954347 0.790520 0.902467 0.168127
H81   H     H_    0.031324 0.637605 0.057702 0.165767
H82   H     H_    0.968300 0.637602 0.942622 0.180012
H83   H     H_    0.531771 0.137632 0.057053 0.165928
H84   H     H_    0.468104 0.137600 0.943061 0.165898
H85   H     H_    0.533631 0.639424 0.054607 0.187128
H86   H     H_    0.996281 0.427189 0.193392 0.199264
H87   H     H_    0.466133 0.639409 0.945814 0.187979
H88   H     H_    0.033298 0.139426 0.055238 0.186042
H89   H     H_    0.966621 0.139426 0.945008 0.185840
H90   H     H_    0.444448 0.709704 0.919107 0.169444
H91   H     H_    0.555408 0.709713 0.081164 0.169356
H92   H     H_    0.945161 0.209709 0.917899 0.167667
H93   H     H_    0.054826 0.209718 0.082263 0.168419
H94   H     H_    0.943688 0.291015 0.920510 0.167757
H95   H     H_    0.056397 0.291022 0.079500 0.174793
H96   H     H_    0.443013 0.791015 0.921667 0.174846
H97   H     H_    0.946256 0.452898 0.856851 0.231829
H98   H     H_    0.557004 0.791015 0.078332 0.175211
H99   H     H_    0.962842 0.361622 0.951999 0.146211
H100  H     H_    0.037298 0.361640 0.047910 0.165684
H101  H     H_    0.462426 0.861627 0.952708 0.166093
H102  H     H_    0.537696 0.861626 0.047114 0.166424
H103  H     H_    0.937376 0.536516 0.255631 0.226476
H104  H     H_    0.067261 0.479125 0.730572 0.233502
H105  H     H_    0.437674 0.037007 0.255309 0.225852
H106  H     H_    0.562439 0.036714 0.744658 0.226027
H107  H     H_    0.985541 0.570818 0.212142 0.122445
H108  H     H_    0.495636 0.927193 0.194041 0.199306
H109  H     H_    0.062220 0.538238 0.744221 0.142015
H110  H     H_    0.486123 0.070906 0.211531 0.122373
H111  H     H_    0.514095 0.070896 0.788406 0.122433
H112  H     H_    0.056974 0.541388 0.246727 0.163049
H113  H     H_    0.972586 0.568281 0.719152 0.187761
H114  H     H_    0.557320 0.040866 0.246388 0.162143
H115  H     H_    0.442822 0.041303 0.753585 0.162156
H116  H     H_    0.062677 0.536741 0.136899 0.134553
H117  H     H_    0.984505 0.572375 0.810927 0.109239
H118  H     H_    0.562964 0.036192 0.136620 0.134267
H119  H     H_    0.504120 0.927243 0.806044 0.199409
H120  H     H_    0.437144 0.036634 0.863380 0.133947
H121  H     H_    0.944419 0.454392 0.251344 0.201523
H122  H     H_    0.999892 0.429589 0.811716 0.172244
H123  H     H_    0.444011 0.954841 0.251789 0.201674
H124  H     H_    0.555833 0.954585 0.748272 0.201619
H125  H     H_    0.866347 0.567166 0.424211 0.184296
H126  H     H_    0.914282 0.598233 0.355864 0.114042
H127  H     H_    0.886362 0.569858 0.515940 0.244819
H128  H     H_    0.935798 0.600801 0.448853 0.229138
H129  H     H_    0.889444 0.662072 0.450907 0.250974
H130  H     H_    0.069533 0.484129 0.240746 0.249744
H131  H     H_    0.875259 0.650460 0.544582 0.278504
H132  H     H_    0.839753 0.630954 0.518406 0.264637
H133  H     H_    0.147323 0.482995 0.536742 0.188425
H134  H     H_    0.128175 0.518330 0.616065 0.128547
H135  H     H_    0.116507 0.542874 0.489769 0.245635
H136  H     H_    0.113992 0.579125 0.558042 0.200191
H137  H     H_    0.194395 0.567264 0.498426 0.254580
H138  H     H_    0.184555 0.588339 0.431094 0.269874
H139  H     H_    0.197722 0.530548 0.428866 0.258450
H140  H     H_    0.366900 0.068270 0.423743 0.184083
O1    O     O_R   0.935120 0.537520 0.564840 -0.610973
O2    O     O_R   0.435120 0.499960 0.012170 -0.554401
O3    O     O_R   0.064880 0.999960 0.987830 -0.558085
O4    O     O_R   0.935120 0.999960 0.012170 -0.557796
O5    O     O_R   0.499950 0.564810 0.947310 -0.571634
O6    O     O_R   0.500050 0.564810 0.052690 -0.574081
O7    O     O_R   0.999950 0.064810 0.947310 -0.573411
O8    O     O_R   0.000050 0.064810 0.052690 -0.573354
O9    O     O_R   0.935080 0.462440 0.564870 -0.552417
O10   O     O_R   0.064920 0.462440 0.435130 -0.559030
O11   O     O_R   0.435080 0.962440 0.564870 -0.559075
O12   O     O_R   0.064880 0.537520 0.435160 -0.601879
O13   O     O_R   0.564920 0.962440 0.435130 -0.558922
O14   O     O_R   0.999990 0.537520 0.408860 -0.620425
O15   O     O_R   0.000010 0.537520 0.591140 -0.617491
O16   O     O_R   0.499990 0.037520 0.408860 -0.619359
O17   O     O_R   0.500010 0.037520 0.591140 -0.619303
O18   O     O_R   0.999950 0.462430 0.408890 -0.530075
O19   O     O_R   0.000050 0.462430 0.591110 -0.513559
O20   O     O_R   0.499950 0.962430 0.408890 -0.528474
O21   O     O_R   0.500050 0.962430 0.591110 -0.528340
O22   O     O_R   0.962420 0.564820 0.037570 -0.565290
O23   O     O_R   0.435120 0.037520 0.564840 -0.608090
O24   O     O_R   0.037580 0.564820 0.962430 -0.585795
O25   O     O_R   0.462420 0.064820 0.037570 -0.581446
O26   O     O_R   0.537580 0.064820 0.962430 -0.581268
O27   O     O_R   0.962440 0.499950 0.128690 -0.593652
O28   O     O_R   0.037560 0.499950 0.871310 -0.599520
O29   O     O_R   0.462440 0.999950 0.128690 -0.593879
O30   O     O_R   0.537560 0.999950 0.871310 -0.593798
O31   O     O_R   0.037530 0.500000 0.053640 -0.551515
O32   O     O_R   0.962470 0.500000 0.946360 -0.536608
O33   O     O_R   0.537530 0.000000 0.053640 -0.551692
O34   O     O_R   0.564880 0.037520 0.435160 -0.608065
O35   O     O_R   0.462470 1.000000 0.946360 -0.551457
O36   O     O_R   0.962440 0.435080 0.037530 -0.577697
O37   O     O_R   0.037560 0.435080 0.962470 -0.565238
O38   O     O_R   0.462440 0.935080 0.037530 -0.566446
O39   O     O_R   0.537560 0.935080 0.962470 -0.566173
O40   O     O_R   0.499930 0.435080 0.947280 -0.592751
O41   O     O_R   0.500070 0.435080 0.052720 -0.593242
O42   O     O_R   0.999930 0.935080 0.947280 -0.593103
O43   O     O_R   0.000070 0.935080 0.052720 -0.593167
O44   O     O_3   0.924196 0.533004 0.380370 -0.570130
O45   O     O_R   0.564810 0.499970 0.882380 -0.582666
O46   O     O_3   0.080124 0.489905 0.604594 -0.574622
O47   O     O_3   0.424469 0.033626 0.380080 -0.569479
O48   O     O_3   0.575638 0.033233 0.619884 -0.569547
O49   O     O_3   0.051622 0.703732 0.101679 -0.600536
O50   O     O_3   0.949662 0.704310 0.895579 -0.589239
O51   O     O_3   0.552396 0.203797 0.100465 -0.600839
O52   O     O_3   0.447636 0.203751 0.899376 -0.600949
O53   O     O_R   0.435190 0.499970 0.117620 -0.585429
O54   O     O_R   0.064810 0.999970 0.882380 -0.582165
O55   O     O_R   0.935190 0.999970 0.117620 -0.582152
O56   O     O_R   0.564880 0.499960 0.987830 -0.556616

loop_
_geom_bond_atom_site_label_1
_geom_bond_atom_site_label_2
_ccdc_geom_bond_type
C10   C31   A    
C106  C107  S    
C85   C195  S    
C77   C192  S    
C87   C92   S    
C137  H51   S    
C138  H52   S    
C149  O14   A    
C29   H111  S    
C195  H64   S    
C192  O39   A    
C118  H34   S    
C41   H88   S    
C79   C123  A    
C68   C113  A    
C188  O32   A    
C52   C59   A    
C154  H86   S    
C80   C84   S    
Cu9   O28   S    
C89   C176  S    
C26   H103  S    
C185  O25   A    
Cu1   Cu6   S    
C66   H113  S    
C42   C44   A    
C2    H46   S    
C122  H44   S    
C170  H71   S    
C126  C130  A    
C25   C36   A    
C69   C86   S    
C166  H67   S    
C64   C71   A    
C104  H4    S    
C65   C83   S    
C60   C64   A    
C200  O45   A    
C29   C91   S    
C111  H22   S    
C76   C191  S    
C202  O3    A    
C197  O41   A    
C105  H6    S    
C89   C189  S    
C35   C198  A    
C7    C206  A    
Cu11  O26   S    
C144  C148  A    
C192  O38   A    
C120  C121  S    
C188  O28   A    
C74   C77   A    
Br14  C94   S    
C140  C145  A    
C203  O4    A    
C88   C93   S    
C166  C170  A    
C208  H74   S    
Cu1   O14   S    
C58   C62   A    
C23   C34   A    
C29   H106  S    
C66   H2    S    
Cu11  O33   S    
C143  O34   A    
C149  O18   A    
Br11  C81   S    
C164  H66   S    
C46   C90   A    
C187  H119  S    
C158  C162  A    
C61   C70   A    
C134  C169  A    
C40   C45   A    
Cu9   O31   S    
Br15  C95   S    
C128  C133  A    
C11   C30   A    
C63   C71   A    
C119  H39   S    
C85   C151  S    
C86   C152  S    
C119  H37   S    
C187  H124  S    
C110  H20   S    
C75   C77   A    
C102  H138  S    
C86   C196  S    
C39   C43   A    
C42   C48   A    
Cu10  O25   S    
C67   H114  S    
C73   H100  S    
C110  C111  S    
C163  C168  A    
C37   C184  S    
C193  H1    S    
C99   H134  S    
Cu10  O38   S    
C121  H42   S    
C96   H126  S    
C52   H90   S    
Br20  C140  S    
C58   H95   S    
C105  H8    S    
Cu7   O11   S    
Cu6   O9    S    
C191  O36   A    
C173  C178  A    
C69   C95   S    
C6    C12   A    
Br9   C78   S    
C125  C138  A    
C100  H135  S    
Cu12  O5    S    
C120  H40   S    
Cu1   O1    S    
C50   C71   A    
C207  H73   S    
C88   C188  S    
C65   C92   S    
C66   C84   S    
C108  H15   S    
C103  H3    S    
C103  C104  S    
C181  H60   S    
C33   H82   S    
C54   C56   A    
C106  H9    S    
C176  H108  S    
Cu6   O18   S    
C109  H17   S    
Br1   C92   S    
Cu12  O40   S    
C1    O1    A    
C45   C50   A    
C27   C194  S    
C168  H69   S    
C135  C170  A    
Cu11  O39   S    
Cu8   Cu9   S    
C205  O7    A    
Br3   C142  S    
C39   C47   A    
C61   C72   A    
C8    C15   A    
C178  C182  A    
C108  H14   S    
Cu5   O34   S    
Cu8   O32   S    
C81   C176  S    
C122  H47   S    
C195  O47   S    
C114  H25   S    
C171  H55   S    
C28   C195  S    
C143  C179  S    
C147  C173  A    
C161  C183  A    
C132  O11   A    
C203  O55   A    
C44   C205  S    
Cu2   O41   S    
C111  H23   S    
C206  H72   S    
C68   C203  S    
Cu9   O24   S    
C24   H49   S    
C99   O46   S    
C136  C140  A    
C32   C37   A    
Cu1   O12   S    
C69   H24   S    
C201  O2    A    
C150  O15   A    
C193  O44   S    
C103  O47   S    
C97   H128  S    
C64   C75   A    
Br6   C80   S    
C127  C131  A    
Cu12  O2    S    
C67   C85   S    
C26   C193  S    
C165  H122  S    
C136  H50   S    
Cu9   O37   S    
C3    C8    A    
Cu5   O16   S    
C190  O35   A    
C89   C94   S    
C22   C30   A    
C130  C157  A    
C65   H130  S    
C12   H77   S    
C6    C10   A    
C130  C135  A    
C151  O20   A    
C115  H28   S    
C65   H112  S    
C91   C187  S    
Cu3   O42   S    
C84   C150  S    
C109  C110  S    
Cu2   O53   S    
Cu7   O20   S    
Cu10  O35   S    
C204  O5    A    
C161  C166  A    
C114  C115  S    
C113  C126  A    
C87   C154  S    
C45   C52   A    
C47   C50   A    
C80   C165  S    
C91   C190  S    
C97   C98   S    
C27   H104  S    
C13   C57   A    
C51   C70   A    
C153  C158  A    
C157  C161  A    
C108  H16   S    
C36   C38   A    
C17   C21   A    
C3    H76   S    
Cu7   O21   S    
C171  C175  A    
C186  O31   A    
C57   C101  A    
C122  H45   S    
C160  C164  A    
C57   C202  S    
C156  C160  A    
C189  O29   A    
C98   H131  S    
C27   C88   S    
Br7   C81   S    
C35   C79   A    
C83   C149  S    
C139  C144  A    
C34   H83   S    
C200  O56   A    
C9    C208  A    
C124  C137  A    
C173  H57   S    
C111  H21   S    
C2    C133  A    
C114  H26   S    
C197  O40   A    
C120  O52   S    
C191  O37   A    
C184  O22   A    
C115  C116  S    
C93   H117  S    
C146  C155  A    
C198  H35   S    
Cu4   O3    S    
C39   H85   S    
C66   C93   S    
C167  H68   S    
Br12  C93   S    
C160  C182  A    
C28   H105  S    
C34   C38   A    
C148  C157  A    
C107  H12   S    
C12   C19   A    
C72   H99   S    
C196  H75   S    
C159  C181  A    
C116  H29   S    
C47   C53   A    
C4    C207  A    
C112  O12   A    
C4    C197  S    
C172  H56   S    
C62   C73   A    
C183  H62   S    
C179  C183  A    
C163  H65   S    
C46   C201  S    
C20   C25   A    
C106  O48   S    
C17   O49   S    
C59   H96   S    
C180  H59   S    
C88   C165  S    
C112  O10   A    
C33   C37   A    
C15   H79   S    
C102  H139  S    
C16   H80   S    
C63   C74   A    
C32   H81   S    
Cu2   O6    S    
C162  H63   S    
C41   C44   A    
C129  C134  A    
Cu8   O36   S    
C176  H123  S    
C29   C196  S    
C98   H129  S    
C99   H133  S    
Br16  C79   S    
C172  C177  A    
C143  O13   A    
Cu4   O43   S    
Br10  C80   S    
C28   H110  S    
C69   H115  S    
C56   H94   S    
C155  C159  A    
C5    C199  S    
C107  C108  S    
C190  O30   A    
C137  C141  A    
C21   C30   A    
Cu6   O10   S    
C184  O24   A    
C150  O19   A    
C75   H102  S    
C158  C180  A    
Cu10  Cu11  S    
C100  H136  S    
C8    C11   A    
C99   C100  S    
C127  C153  A    
C133  C168  A    
Br19  C113  S    
Cu2   O56   S    
C199  O42   A    
C62   C70   A    
C106  H10   S    
C129  C156  A    
C16   C18   A    
Cu1   O15   S    
Cu6   O19   S    
C22   C33   A    
C59   C63   A    
Cu3   O4    S    
C53   H91   S    
C109  O49   S    
C194  H53   S    
C23   C31   A    
C48   C51   A    
C1    O9    A    
C112  C177  S    
C145  C171  A    
C49   C55   A    
C116  H31   S    
C146  C172  A    
Cu4   O55   S    
C118  C119  S    
Br18  C101  S    
C67   H13   S    
C182  H61   S    
C26   H107  S    
C48   C54   A    
C131  C167  A    
C125  C129  A    
C152  O17   A    
C94   H118  S    
C119  H38   S    
Cu2   Cu12  S    
C139  H54   S    
C72   C76   A    
C120  H41   S    
C124  C128  A    
Br17  C90   S    
C110  H19   S    
C27   H109  S    
C102  H137  S    
C123  C127  A    
C55   H93   S    
C9    C16   A    
C40   C43   A    
C14   C20   A    
C15   C17   A    
C186  O27   A    
C18   C22   A    
Cu8   O22   S    
C78   C154  S    
Cu11  O30   S    
C189  O33   A    
C25   C31   A    
C145  C153  A    
C96   C97   S    
C97   H127  S    
C117  H33   S    
C104  H5    S    
C49   C51   A    
C201  O53   A    
C2    C46   A    
C87   C186  S    
C114  O50   S    
C96   H125  S    
C174  H58   S    
C121  H43   S    
C67   C94   S    
C78   C83   S    
Br4   C144  S    
C177  C181  A    
C92   H116  S    
Cu8   O27   S    
C82   C187  S    
C6    C207  A    
C21   C32   A    
C141  C146  A    
C152  O21   A    
C151  O16   A    
C148  C174  A    
C7    C10   A    
C115  H27   S    
C95   H120  S    
C38   C185  S    
C4    C206  A    
Br2   C141  S    
C117  H32   S    
C100  C102  S    
C159  C163  A    
C7    C14   A    
C81   C85   S    
C128  C155  A    
C154  H121  S    
C204  O6    A    
C109  H18   S    
C13   C134  A    
C96   O44   S    
C74   H101  S    
C19   C23   A    
C126  C139  A    
C194  O46   S    
C1    C175  S    
C205  O8    A    
C118  H36   S    
C132  O23   A    
C90   C124  A    
Cu7   O13   S    
C174  C179  A    
C13   H48   S    
Cu3   O54   S    
C26   C87   S    
C131  C198  A    
C132  C178  S    
C103  H140  S    
Cu10  O29   S    
Cu5   Cu7   S    
C169  H70   S    
C54   H92   S    
C19   O51   S    
C98   H132  S    
C117  O51   S    
C73   C76   A    
C202  O54   A    
C101  C125  A    
C18   O50   S    
C14   H78   S    
C175  C180  A    
Cu4   O8    S    
C41   C49   A    
C83   C193  S    
C185  O26   A    
C24   C135  A    
Cu3   O7    S    
C43   C204  S    
Cu12  O45   S    
C56   C61   A    
C91   C95   S    
C42   H89   S    
C35   C200  S    
C196  O48   S    
C117  C118  S    
C5    C208  A    
Br13  C82   S    
C84   C194  S    
C9    C11   A    
C36   H84   S    
C121  C122  S    
C123  C136  A    
C199  O43   A    
C53   C60   A    
C28   C89   S    
C107  H11   S    
C162  C167  A    
C3    C5    A    
Cu5   O17   S    
C55   C58   A    
C165  H97   S    
C105  H7    S    
C138  C142  A    
C142  C147  A    
Cu5   O23   S    
Br5   C78   S    
C60   H98   S    
C82   C86   S    
Cu3   Cu4   S    
C20   O52   S    
C164  C169  A    
C147  C156  A    
C116  H30   S    
C40   H87   S    
C24   C68   A    
Br8   C82   S    
C104  C105  S    
