data_mof_unit_31345.cif
_audit_creation_date              2012-12-10T17:57:52-0500
_audit_creation_method            fapswitch 2.2
_symmetry_space_group_name_H-M    P1
_symmetry_Int_Tables_number       1
_space_group_crystal_system       triclinic
_cell_length_a                    10.926221
_cell_length_b                    9.524498
_cell_length_c                    15.077102
_cell_angle_alpha                 89.907922
_cell_angle_beta                  90.035178
_cell_angle_gamma                 89.861599
_cell_volume                      1569.01840388

loop_
_atom_site_label
_atom_site_type_symbol
_atom_type_description
_atom_site_fract_x
_atom_site_fract_y
_atom_site_fract_z
_atom_type_partial_charge
C1    C     C_R   0.261692 0.500204 0.500107 0.913679
C2    C     C_R   0.737646 0.499965 0.500141 0.972507
C3    C     C_R   0.438180 0.252042 0.045363 -0.023347
C4    C     C_R   0.559490 0.748170 0.954603 -0.018660
C5    C     C_R   0.060578 0.372662 0.502358 0.222611
C6    C     C_R   0.936317 0.622413 0.476233 0.285234
C7    C     C_R   0.937119 0.378763 0.524955 0.313773
C8    C     C_R   0.059988 0.628714 0.498859 0.289388
C9    C     C_R   0.871117 0.500298 0.500414 -0.381864
C10   C     C_R   0.127028 0.500636 0.500505 -0.392633
C11   C     C_R   0.461069 0.074445 0.427481 0.092051
C12   C     C_R   0.539862 0.925434 0.572283 0.030565
C13   C     C_R   0.539052 0.073916 0.572497 0.067306
C14   C     C_R   0.460792 0.926000 0.427548 0.068464
C15   C     C_R   0.499203 0.500104 0.328639 0.829718
C16   C     C_R   0.500216 0.499899 0.671349 0.839997
C17   C     C_R   0.529276 0.623006 0.814086 -0.200833
C18   C     C_R   0.469223 0.376985 0.185912 -0.219753
C19   C     C_R   0.500566 0.499815 0.768093 -0.050021
C20   C     C_R   0.497920 0.500236 0.231871 -0.057431
C21   C     C_R   0.471807 0.376961 0.814465 -0.201889
C22   C     C_R   0.525536 0.623346 0.185418 -0.184445
C23   C     C_R   0.470341 0.376622 0.906791 0.099385
C24   C     C_R   0.527150 0.623607 0.093127 0.097058
C25   C     C_R   0.499476 0.500536 0.953423 0.053351
C26   C     C_R   0.498304 0.499605 0.046518 0.053553
C27   C     C_R   0.529690 0.625168 0.906947 0.057376
C28   C     C_R   0.468266 0.374945 0.093023 0.057644
C29   C     C_R   0.439451 0.254057 0.952827 -0.206568
C30   C     C_R   0.557895 0.746232 0.047120 -0.209051
Cu1   Cu    Cu3+1 0.500000 0.640660 0.500000 1.046084
Cu2   Cu    Cu3+1 0.500000 0.359340 0.500000 1.057360
H1    H     H_    0.552065 0.716835 0.777038 0.155975
H2    H     H_    0.446831 0.283065 0.223000 0.166289
H3    H     H_    0.449167 0.281765 0.778695 0.157608
H4    H     H_    0.547060 0.718926 0.221067 0.149647
H5    H     H_    0.415814 0.159664 0.916501 0.164074
H6    H     H_    0.581324 0.840684 0.083460 0.160706
H7    H     H_    0.429588 0.129619 0.369153 0.154537
H8    H     H_    0.573069 0.870049 0.630103 0.129033
H9    H     H_    0.571125 0.128790 0.630636 0.135416
H10   H     H_    0.428266 0.871048 0.369519 0.137242
N1    N     N_R   0.500000 0.852070 0.500000 -0.172536
N2    N     N_R   0.500000 0.147930 0.500000 -0.173352
O1    O     O_R   0.319640 0.618740 0.499990 -0.527086
O2    O     O_R   0.680360 0.381260 0.500010 -0.531236
O3    O     O_R   0.680360 0.618740 0.500010 -0.530751
O4    O     O_R   0.319640 0.381260 0.499990 -0.519243
O5    O     O_R   0.499970 0.618800 0.370260 -0.596418
O6    O     O_R   0.500030 0.381200 0.629740 -0.596768
O7    O     O_R   0.500030 0.618800 0.629740 -0.604492
O8    O     O_R   0.499970 0.381200 0.370260 -0.602002
C31   C     C_1   0.404449 0.122787 0.089379 0.240837
N3    N     N_1   0.377199 0.019533 0.124707 -0.274619
C32   C     C_1   0.593139 0.877493 0.910618 0.241798
N4    N     N_1   0.620315 0.980805 0.875323 -0.291831
S1    S     S_3+6 0.118788 0.210677 0.461129 0.119299
O9    O     O_2   0.194126 0.140487 0.531935 -0.196589
O10   O     O_2   0.016113 0.114968 0.434571 -0.138400
O11   O     O_3   0.206269 0.239423 0.371165 -0.540704
H11   H     H_    0.153772 0.294445 0.330263 0.334798
S2    S     S_3+6 0.873663 0.754251 0.405207 0.085952
O12   O     O_2   0.804643 0.860881 0.458993 -0.202260
O13   O     O_2   0.974160 0.826525 0.354864 -0.205602
O14   O     O_3   0.777879 0.679764 0.331817 -0.562819
H12   H     H_    0.747484 0.758684 0.294997 0.360080
S3    S     S_3+6 0.875958 0.247103 0.596151 0.083963
O15   O     O_2   0.809591 0.138957 0.542175 -0.210482
O16   O     O_2   0.977519 0.177000 0.647038 -0.210659
O17   O     O_3   0.778256 0.320841 0.668743 -0.564379
H13   H     H_    0.753352 0.243399 0.708718 0.365359
S4    S     S_3+6 0.118939 0.792159 0.536710 0.125134
O18   O     O_2   0.189367 0.860162 0.462735 -0.220109
O19   O     O_2   0.016190 0.887263 0.564700 -0.139443
O20   O     O_3   0.211208 0.767211 0.624822 -0.528770
H14   H     H_    0.254724 0.857509 0.632539 0.372190

loop_
_geom_bond_atom_site_label_1
_geom_bond_atom_site_label_2
_ccdc_geom_bond_type
C32   N4    T    
C16   O7    A    
C6    C9    A    
C13   H9    S    
C31   N3    T    
C2    O2    A    
Cu1   N1    S    
C23   C29   A    
C3    C28   A    
C19   C21   A    
C16   O6    A    
C12   N1    A    
C11   C14   A    
S1    O10   D    
C30   H6    S    
C3    C29   A    
Cu2   O8    S    
S2    O13   D    
O17   H13   S    
C14   H10   S    
C23   C25   A    
Cu1   O3    S    
Cu2   O4    S    
C17   H1    S    
Cu1   O5    S    
S4    O20   S    
C15   C20   S    
C8    S4    S    
S3    O15   D    
C17   C27   A    
C18   C28   A    
S4    O19   D    
Cu1   O7    S    
C5    C7    A    
S1    O11   S    
C6    C8    A    
C25   C26   A    
O11   H11   S    
S3    O16   D    
C12   H8    S    
O20   H14   S    
S2    O12   D    
Cu1   Cu2   S    
Cu2   N2    S    
C11   N2    A    
C15   O8    A    
C11   H7    S    
C18   H2    S    
Cu2   O6    S    
C20   C22   A    
C21   C23   A    
C4    C32   S    
C22   C24   A    
C4    C27   A    
C7    C9    A    
S2    O14   S    
Cu2   O2    S    
C1    C10   S    
C24   C26   A    
S4    O18   D    
C1    O4    A    
C21   H3    S    
C2    O3    A    
C25   C27   A    
C22   H4    S    
C26   C28   A    
C5    S1    S    
S3    O17   S    
C6    S2    S    
C5    C10   A    
C3    C31   S    
C1    O1    A    
S1    O9    D    
C16   C19   S    
C17   C19   A    
C18   C20   A    
C15   O5    A    
C24   C30   A    
C7    S3    S    
C12   C13   A    
C8    C10   A    
O14   H12   S    
Cu1   O1    S    
C29   H5    S    
C2    C9    S    
C13   N2    A    
C4    C30   A    
C14   N1    A    
