data_mof_unit_47992.cif
_audit_creation_date              2012-10-26T17:10:23-0400
_audit_creation_method            fapswitch 2.2
_symmetry_space_group_name_H-M    P1
_symmetry_Int_Tables_number       1
_space_group_crystal_system       triclinic
_cell_length_a                    16.866866
_cell_length_b                    16.926206
_cell_length_c                    16.909454
_cell_angle_alpha                 68.349387
_cell_angle_beta                  68.096252
_cell_angle_gamma                 67.948966
_cell_volume                      4001.62660319

loop_
_atom_site_label
_atom_site_type_symbol
_atom_type_description
_atom_site_fract_x
_atom_site_fract_y
_atom_site_fract_z
_atom_type_partial_charge
C1    C     C_R   0.612672 0.970436 0.610185 0.000733
C2    C     C_R   0.407614 0.951056 0.409706 -0.068546
C3    C     C_R   0.981936 0.611167 0.606014 -0.032516
C4    C     C_R   0.940009 0.416880 0.414134 0.010307
C5    C     C_R   0.614622 0.607868 0.984343 -0.073012
C6    C     C_R   0.413433 0.411696 0.952393 -0.007074
C7    C     C_R   0.023025 0.829634 0.566458 0.826666
C8    C     C_R   0.973003 0.171325 0.434694 0.850278
C9    C     C_R   0.828909 0.564961 0.028069 0.853083
C10   C     C_R   0.170694 0.432752 0.977558 0.846832
C11   C     C_R   0.567721 0.018958 0.830384 0.816055
C12   C     C_R   0.431769 0.979217 0.169982 0.847138
C13   C     C_R   0.435082 0.171104 0.972062 0.816021
C14   C     C_R   0.569809 0.831745 0.015750 0.862259
C15   C     C_R   0.978723 0.432728 0.170448 0.826183
C16   C     C_R   0.018942 0.567852 0.830478 0.831122
C17   C     C_R   0.171276 0.967148 0.436799 0.839897
C18   C     C_R   0.831574 0.015869 0.569081 0.836489
C19   C     C_R   0.561852 0.960755 0.557896 0.174754
C20   C     C_R   0.460445 0.951184 0.462477 0.066325
C21   C     C_R   0.941319 0.576229 0.562999 0.123476
C22   C     C_R   0.916952 0.481528 0.470200 0.122922
C23   C     C_R   0.567309 0.563956 0.961009 0.077842
C24   C     C_R   0.469691 0.472585 0.937998 0.119098
C25   C     C_R   0.597990 0.901968 0.503368 -0.111667
C26   C     C_R   0.422434 0.005942 0.519171 -0.169185
C27   C     C_R   0.900817 0.506729 0.609364 -0.126285
C28   C     C_R   0.918341 0.570790 0.431169 -0.105378
C29   C     C_R   0.475083 0.595039 0.976637 -0.114974
C30   C     C_R   0.564242 0.451447 0.905717 -0.077731
C31   C     C_R   0.549418 0.901482 0.452126 -0.108218
C32   C     C_R   0.473926 0.014960 0.561256 -0.103155
C33   C     C_R   0.429215 0.555483 0.956393 -0.184943
C34   C     C_R   0.612464 0.495070 0.919487 -0.203320
C35   C     C_R   0.889081 0.459846 0.563729 -0.192175
C36   C     C_R   0.933232 0.616737 0.475961 -0.178640
C37   C     C_R   0.567973 0.985162 0.695476 -0.144208
C38   C     C_R   0.433211 0.982970 0.317096 -0.102584
C39   C     C_R   0.014353 0.686472 0.559278 -0.113122
C40   C     C_R   0.941813 0.325335 0.452247 -0.083880
C41   C     C_R   0.681865 0.558508 0.028473 -0.117023
C42   C     C_R   0.318260 0.439447 0.978861 -0.084472
C43   C     C_R   0.326703 0.928231 0.452179 -0.105534
C44   C     C_R   0.702425 0.972736 0.573601 -0.106955
C45   C     C_R   0.452162 0.320994 0.952871 -0.103927
C46   C     C_R   0.587321 0.700792 0.968497 -0.125041
C47   C     C_R   0.969729 0.444025 0.320068 -0.111572
C48   C     C_R   0.996123 0.566022 0.691130 -0.115869
C49   C     C_R   0.609182 0.012467 0.738074 -0.225278
C50   C     C_R   0.390656 0.970576 0.266282 -0.228962
C51   C     C_R   0.022421 0.735451 0.606864 -0.200815
C52   C     C_R   0.957317 0.269872 0.398587 -0.193186
C53   C     C_R   0.732451 0.604166 0.036591 -0.135022
C54   C     C_R   0.268367 0.394745 0.966997 -0.213860
C55   C     C_R   0.269447 0.946578 0.400289 -0.169898
C56   C     C_R   0.740916 0.005925 0.612642 -0.221260
C57   C     C_R   0.399839 0.269061 0.956364 -0.219112
C58   C     C_R   0.615514 0.740147 0.010159 -0.205749
C59   C     C_R   0.968187 0.395092 0.267866 -0.217123
C60   C     C_R   0.014235 0.609576 0.737375 -0.216487
C61   C     C_R   0.694763 0.025330 0.695179 0.430628
C62   C     C_R   0.306996 0.951886 0.308780 0.411357
C63   C     C_R   0.022442 0.696735 0.696535 0.418324
C64   C     C_R   0.961439 0.307722 0.308040 0.444002
C65   C     C_R   0.693975 0.693477 0.038180 0.403316
C66   C     C_R   0.311031 0.309885 0.951342 0.421183
Cu1   Cu    Cu3+1 0.995180 0.995180 0.424630 1.037138
Cu2   Cu    Cu3+1 0.004820 0.004820 0.575370 1.017761
Cu3   Cu    Cu3+1 0.995180 0.424630 0.995180 0.985858
Cu4   Cu    Cu3+1 0.004820 0.575370 0.004820 1.000195
Cu5   Cu    Cu3+1 0.424630 0.995180 0.995180 0.990777
Cu6   Cu    Cu3+1 0.575370 0.004820 0.004820 0.991040
H1    H     H_    0.443988 0.064837 0.597408 0.119725
H2    H     H_    0.581262 0.862582 0.404290 0.169781
H3    H     H_    0.936716 0.683494 0.441891 0.176661
H4    H     H_    0.855341 0.409443 0.603825 0.164171
H5    H     H_    0.684639 0.473599 0.899710 0.127452
H6    H     H_    0.362316 0.592438 0.954997 0.205339
H7    H     H_    0.353879 0.045121 0.527041 0.153764
H8    H     H_    0.663551 0.857035 0.497565 0.127344
H9    H     H_    0.602403 0.402202 0.869425 0.118271
H10   H     H_    0.437208 0.650942 0.004067 0.196937
H11   H     H_    0.907767 0.606664 0.366889 0.115807
H12   H     H_    0.877040 0.488050 0.680589 0.102788
O1    O     O_R   0.124540 0.978640 0.385460 -0.596235
O2    O     O_R   0.875460 0.021360 0.614540 -0.571556
O3    O     O_R   0.978640 0.385460 0.124540 -0.538590
O4    O     O_R   0.021360 0.614540 0.875460 -0.552162
O5    O     O_R   0.385460 0.124540 0.978640 -0.581917
O6    O     O_R   0.614540 0.875460 0.021360 -0.590199
O7    O     O_R   0.614540 0.021360 0.875460 -0.581941
O8    O     O_R   0.385460 0.978640 0.124540 -0.582373
O9    O     O_R   0.875460 0.614540 0.021360 -0.603518
O10   O     O_R   0.124540 0.385460 0.978640 -0.587407
O11   O     O_R   0.021360 0.875460 0.614540 -0.565739
O12   O     O_R   0.978640 0.124540 0.385460 -0.559573
O13   O     O_R   0.013780 0.867370 0.487190 -0.544757
O14   O     O_R   0.986220 0.132630 0.512810 -0.568249
O15   O     O_R   0.867370 0.487190 0.013780 -0.562418
O16   O     O_R   0.132630 0.512810 0.986220 -0.518536
O17   O     O_R   0.487190 0.013780 0.867370 -0.606392
O18   O     O_R   0.512810 0.986220 0.132630 -0.537188
O19   O     O_R   0.512810 0.132630 0.986220 -0.590941
O20   O     O_R   0.487190 0.867370 0.013780 -0.525944
O21   O     O_R   0.986220 0.512810 0.132630 -0.613039
O22   O     O_R   0.013780 0.487190 0.867370 -0.612074
O23   O     O_R   0.132630 0.986220 0.512810 -0.535601
O24   O     O_R   0.867370 0.013780 0.487190 -0.563175
C67   C     C_2   0.479306 0.967778 0.740840 0.428177
H13   H     H_    0.422169 0.018514 0.765381 0.103756
O25   O     O_2   0.467944 0.898948 0.745751 -0.521915
C68   C     C_2   0.493739 0.040328 0.276433 0.450257
H14   H     H_    0.466205 0.109855 0.275840 0.063548
O26   O     O_2   0.573582 0.010030 0.247402 -0.490268
C69   C     C_2   0.071085 0.690204 0.466751 0.402929
H15   H     H_    0.123661 0.631405 0.453228 0.106914
O27   O     O_2   0.056518 0.754822 0.404690 -0.513657
C70   C     C_2   0.934944 0.284837 0.547410 0.385651
H16   H     H_    0.983853 0.285260 0.574880 0.082706
O28   O     O_2   0.872689 0.254599 0.596339 -0.513243
C71   C     C_2   0.689611 0.463505 0.077466 0.428428
H17   H     H_    0.651824 0.427672 0.071154 0.101295
O29   O     O_2   0.732818 0.425427 0.131448 -0.496845
C72   C     C_2   0.273509 0.492032 0.045362 0.354764
H18   H     H_    0.289788 0.465383 0.108154 0.100482
O30   O     O_2   0.224381 0.567224 0.028660 -0.504224
C73   C     C_2   0.312416 0.873849 0.545936 0.413937
H19   H     H_    0.369864 0.825088 0.567935 0.087116
O31   O     O_2   0.239211 0.881754 0.600050 -0.495483
C74   C     C_2   0.759191 0.933808 0.498758 0.410201
H20   H     H_    0.808920 0.870127 0.510840 0.044007
O32   O     O_2   0.753464 0.973877 0.423253 -0.486167
C75   C     C_2   0.544489 0.277450 0.960204 0.410057
H21   H     H_    0.595145 0.248438 0.908348 0.084319
O33   O     O_2   0.563962 0.272299 0.025135 -0.523122
C76   C     C_2   0.539565 0.755756 0.899762 0.385979
H22   H     H_    0.573774 0.755208 0.831339 0.094415
O34   O     O_2   0.461417 0.797355 0.919003 -0.480458
C77   C     C_2   0.018906 0.512168 0.276238 0.400179
H23   H     H_    0.991159 0.575723 0.234522 0.100434
O35   O     O_2   0.089627 0.499020 0.290039 -0.522177
C78   C     C_2   0.007203 0.469141 0.724044 0.438767
H24   H     H_    0.959861 0.442354 0.782979 0.062149
O36   O     O_2   0.069106 0.418967 0.684361 -0.515672
O37   O     O_3   0.728463 0.067897 0.728539 -0.529282
C79   C     C_3   0.784593 0.005660 0.784621 -0.127807
H25   H     H_    0.851500 0.017134 0.760396 0.164870
H26   H     H_    0.791293 0.934235 0.794210 0.066708
H27   H     H_    0.760845 0.020239 0.849829 0.159237
O38   O     O_3   0.271981 0.918516 0.268362 -0.535098
C80   C     C_3   0.216201 0.986152 0.216645 -0.133657
H28   H     H_    0.211040 0.054937 0.213952 0.074795
H29   H     H_    0.148992 0.975888 0.241128 0.176231
H30   H     H_    0.239361 0.978488 0.148652 0.168316
O39   O     O_3   0.047850 0.736985 0.738414 -0.518106
C81   C     C_3   0.972206 0.791569 0.786265 -0.166257
H31   H     H_    0.907947 0.801623 0.773644 0.067985
H32   H     H_    0.983791 0.857049 0.769260 0.175702
H33   H     H_    0.965750 0.766077 0.858496 0.160280
O40   O     O_3   0.955689 0.259806 0.259347 -0.511055
C82   C     C_3   0.042162 0.212840 0.216601 -0.202724
H34   H     H_    0.044744 0.142283 0.232801 0.171666
H35   H     H_    0.098387 0.216947 0.233696 0.079665
H36   H     H_    0.053388 0.234847 0.143694 0.161128
O41   O     O_3   0.724392 0.728487 0.081026 -0.544144
C83   C     C_3   0.782036 0.781635 0.020252 -0.155927
H37   H     H_    0.792485 0.787989 0.949144 0.081274
H38   H     H_    0.847107 0.755355 0.035427 0.167967
H39   H     H_    0.756958 0.848185 0.031669 0.175934
O42   O     O_3   0.270397 0.271807 0.920443 -0.536931
C84   C     C_3   0.217090 0.217768 0.990801 -0.140345
H40   H     H_    0.147977 0.240125 0.984941 0.161453
H41   H     H_    0.216280 0.213584 0.059014 0.080366
H42   H     H_    0.238443 0.150438 0.981221 0.160710

loop_
_geom_bond_atom_site_label_1
_geom_bond_atom_site_label_2
_ccdc_geom_bond_type
C25   C31   A    
C40   C70   S    
C84   H40   S    
C26   C32   A    
O41   C83   S    
C56   C61   A    
C6    C45   A    
C29   C33   A    
C25   H8    S    
Cu2   O2    S    
C39   C51   A    
C8    O12   A    
C7    O13   A    
C57   C66   A    
Cu5   O20   S    
Cu4   O4    S    
C68   O26   D    
O37   C79   S    
C42   C72   S    
C21   C36   A    
C22   C35   A    
C84   H41   S    
C45   C57   A    
C59   C64   A    
C18   O2    A    
C20   C26   A    
C60   C63   A    
C17   O1    A    
C23   C29   A    
C15   O3    A    
C27   H12   S    
C79   H25   S    
C67   O25   D    
C34   H5    S    
C33   H6    S    
C13   C57   S    
O42   C84   S    
C10   O10   A    
C44   C74   S    
C69   H15   S    
C55   C62   A    
C65   O41   S    
C3    C48   A    
C4    C22   S    
Cu2   O14   S    
C16   C60   S    
C80   H30   S    
C41   C71   S    
C8    O14   A    
C70   H16   S    
C14   O6    A    
C61   O37   S    
C1    C44   A    
Cu5   O8    S    
C4    C40   A    
C69   O27   D    
C5    C23   S    
C80   H28   S    
Cu2   O23   S    
C13   O19   A    
C53   C65   A    
C8    C52   S    
C79   H26   S    
Cu3   O3    S    
C1    C37   A    
Cu5   O17   S    
C3    C39   A    
C9    O15   A    
C22   C28   A    
C46   C58   A    
C28   H11   S    
C83   H38   S    
C83   H37   S    
C15   C59   S    
C10   C54   S    
C19   C32   A    
C68   H14   S    
C82   H35   S    
Cu4   O16   S    
C48   C60   A    
C70   O28   D    
C14   C58   S    
C84   H42   S    
C16   O4    A    
C35   H4    S    
Cu1   O1    S    
Cu2   O11   S    
C49   C61   A    
C30   C34   A    
C2    C20   S    
Cu1   Cu2   S    
Cu4   O9    S    
C51   C63   A    
C63   O39   S    
C76   O34   D    
Cu3   O10   S    
C52   C64   A    
C43   C73   S    
C32   H1    S    
Cu6   O7    S    
C31   H2    S    
C27   C35   A    
C40   C52   A    
C1    C19   S    
C47   C59   A    
C74   O32   D    
C73   O31   D    
C12   O18   A    
C11   C49   S    
C36   H3    S    
C79   H27   S    
C37   C49   A    
C44   C56   A    
C58   C65   A    
C14   O20   A    
Cu5   O5    S    
C2    C43   A    
Cu3   O22   S    
C23   C34   A    
C6    C24   S    
C64   O40   S    
C48   C78   S    
C11   O17   A    
C10   O16   A    
C18   C56   S    
C41   C53   A    
C71   H17   S    
C54   C66   A    
Cu3   O15   S    
C43   C55   A    
C39   C69   S    
Cu1   O12   S    
C50   C62   A    
C78   O36   D    
C3    C21   S    
C24   C30   A    
C9    C53   S    
Cu1   O24   S    
C38   C68   S    
C73   H19   S    
C9    O9    A    
C82   H36   S    
C72   O30   D    
Cu6   O6    S    
C5    C41   A    
C81   H31   S    
C62   O38   S    
C13   O5    A    
O38   C80   S    
C37   C67   S    
C66   O42   S    
C81   H33   S    
C26   H7    S    
C76   H22   S    
Cu4   O21   S    
C12   C50   S    
C77   H23   S    
C38   C50   A    
Cu6   O19   S    
C16   O22   A    
C7    O11   A    
C5    C46   A    
C45   C75   S    
C24   C33   A    
C2    C38   A    
C15   O21   A    
C30   H9    S    
C17   O23   A    
C74   H20   S    
C7    C51   S    
Cu5   Cu6   S    
C82   H34   S    
C67   H13   S    
O40   C82   S    
C77   O35   D    
C75   H21   S    
Cu6   O18   S    
C17   C55   S    
C81   H32   S    
C80   H29   S    
C21   C27   A    
Cu3   Cu4   S    
C19   C25   A    
C18   O24   A    
C71   O29   D    
Cu1   O13   S    
C46   C76   S    
C11   O7    A    
C29   H10   S    
C12   O8    A    
C28   C36   A    
C83   H39   S    
C6    C42   A    
C47   C77   S    
O39   C81   S    
C75   O33   D    
C78   H24   S    
C20   C31   A    
C42   C54   A    
C72   H18   S    
C4    C47   A    
