data_mof_unit_47712.cif
_audit_creation_date              2013-03-05T16:34:33-0500
_audit_creation_method            fapswitch 2.2
_symmetry_space_group_name_H-M    P1
_symmetry_Int_Tables_number       1
_space_group_crystal_system       triclinic
_cell_length_a                    13.093743
_cell_length_b                    9.096135
_cell_length_c                    7.781558
_cell_angle_alpha                 89.99699
_cell_angle_beta                  94.820951
_cell_angle_gamma                 89.981553
_cell_volume                      923.523755425

loop_
_atom_site_label
_atom_site_type_symbol
_atom_site_description
_atom_site_fract_x
_atom_site_fract_y
_atom_site_fract_z
_atom_type_partial_charge
O1    O     O_R   0.500000 0.288400 0.642760 -0.577228
O2    O     O_R   0.500000 0.711600 0.357240 -0.577117
O3    O     O_R   0.500000 0.288400 0.357240 -0.577841
O4    O     O_R   0.500000 0.711600 0.642760 -0.577719
N1    N     N_1   0.499980 0.500000 0.076820 -0.052865
N2    N     N_1   0.500020 0.500000 0.923180 -0.052891
C1    C     C_R   0.499967 0.220016 0.499997 0.847938
C2    C     C_R   0.500032 0.779984 0.500003 0.848236
O5    O     O_R   0.349000 0.500000 0.619590 -0.586622
O6    O     O_R   0.651000 0.500000 0.380410 -0.586473
O7    O     O_R   0.348990 0.500000 0.334020 -0.586068
O8    O     O_R   0.651010 0.500000 0.665980 -0.586072
C3    C     C_R   0.300464 0.508682 0.471003 0.818586
C4    C     C_R   0.699506 0.491083 0.529002 0.818685
Cu1   Cu    Cu3+1 0.500010 0.500000 0.669080 1.000261
Cu2   Cu    Cu3+1 0.499990 0.500000 0.330920 1.000306
C5    C     C_R   0.811434 0.476753 0.540584 -0.082085
C6    C     C_R   0.188488 0.522506 0.459425 -0.082111
C7    C     C_R   0.030901 0.563548 0.281956 0.004269
C8    C     C_R   0.968991 0.435162 0.717907 0.004351
C9    C     C_R   0.136974 0.554945 0.299647 -0.255339
C10   C     C_R   0.862919 0.444011 0.700283 -0.255166
C11   C     C_R   0.132422 0.511873 0.606985 0.102020
C12   C     C_R   0.867477 0.487118 0.393017 0.102151
C13   C     C_R   0.025814 0.486468 0.582782 0.061514
C14   C     C_R   0.974097 0.512388 0.417165 0.061286
H1    H     H_    0.820010 0.416576 0.809183 0.170177
H2    H     H_    0.179857 0.582361 0.190694 0.170161
C15   C     C_1   0.499991 0.065366 0.500001 -0.169507
C16   C     C_1   0.500009 0.934634 0.499999 -0.169571
C17   C     C_3   0.818393 0.444331 0.216191 -0.773324
H3    H     H_    0.875729 0.402417 0.131526 0.221701
H4    H     H_    0.765343 0.350139 0.226608 0.235171
H5    H     H_    0.777088 0.539288 0.153326 0.251554
C18   C     C_3   0.181529 0.554186 0.783974 -0.772684
H6    H     H_    0.124222 0.595061 0.869375 0.221490
H7    H     H_    0.223357 0.459235 0.845974 0.251535
H8    H     H_    0.234127 0.648986 0.773872 0.235112
C19   C     C_1   0.984082 0.640014 0.132365 0.229239
N3    N     N_1   0.946754 0.702135 0.013325 -0.282136
C20   C     C_1   0.015767 0.358382 0.867318 0.229225
N4    N     N_1   0.053074 0.296049 0.986223 -0.282151

loop_
_geom_bond_atom_site_label_1
_geom_bond_atom_site_label_2
_geom_bond_distance
_ccdc_geom_bond_type
C17   H4    1.110409 S    
C15   C16   1.189163 T    
O1    Cu1   1.935619 S    
C6    C9    1.395262 A    
O2    Cu2   1.935618 S    
O7    Cu2   1.979328 S    
O3    C1    1.273172 A    
C5    C10   1.395167 A    
O8    Cu1   1.979328 S    
O4    C2    1.273172 A    
C2    C16   1.406716 S    
O4    Cu1   1.935596 S    
C8    C20   1.447272 S    
O5    Cu1   1.982417 S    
C17   H5    1.110423 S    
C13   C14   1.424156 A    
O6    Cu2   1.982417 S    
O7    C3    1.288411 A    
C4    C5    1.466511 S    
C7    C19   1.447175 S    
C3    C6    1.466738 S    
C1    C15   1.406714 S    
Cu1   Cu2   2.631391 S    
C18   H7    1.110817 S    
C9    H2    1.084600 S    
O8    C4    1.288283 A    
C11   C18   1.519790 S    
C10   H1    1.084503 S    
C11   C13   1.411892 A    
O6    C4    1.274152 A    
N1    N2    1.195603 T    
C12   C14   1.411813 A    
C12   C17   1.519682 S    
C5    C12   1.416912 A    
C8    C13   1.417272 A    
C6    C11   1.417199 A    
C18   H8    1.110651 S    
C20   N4    1.157590 T    
C19   N3    1.157541 T    
C7    C14   1.417201 A    
O5    C3    1.274144 A    
N1    Cu2   1.977282 S    
C7    C9    1.386326 A    
N2    Cu1   1.977282 S    
O1    C1    1.273204 A    
O2    C2    1.273203 A    
O3    Cu2   1.935597 S    
C17   H3    1.107247 S    
C8    C10   1.386427 A    
C18   H6    1.107518 S    
