data_mof_unit_58872.cif
_audit_creation_date              2012-12-10T16:56:32-0500
_audit_creation_method            fapswitch 2.2
_symmetry_space_group_name_H-M    P1
_symmetry_Int_Tables_number       1
_space_group_crystal_system       triclinic
_cell_length_a                    7.858807
_cell_length_b                    8.624608
_cell_length_c                    15.703744
_cell_angle_alpha                 92.307852
_cell_angle_beta                  87.048249
_cell_angle_gamma                 93.013867
_cell_volume                      1060.75051757

loop_
_atom_site_label
_atom_site_type_symbol
_atom_type_description
_atom_site_fract_x
_atom_site_fract_y
_atom_site_fract_z
_atom_type_partial_charge
C1    C     C_R   0.545372 0.793644 0.503907 0.866288
C2    C     C_3   0.425200 0.347299 0.025778 -0.408690
C3    C     C_1   0.513246 0.494905 0.750198 -0.217319
C4    C     C_1   0.484384 0.495306 0.249633 -0.203048
C5    C     C_3   0.344219 0.462162 0.967797 -0.067754
C6    C     C_3   0.651085 0.509664 0.032057 -0.053946
C7    C     C_3   0.516257 0.484174 0.916364 0.006143
C8    C     C_3   0.479424 0.488616 0.083073 0.022035
C9    C     C_1   0.520054 0.489351 0.825183 -0.048905
C10   C     C_1   0.475637 0.492061 0.174483 -0.010322
C11   C     C_3   0.331322 0.859272 0.029084 -0.395160
C12   C     C_R   0.456728 0.206791 0.507149 0.840373
C13   C     C_3   0.620988 0.137952 0.897142 -0.379704
C14   C     C_R   0.810156 0.543272 0.080305 0.158782
C15   C     C_R   0.913930 0.423079 0.099478 -0.130734
C16   C     C_R   0.040801 0.450199 0.158179 -0.182921
C17   C     C_R   0.062550 0.596245 0.199302 -0.003527
C18   C     C_R   0.962161 0.717116 0.179302 -0.068337
C19   C     C_R   0.836866 0.691081 0.119803 -0.162722
C20   C     C_R   0.184503 0.428712 0.920114 0.171026
C21   C     C_R   0.156139 0.280932 0.880915 -0.153496
C22   C     C_R   0.027872 0.254872 0.823058 -0.095903
C23   C     C_R   0.503813 0.499957 0.661668 0.833530
C24   C     C_R   0.927009 0.375831 0.803916 -0.031119
C25   C     C_R   0.950519 0.521854 0.844764 -0.162862
C26   C     C_R   0.079473 0.548737 0.902272 -0.139869
C27   C     C_3   0.818410 0.040399 0.574147 -0.161533
C28   C     C_3   0.272681 0.038132 0.649385 -0.411068
C29   C     C_3   0.943124 0.297460 0.362641 -0.099961
C30   C     C_3   0.046701 0.675013 0.645918 -0.140548
C31   C     C_R   0.495909 0.499010 0.338323 0.876904
C32   C     C_2   0.573579 0.956619 0.512482 0.153790
C33   C     C_2   0.438677 0.047263 0.527198 0.227100
C34   C     C_3   0.399120 0.601480 0.025962 0.600934
C35   C     C_3   0.595936 0.370593 0.973499 0.603394
C36   C     C_3   0.570992 0.625031 0.974445 -0.423209
H1    H     H_    0.633883 0.734663 0.951049 0.153760
H2    H     H_    0.118974 0.356644 0.173664 0.128561
H3    H     H_    0.157339 0.616267 0.246529 0.143919
H4    H     H_    0.979698 0.830305 0.210861 0.122757
H5    H     H_    0.755363 0.784269 0.107512 0.127400
H6    H     H_    0.237144 0.187300 0.892713 0.105132
H7    H     H_    0.007308 0.141288 0.792565 0.090550
H8    H     H_    0.830241 0.355717 0.757694 0.123971
H9    H     H_    0.871648 0.615483 0.830247 0.125289
H10   H     H_    0.099969 0.664143 0.930253 0.161717
H11   H     H_    0.950211 0.088692 0.561096 0.245604
H12   H     H_    0.364206 0.237122 0.049364 0.152287
H13   H     H_    0.825742 0.930236 0.607654 0.158463
H14   H     H_    0.750949 0.126264 0.616626 0.106788
H15   H     H_    0.283373 0.166691 0.659226 0.182172
H16   H     H_    0.371495 0.983570 0.684888 0.139715
H17   H     H_    0.146104 0.999338 0.677203 0.170509
H18   H     H_    0.927600 0.399609 0.323732 0.144020
H19   H     H_    0.819305 0.235967 0.378192 0.208375
H20   H     H_    0.021039 0.215551 0.323111 0.124455
H21   H     H_    0.174742 0.732733 0.637185 0.217496
H22   H     H_    0.053583 0.562491 0.677022 0.152446
H23   H     H_    0.234010 0.941062 0.053140 0.195079
H24   H     H_    0.968078 0.750284 0.689196 0.091201
H25   H     H_    0.332794 0.856524 0.958140 0.150220
H26   H     H_    0.456475 0.903886 0.052522 0.179839
H27   H     H_    0.507990 0.086433 0.932665 0.150547
H28   H     H_    0.708434 0.043113 0.880965 0.183285
H29   H     H_    0.583329 0.184014 0.836233 0.165526
H30   H     H_    0.893237 0.307192 0.071934 0.175231
N1    N     N_2   0.950320 0.457950 0.477300 0.183374
N2    N     N_2   0.049680 0.542050 0.522700 0.194105
O1    O     O_R   0.389250 0.738570 0.505570 -0.592063
O2    O     O_3   0.707540 0.253282 0.946873 -0.606755
O3    O     O_3   0.739561 0.014797 0.495682 -0.592058
O4    O     O_3   0.282852 0.991188 0.562030 -0.574526
O5    O     O_3   0.030141 0.340132 0.436220 -0.519602
O6    O     O_3   0.969134 0.654496 0.567865 -0.509226
O7    O     O_R   0.610750 0.261430 0.494430 -0.618170
O8    O     O_R   0.678390 0.711630 0.491020 -0.544461
O9    O     O_R   0.321610 0.288370 0.508980 -0.552364
O10   O     O_R   0.355460 0.513480 0.630490 -0.662009
O11   O     O_R   0.644540 0.486520 0.369510 -0.648021
O12   O     O_R   0.644600 0.486540 0.615950 -0.608465
O13   O     O_R   0.355400 0.513460 0.384050 -0.596670
O14   O     O_3   0.286342 0.711972 0.060864 -0.602495
Zn1   Zn    Zn3+2 0.306940 0.517990 0.509710 1.038272
Zn2   Zn    Zn3+2 0.693060 0.482010 0.490290 1.027179

loop_
_geom_bond_atom_site_label_1
_geom_bond_atom_site_label_2
_ccdc_geom_bond_type
C2    C35   S    
C7    C36   S    
C3    C23   S    
O12   Zn2   S    
C11   H26   S    
O8    Zn2   S    
C5    C20   S    
C13   H29   S    
C3    C9    T    
C36   H1    S    
O11   Zn2   S    
C30   O6    S    
C28   H15   S    
O7    Zn2   S    
C29   O5    S    
C13   O2    S    
O9    Zn1   S    
N2    O6    S    
C15   C16   A    
C30   H21   S    
C6    C35   S    
C18   C19   A    
C17   H3    S    
C18   H4    S    
C33   O4    S    
O10   Zn1   S    
C35   O2    S    
C16   C17   A    
C30   H24   S    
N1    O5    S    
C23   O12   A    
C27   H14   S    
N1    Zn2   S    
C21   C22   A    
C12   O9    A    
C1    O8    A    
C28   O4    S    
C11   H23   S    
O13   Zn1   S    
C32   O3    S    
C11   O14   S    
N1    N2    D    
C24   C25   A    
C5    C7    S    
C6    C8    S    
C29   H19   S    
C2    H12   S    
C25   C26   A    
C15   H30   S    
C1    C32   S    
C1    O1    A    
O1    Zn1   S    
C6    C14   S    
C22   H7    S    
C13   H27   S    
C5    C34   S    
C17   C18   A    
C8    C34   S    
C24   H8    S    
C22   C24   A    
C2    C5    S    
C4    C10   T    
C25   H9    S    
C27   O3    S    
C27   H11   S    
C7    C9    S    
N2    Zn1   S    
C7    C35   S    
C14   C19   A    
C2    C8    S    
C11   H25   S    
C28   H17   S    
C31   O11   A    
C29   H20   S    
C31   O13   A    
C32   C33   D    
C28   H16   S    
C13   H28   S    
C20   C26   A    
C30   H22   S    
C6    C36   S    
C34   C36   S    
C23   O10   A    
C4    C31   S    
C26   H10   S    
C21   H6    S    
C19   H5    S    
C20   C21   A    
C8    C10   S    
C29   H18   S    
C12   O7    A    
C14   C15   A    
C34   O14   S    
C12   C33   S    
C27   H13   S    
C16   H2    S    
