data_mof_unit_21080.cif
_audit_creation_date              2013-03-05T15:59:47-0500
_audit_creation_method            fapswitch 2.2
_symmetry_space_group_name_H-M    P1
_symmetry_Int_Tables_number       1
_space_group_crystal_system       triclinic
_cell_length_a                    12.63083
_cell_length_b                    13.233587
_cell_length_c                    16.664192
_cell_angle_alpha                 91.251107
_cell_angle_beta                  97.249146
_cell_angle_gamma                 96.644538
_cell_volume                      2742.73810374

loop_
_atom_site_label
_atom_site_type_symbol
_atom_site_description
_atom_site_fract_x
_atom_site_fract_y
_atom_site_fract_z
_atom_type_partial_charge
O1    O     O_R   0.631480 0.627510 0.519670 -0.605841
O2    O     O_R   0.455770 0.662400 0.493360 -0.584648
C1    C     C_R   0.559232 0.690898 0.511081 0.905660
O3    O     O_R   0.598240 0.480510 0.398910 -0.589926
O4    O     O_R   0.422540 0.515400 0.372600 -0.567726
C2    C     C_R   0.513081 0.493750 0.349334 0.898332
Zn1   Zn    Zn3+2 0.617320 0.476700 0.517570 0.991575
Zn2   Zn    Zn3+2 0.382680 0.523300 0.482430 1.016508
O5    O     O_R   0.544230 0.337600 0.506640 -0.656358
O6    O     O_R   0.368520 0.372490 0.480330 -0.641067
O7    O     O_R   0.577460 0.484600 0.627400 -0.624559
O8    O     O_R   0.401760 0.519490 0.601090 -0.627350
C3    C     C_R   0.440543 0.309216 0.492163 0.852032
C4    C     C_R   0.485159 0.500545 0.650332 0.920938
C5    C     C_R   0.514136 0.462641 0.265648 -0.083889
C6    C     C_R   0.477356 0.522397 0.202908 -0.102694
C7    C     C_R   0.475966 0.488310 0.123491 -0.121595
C8    C     C_R   0.508038 0.392616 0.106042 -0.017231
C9    C     C_R   0.544543 0.331421 0.169493 0.334749
C10   C     C_R   0.548906 0.368308 0.249119 -0.192424
C11   C     C_R   0.513463 0.493466 0.876833 -0.195278
C12   C     C_R   0.530152 0.527945 0.800234 0.316056
C13   C     C_R   0.388432 0.395993 0.741389 -0.237235
C14   C     C_R   0.373638 0.361977 0.817635 -0.011581
C15   C     C_R   0.437423 0.409211 0.885401 0.048737
C16   C     C_2   0.509992 0.363419 0.020701 -0.143592
C17   C     C_2   0.422547 0.373353 0.966491 0.256106
C18   C     C_R   0.467061 0.477461 0.732207 -0.138079
H1    H     H_    0.452213 0.595949 0.215244 0.206544
H2    H     H_    0.340909 0.356118 0.689064 0.141870
H3    H     H_    0.559490 0.532347 0.930204 0.165208
H4    H     H_    0.575255 0.321439 0.298598 0.182619
H5    H     H_    0.450456 0.537135 0.075199 0.172407
H6    H     H_    0.314132 0.297702 0.823727 0.179635
C19   C     C_R   0.273449 0.059283 0.513544 0.347311
H7    H     H_    0.237200 0.213247 0.496135 0.194117
C20   C     C_R   0.405304 0.201039 0.492701 -0.092407
C21   C     C_R   0.692083 0.830723 0.481623 -0.177473
C22   C     C_R   0.707880 0.925446 0.448495 -0.033380
C23   C     C_R   0.626589 0.989531 0.443466 -0.047406
C24   C     C_R   0.536177 0.965490 0.487010 0.046532
C25   C     C_R   0.522413 0.869731 0.521851 0.072939
C26   C     C_R   0.457827 0.031685 0.496278 0.014922
C27   C     C_R   0.357454 0.995826 0.522166 -0.047589
C28   C     C_R   0.349416 0.902814 0.562003 0.316330
C29   C     C_R   0.434266 0.843995 0.564790 -0.169345
C30   C     C_R   0.482671 0.135433 0.490407 -0.239306
C31   C     C_R   0.299065 0.162686 0.499391 -0.253801
C32   C     C_R   0.595254 0.799482 0.511173 -0.080428
H8    H     H_    0.565342 0.166478 0.489418 0.182244
H9    H     H_    0.750156 0.777837 0.475231 0.191968
H10   H     H_    0.778668 0.943358 0.418510 0.217349
H11   H     H_    0.430534 0.776793 0.600791 0.194306
C33   C     C_R   0.900584 0.337964 0.599506 -0.182190
H12   H     H_    0.104830 0.310210 0.620714 0.175843
H13   H     H_    0.920084 0.276222 0.638422 0.207963
N1    N     N_R   0.774070 0.445420 0.541180 -0.158643
C34   C     C_R   0.207245 0.626703 0.403729 0.417235
C35   C     C_R   0.102675 0.642889 0.375182 -0.247852
C36   C     C_R   0.016276 0.586327 0.403314 0.247133
C37   C     C_R   0.036480 0.520572 0.468383 -0.083262
C38   C     C_R   0.144580 0.501375 0.491874 0.155462
C39   C     C_R   0.954985 0.471614 0.510256 0.040074
C40   C     C_R   0.980080 0.392486 0.562617 0.132610
C41   C     C_R   0.084977 0.369668 0.579622 -0.207835
C42   C     C_R   0.166459 0.426164 0.546965 -0.131789
C43   C     C_R   0.850649 0.500779 0.505540 0.043358
C44   C     C_R   0.796360 0.363574 0.587224 0.087232
N2    N     N_R   0.226730 0.554050 0.459240 -0.185104
H14   H     H_    0.828440 0.567604 0.475111 0.166458
H15   H     H_    0.088917 0.694553 0.326396 0.230569
H16   H     H_    0.245933 0.408605 0.565172 0.191915
N3    N     N_R   0.263832 0.872911 0.608885 0.239342
O9    O     O_R   0.225583 0.777397 0.610204 -0.343194
O10   O     O_R   0.237757 0.937255 0.661040 -0.312651
N4    N     N_R   0.162652 0.019548 0.514062 0.244736
O11   O     O_R   0.125543 0.931712 0.478589 -0.319048
O12   O     O_R   0.095206 0.077204 0.538265 -0.350138
C45   C     C_2   0.631530 0.070114 0.382787 0.449042
H17   H     H_    0.558382 0.096960 0.354352 0.094697
O13   O     O_2   0.717425 0.106632 0.363203 -0.477931
C46   C     C_2   0.713631 0.301119 0.626360 0.462306
H18   H     H_    0.641740 0.329978 0.639820 0.123268
O14   O     O_2   0.725915 0.214246 0.645547 -0.541869
N5    N     N_R   0.609289 0.613771 0.792950 0.218702
O15   O     O_R   0.688649 0.637313 0.850536 -0.317587
O16   O     O_R   0.597784 0.674163 0.732663 -0.384175
N6    N     N_R   0.292253 0.680709 0.367546 0.236893
O17   O     O_R   0.304571 0.653796 0.294126 -0.380314
O18   O     O_R   0.325269 0.774111 0.392503 -0.381276
N7    N     N_R   0.912355 0.585525 0.356825 0.196504
O19   O     O_R   0.857006 0.499286 0.330970 -0.350824
O20   O     O_R   0.881242 0.669790 0.328801 -0.357870
N8    N     N_R   0.316364 0.366971 0.991097 0.218612
O21   O     O_R   0.242099 0.413503 0.951277 -0.338276
O22   O     O_R   0.291045 0.308123 0.049054 -0.296689
N9    N     N_R   0.574121 0.231653 0.154381 0.196493
O23   O     O_R   0.520954 0.172486 0.095896 -0.304299
O24   O     O_R   0.647002 0.195444 0.204196 -0.315060
C47   C     C_2   0.615552 0.343824 0.996272 0.503450
H19   H     H_    0.688245 0.361488 0.038770 0.102922
O25   O     O_2   0.621832 0.304763 0.930217 -0.499728

loop_
_geom_bond_atom_site_label_1
_geom_bond_atom_site_label_2
_geom_bond_distance
_ccdc_geom_bond_type
C24   C25   1.407062 A    
N3    O10   1.301425 A    
N3    O9    1.301586 A    
C9    C10   1.396065 A    
C8    C16   1.469504 S    
N9    O23   1.301424 A    
C9    N9    1.438584 S    
C21   C32   1.397524 A    
C28   C29   1.392374 A    
Zn1   O7    1.962273 S    
C11   H3    1.083529 S    
C16   C17   1.356565 D    
N4    O12   1.301638 A    
C21   C22   1.384214 A    
O7    C4    1.309808 A    
C33   C44   1.388538 A    
C5    C6    1.390245 A    
C28   N3    1.436365 S    
C8    C9    1.409683 A    
C25   C29   1.411218 A    
C12   N5    1.441448 S    
C37   C39   1.418757 A    
O5    C3    1.310319 A    
N9    O24   1.301046 A    
C2    C5    1.447531 S    
C42   H16   1.064851 S    
C6    C7    1.386163 A    
C13   C14   1.384689 A    
C20   C30   1.383657 A    
C3    C20   1.449717 S    
C22   H10   1.083597 S    
C35   C36   1.387928 A    
C12   C18   1.407911 A    
C11   C12   1.397510 A    
C24   C26   1.415582 A    
N8    O21   1.301478 A    
C7    H5    1.083686 S    
N1    C43   1.350927 A    
O3    Zn1   1.964059 S    
C19   C31   1.401328 A    
H12   C41   1.084790 S    
C30   H8    1.079247 S    
C39   C43   1.408818 A    
N5    O16   1.301621 A    
C1    C32   1.456117 S    
C5    C10   1.403414 A    
C33   H13   1.085458 S    
C19   N4    1.438054 S    
C38   C42   1.396199 A    
C13   H2    1.083320 S    
N4    O11   1.301652 A    
O3    C2    1.302259 A    
C22   C23   1.401212 A    
C45   O13   1.221480 D    
C21   H9    1.083719 S    
C34   C35   1.388550 A    
N5    O15   1.301786 A    
C14   H6    1.083424 S    
C45   H17   1.084989 S    
C38   N2    1.360102 A    
C36   C37   1.421568 A    
O1    C1    1.306263 A    
C26   C27   1.423498 A    
N7    O20   1.301491 A    
Zn2   O8    1.964059 S    
C47   O25   1.221392 D    
C7    C8    1.408807 A    
Zn2   N2    2.048224 S    
C23   C45   1.487013 S    
C13   C18   1.403516 A    
C14   C15   1.392147 A    
C20   C31   1.397615 A    
N8    O22   1.301805 A    
C19   C27   1.422910 A    
C23   C24   1.437701 A    
N6    O18   1.299681 A    
C41   C42   1.376735 A    
C46   O14   1.221802 D    
N1    C44   1.376039 A    
N7    O19   1.301817 A    
C27   C28   1.410618 A    
C10   H4    1.084508 S    
C36   N7    1.436316 S    
Zn1   O5    1.955407 S    
C11   C15   1.407051 A    
O1    Zn1   1.982179 S    
O2    Zn2   1.955406 S    
O8    C4    1.303002 A    
O6    C3    1.306076 A    
C34   N6    1.425430 S    
O4    Zn2   1.962272 S    
C34   N2    1.369966 A    
C15   C17   1.469004 S    
C43   H14   1.076544 S    
C44   C46   1.481875 S    
C40   C41   1.388703 A    
O2    C1    1.311829 A    
C6    H1    1.081587 S    
O4    C2    1.312673 A    
C33   C40   1.383543 A    
C29   H11   1.083408 S    
C47   H19   1.085463 S    
H7    C31   1.083104 S    
C37   C38   1.425412 A    
C25   C32   1.405131 A    
C39   C40   1.416075 A    
N6    O17   1.299926 A    
Zn2   O6    1.982178 S    
C46   H18   1.071731 S    
C35   H15   1.083830 S    
C17   N8    1.445024 S    
C4    C18   1.444928 S    
C26   C30   1.380923 A    
Zn1   N1    2.060649 S    
C16   C47   1.491008 S    
