data_mof_unit_44085.cif
_audit_creation_date              2013-03-05T15:51:53-0500
_audit_creation_method            fapswitch 2.2
_symmetry_space_group_name_H-M    P1
_symmetry_Int_Tables_number       1
_space_group_crystal_system       triclinic
_cell_length_a                    8.344505
_cell_length_b                    17.43752
_cell_length_c                    23.077594
_cell_angle_alpha                 96.266287
_cell_angle_beta                  90.28745
_cell_angle_gamma                 96.105314
_cell_volume                      3318.49787302

loop_
_atom_site_label
_atom_site_type_symbol
_atom_site_description
_atom_site_fract_x
_atom_site_fract_y
_atom_site_fract_z
_atom_type_partial_charge
P1    P     P_3+3 0.063260 0.435680 0.369690 0.493921
O1    O     O_2   0.894270 0.458150 0.360790 -0.351666
O2    O     O_3   0.134750 0.458940 0.431830 -0.408533
O3    O     O_3   0.663190 0.596710 0.395570 -0.348944
O4    O     O_2   0.765260 0.537690 0.293964 -0.384414
O5    O     O_3   0.047434 0.336996 0.343904 -0.558667
O6    O     O_3   0.736039 0.685447 0.302354 -0.472989
C1    C     C_3   0.634908 0.748505 0.225157 -0.924431
H1    H     H_    0.753817 0.780969 0.217992 0.245675
H2    H     H_    0.625526 0.692711 0.196659 0.253014
P2    P     P_3+3 0.650710 0.674870 0.544690 0.513201
P3    P     P_3+3 0.114579 0.736534 0.425252 0.503772
O7    O     O_2   0.827090 0.686050 0.527520 -0.344735
O8    O     O_3   0.077580 0.635890 0.424230 -0.365404
O9    O     O_2   0.996480 0.773128 0.468687 -0.352587
O10   O     O_3   0.636582 0.716984 0.617451 -0.580320
O11   O     O_3   0.053508 0.760626 0.357694 -0.426308
C2    C     C_3   0.175313 0.746435 0.317663 0.383546
H3    H     H_    0.197036 0.684156 0.313342 0.074334
H4    H     H_    0.287699 0.783906 0.331488 0.060795
C3    C     C_3   0.124255 0.767027 0.258479 -0.796188
H5    H     H_    0.021912 0.725264 0.240192 0.268410
H6    H     H_    0.087102 0.826716 0.262696 0.248247
C4    C     C_3   0.219277 0.696231 0.592691 0.428966
H7    H     H_    0.324811 0.667442 0.576696 0.090569
H8    H     H_    0.124808 0.688763 0.557965 0.133267
C5    C     C_3   0.270599 0.782542 0.608144 -0.934771
H9    H     H_    0.364803 0.791489 0.643041 0.271634
H10   H     H_    0.319103 0.808894 0.569661 0.212789
H11   H     H_    0.166224 0.813061 0.623367 0.295177
Ba1   Ba    Ba6+2 0.852790 0.535910 0.472200 1.605433
C6    C     C_3   0.003476 0.287464 0.385993 0.262553
H12   H     H_    0.877411 0.293623 0.398758 0.071272
H13   H     H_    0.085389 0.300661 0.424627 0.123399
C7    C     C_3   0.018023 0.204456 0.356508 -0.692820
H14   H     H_    0.140276 0.205136 0.337499 0.154677
C8    C     C_3   0.682316 0.675453 0.662596 0.243304
H15   H     H_    0.683597 0.613192 0.648413 0.087692
C9    C     C_3   0.555788 0.686346 0.710742 -0.742639
H16   H     H_    0.548630 0.749332 0.723106 0.197875
H17   H     H_    0.435998 0.662404 0.692411 0.244430
P4    P     P_3+3 0.126450 0.564380 0.630310 0.494405
O12   O     O_2   0.295430 0.541870 0.639250 -0.363748
O13   O     O_3   0.054960 0.541130 0.568170 -0.392367
O14   O     O_3   0.526510 0.403350 0.604440 -0.352324
O15   O     O_3   0.159405 0.665626 0.642803 -0.564254
P5    P     P_3+3 0.085102 0.261550 0.571264 0.530613
O16   O     O_3   0.623640 0.408350 0.471030 -0.435700
O17   O     O_3   0.112120 0.364170 0.575770 -0.348638
O18   O     O_2   0.225305 0.230555 0.536018 -0.303009
O19   O     O_3   0.129733 0.234488 0.639618 -0.480414
Ba2   Ba    Ba6+2 0.337030 0.464150 0.527810 1.624409
P6    P     P_3+3 0.648219 0.594904 0.319780 0.488540
C10   C     C_3   0.618316 0.733700 0.289098 0.444125
H18   H     H_    0.492945 0.708638 0.295706 -0.064081
H19   H     H_    0.537860 0.782460 0.212193 0.251392
O20   O     O_3   0.566070 0.591710 0.528970 -0.406847
C11   C     C_3   0.492460 0.362150 0.350846 0.411994
H20   H     H_    0.376517 0.380356 0.367465 0.073894
H21   H     H_    0.590244 0.409721 0.362614 0.108860
C12   C     C_3   0.482898 0.347128 0.284385 -0.590562
H22   H     H_    0.468780 0.402284 0.266142 0.174511
H23   H     H_    0.596849 0.326211 0.267371 0.248654
P7    P     P_3+3 0.540833 0.312109 0.449852 0.477424
O21   O     O_2   0.362610 0.313970 0.472520 -0.339071
O22   O     O_3   0.525123 0.294161 0.373810 -0.554382
H24   H     H_    0.227039 0.764874 0.228277 0.243005
C13   C     C_3   0.013750 0.257624 0.679264 0.380642
H25   H     H_    0.995763 0.319811 0.678305 0.097093
H26   H     H_    0.899384 0.219725 0.669340 0.035911
C14   C     C_3   0.072088 0.247185 0.740168 -0.816825
H27   H     H_    0.187497 0.284006 0.750762 0.292087
H28   H     H_    0.982550 0.264417 0.772810 0.244092
H29   H     H_    0.090235 0.185489 0.742857 0.264261
P8    P     P_3+3 0.537696 0.416031 0.682765 0.528802
C15   C     C_3   0.590744 0.274607 0.698848 0.390135
H30   H     H_    0.700166 0.298922 0.677092 0.007712
O23   O     O_2   0.394373 0.459893 0.703440 -0.326843
O24   O     O_3   0.477091 0.327765 0.709888 -0.515156
H31   H     H_    0.717789 0.201236 0.750132 0.222626
C16   C     C_3   0.641152 0.249601 0.757019 -1.017851
H32   H     H_    0.533474 0.229964 0.781853 0.297553
H33   H     H_    0.708890 0.299514 0.783493 0.291791
H34   H     H_    0.028535 0.317135 0.049148 0.174300
H35   H     H_    0.961541 0.312144 0.946400 0.172208
C17   C     C_R   0.332230 0.530197 0.334673 -0.506105
C18   C     C_R   0.093029 0.575381 0.944775 -0.078662
C19   C     C_R   0.050924 0.570366 0.884214 0.541048
O25   O     O_2   0.062591 0.628858 0.859206 -0.551263
N1    N     N_R   0.993677 0.499926 0.853324 -0.170483
C20   C     C_R   0.979682 0.433047 0.881228 0.521933
O26   O     O_2   0.932538 0.370862 0.853784 -0.625390
C21   C     C_R   0.019773 0.435588 0.941137 -0.033459
C22   C     C_R   0.075825 0.506993 0.973178 -0.043291
C23   C     C_R   0.150144 0.646481 0.978199 0.080906
C24   C     C_R   0.187235 0.648228 0.037899 -0.186379
C25   C     C_R   0.170121 0.580562 0.066337 -0.051351
C26   C     C_R   0.114615 0.509702 0.033897 -0.015137
C27   C     C_R   0.004116 0.367909 0.969809 -0.114737
C28   C     C_R   0.042595 0.370750 0.029107 -0.115968
C29   C     C_R   0.097997 0.441393 0.062024 -0.050478
C30   C     C_R   0.138503 0.444979 0.122223 0.517860
N2    N     N_R   0.192646 0.515191 0.154178 -0.164227
C31   C     C_R   0.207953 0.582525 0.126550 0.531361
C32   C     C_2   0.785520 0.469927 0.776062 -0.197685
C33   C     C_3   0.730548 0.476310 0.714413 0.148740
C34   C     C_1   0.009413 0.516822 0.688983 0.237311
C35   C     C_2   0.055285 0.523855 0.745419 -0.101103
C36   C     C_2   0.940708 0.496735 0.792253 0.151124
C37   C     C_R   0.395181 0.552263 0.234963 -0.233431
C38   C     C_R   0.440757 0.558490 0.294091 0.160164
C39   C     C_R   0.182207 0.491414 0.316836 0.327167
C40   C     C_R   0.135093 0.486476 0.257369 -0.183150
C41   C     C_R   0.240002 0.518435 0.215794 0.144731
O27   O     O_2   0.127974 0.385272 0.145816 -0.593762
O28   O     O_2   0.254078 0.644593 0.154447 -0.618914
C42   C     C_2   0.871708 0.474183 0.674087 -0.489202
H36   H     H_    0.230213 0.703521 0.061992 0.169832
H37   H     H_    0.481254 0.572172 0.203589 0.150942
H38   H     H_    0.177036 0.548162 0.758014 0.188020
H39   H     H_    0.698367 0.452169 0.808073 0.164264
H40   H     H_    0.018478 0.456868 0.243407 0.178225
H41   H     H_    0.369762 0.532994 0.379859 0.166468
H42   H     H_    0.478858 0.140356 0.459159 0.159510
H43   H     H_    0.306089 0.891475 0.440711 0.160139
C43   C     C_R   0.417472 0.716581 0.468836 -0.492635
C44   C     C_R   0.561555 0.741378 0.499494 0.386960
C45   C     C_R   0.618711 0.820943 0.506049 -0.214222
C46   C     C_R   0.529504 0.875490 0.483540 0.043318
C47   C     C_R   0.380288 0.849885 0.455523 -0.213221
C48   C     C_R   0.323215 0.770635 0.449262 0.130951
C49   C     C_R   0.593350 0.161426 0.480595 -0.115008
C50   C     C_R   0.650708 0.240417 0.482832 0.267883
C51   C     C_R   0.891616 0.217627 0.535471 0.245619
C52   C     C_R   0.834024 0.138529 0.534203 -0.237187
C53   C     C_R   0.686130 0.109624 0.505330 0.129873
C54   C     C_1   0.631608 0.026943 0.499142 0.003117
C55   C     C_1   0.585644 0.957961 0.492416 0.014092
C56   C     C_R   0.802924 0.265876 0.506788 -0.383967
H44   H     H_    0.904942 0.099764 0.554287 0.142123
H45   H     H_    0.728370 0.840692 0.531075 0.165746
H46   H     H_    0.370337 0.656003 0.465705 0.158955
H47   H     H_    0.855065 0.324007 0.501430 0.171387
C57   C     C_2   0.644931 0.809707 0.327670 0.966907
O29   O     O_2   0.562440 0.861948 0.320509 -0.661536
O30   O     O_R   0.763196 0.820583 0.371690 -0.702754
H48   H     H_    0.772965 0.874791 0.393197 0.325420
C58   C     C_2   0.898385 0.180733 0.306205 1.216332
O31   O     O_2   0.782593 0.216757 0.300516 -0.587494
O32   O     O_R   0.918526 0.116910 0.265709 -0.744144
H49   H     H_    0.018131 0.091103 0.274001 0.289126
C59   C     C_2   0.008040 0.144046 0.398602 0.937838
O33   O     O_2   0.115217 0.145722 0.435075 -0.608231
O34   O     O_R   0.884092 0.082893 0.393346 -0.787282
H50   H     H_    0.899841 0.042625 0.420792 0.323767
C60   C     C_2   0.845075 0.711698 0.686108 1.043570
O35   O     O_2   0.903921 0.773191 0.670504 -0.610602
O36   O     O_R   0.925539 0.676929 0.727730 -0.795666
H51   H     H_    0.028832 0.708981 0.742774 0.365623
C61   C     C_2   0.584639 0.649878 0.765589 1.089232
O37   O     O_2   0.502261 0.590671 0.775322 -0.637157
O38   O     O_R   0.696330 0.687160 0.807540 -0.738774
H52   H     H_    0.703247 0.657455 0.842715 0.332793
N3    N     N_3   0.345876 0.290558 0.265624 -0.159971
H53   H     H_    0.332340 0.289483 0.220464 0.181444
H54   H     H_    0.375072 0.235573 0.273110 0.188152
C62   C     C_2   0.511737 0.205463 0.660914 1.081304
O39   O     O_2   0.555141 0.192213 0.610825 -0.688414
O40   O     O_R   0.387487 0.156948 0.682700 -0.762019
H55   H     H_    0.343580 0.112708 0.652747 0.334869
N4    N     N_3   0.171148 0.717740 0.952128 -0.147499
H56   H     H_    0.099853 0.756693 0.974456 0.125528
H57   H     H_    0.291705 0.740895 0.957941 0.124670
C63   C     C_2   0.828774 0.453627 0.614353 1.111236
O41   O     O_2   0.823788 0.386622 0.593510 -0.686531
O42   O     O_R   0.759675 0.508571 0.586532 -0.780579
H58   H     H_    0.691108 0.484359 0.552754 0.399989

loop_
_geom_bond_atom_site_label_1
_geom_bond_atom_site_label_2
_geom_bond_distance
_ccdc_geom_bond_type
C42   C63   1.420210 S    
C1    H1    1.111276 S    
O5    C6    1.394032 S    
N4    H56   1.045670 S    
C21   C22   1.409809 A    
P3    C48   1.841130 S    
H31   C16   1.109943 S    
C9    C61   1.506550 S    
C5    H10   1.103110 S    
C2    C3    1.519784 S    
O40   H55   1.013955 S    
C35   H38   1.083896 S    
C32   C33   1.511887 S    
C10   C57   1.508700 S    
C23   C24   1.406922 A    
C4    C5    1.523133 S    
O8    Ba1   2.744081 S    
C18   C19   1.430460 A    
C45   C46   1.408288 A    
C1    H19   1.110914 S    
C16   H32   1.111576 S    
C52   C53   1.416736 A    
C62   O40   1.398195 S    
N4    H57   1.045682 S    
C43   C44   1.395406 A    
C24   H36   1.083880 S    
N3    H53   1.045626 S    
C58   O32   1.398042 S    
P1    O1    1.521968 D    
P1    C39   1.866323 S    
O3    P6    1.749480 S    
O12   Ba2   2.814136 S    
O16   P7    1.761695 S    
C22   C26   1.431175 A    
C11   H21   1.110077 S    
C12   N3    1.459356 S    
C18   C22   1.416869 A    
P1    Ba1   3.395237 S    
C35   C36   1.526983 S    
H42   C49   1.083228 S    
C15   C62   1.499825 S    
C2    H3    1.113814 S    
P4    O15   1.749421 S    
C12   H23   1.112479 S    
C37   C38   1.404290 A    
C32   C36   1.365038 D    
C30   O27   1.221863 D    
N2    C31   1.390602 Am   
C31   O28   1.220971 D    
C56   H47   1.079893 S    
H43   C47   1.083352 S    
C11   O22   1.401842 S    
C40   H40   1.082106 S    
C7    H14   1.111894 S    
C13   H25   1.112975 S    
C18   C23   1.421648 A    
P3    O11   1.745693 S    
C34   C35   1.344607 D    
C15   O24   1.400507 S    
C45   H45   1.083373 S    
C21   C27   1.409319 A    
O10   C8    1.405354 S    
C7    C58   1.520229 S    
P6    C38   1.850758 S    
C11   C12   1.527740 S    
P2    Ba1   3.395010 S    
C62   O39   1.218360 D    
C3    H5    1.111189 S    
C3    H24   1.109028 S    
C5    H11   1.107265 S    
C8    C60   1.507840 S    
C30   N2    1.388831 Am   
P4    O13   1.545887 S    
P5    O17   1.771174 S    
C39   C40   1.416669 A    
C16   H33   1.107292 S    
C25   C26   1.405210 A    
P5    O18   1.539664 D    
C15   H30   1.110978 S    
C52   H44   1.082897 S    
C8    C9    1.547155 S    
Ba1   O13   2.765008 S    
C46   C55   1.456346 S    
P1    O5    1.749304 S    
O3    Ba1   2.737242 S    
C29   C30   1.421246 A    
N2    C41   1.467407 S    
C4    H7    1.104818 S    
C57   O30   1.396398 S    
C1    C10   1.529987 S    
C20   O26   1.220054 D    
C14   H28   1.104538 S    
C46   C47   1.406554 A    
C49   C50   1.404632 A    
P5    O19   1.744622 S    
O14   Ba2   2.736626 S    
C11   H20   1.107424 S    
C43   H46   1.081852 S    
O1    Ba1   2.813631 S    
P1    O2    1.545906 S    
C6    H13   1.109381 S    
C15   C16   1.526553 S    
P2    C44   1.850978 S    
C6    C7    1.547920 S    
C8    H15   1.100400 S    
H35   C27   1.083296 S    
C20   C21   1.415685 A    
P2    O10   1.767472 S    
C27   C28   1.398436 A    
P3    O9    1.545040 D    
C49   C53   1.413532 A    
O17   Ba2   2.744592 S    
C24   C25   1.406231 A    
O11   C2    1.400271 S    
C32   H39   1.085322 S    
C58   O31   1.221180 D    
O2    Ba1   2.936982 S    
O34   H50   1.013590 S    
C40   C41   1.420861 A    
C1    H2    1.108519 S    
O42   H58   0.992749 S    
C59   O34   1.399106 S    
C50   C56   1.391220 A    
Ba1   O16   2.772423 S    
C3    H6    1.111649 S    
P5    C51   1.860415 S    
O36   H51   1.013898 S    
P4    O12   1.522295 D    
O6    P6    1.756984 S    
C44   C45   1.409965 A    
C51   C56   1.393868 A    
P7    C50   1.851270 S    
O30   H48   1.013556 S    
P4    C34   1.887080 S    
O4    P6    1.545143 D    
C37   C41   1.412527 A    
C10   H18   1.107965 S    
C60   O35   1.222555 D    
O7    Ba1   2.814721 S    
C61   O38   1.397583 S    
C4    H8    1.108886 S    
C19   N1    1.387711 Am   
C57   O29   1.223138 D    
C37   H37   1.080583 S    
C14   H29   1.110558 S    
O2    Ba2   2.765765 S    
C51   C52   1.408641 A    
O38   H52   1.014021 S    
C26   C29   1.412070 A    
C54   C55   1.215975 T    
O6    C10   1.412624 S    
Ba1   Ba2   4.573229 S    
O14   P8    1.797638 S    
C4    O15   1.398447 S    
C61   O37   1.220698 D    
Ba1   O20   2.938665 S    
N3    H54   1.045921 S    
C47   C48   1.404683 A    
P3    O8    1.746847 S    
C14   H27   1.109637 S    
C33   C42   1.505878 S    
C6    H12   1.106871 S    
P2    O7    1.524107 D    
O13   Ba2   2.937789 S    
N1    C20   1.387108 Am   
C23   N4    1.433399 S    
C43   C48   1.399365 A    
C13   C14   1.520991 S    
P7    O21   1.581380 D    
C60   O36   1.395815 S    
C28   C29   1.406875 A    
C17   C38   1.398195 A    
C2    H4    1.108756 S    
O19   C13   1.395666 S    
C12   H22   1.108210 S    
P8    O23   1.537396 D    
C63   O42   1.382282 S    
C25   C31   1.419384 A    
H34   C28   1.083218 S    
Ba2   O20   2.771885 S    
C9    H16   1.112201 S    
C17   C39   1.395690 A    
O16   Ba2   2.937978 S    
C19   O25   1.220996 D    
C9    H17   1.104929 S    
P8    C33   1.920622 S    
C13   H26   1.109304 S    
C7    C59   1.505243 S    
P4    Ba2   3.395619 S    
C17   H41   1.081767 S    
O32   H49   1.013259 S    
C53   C54   1.456331 S    
C59   O33   1.220945 D    
N1    C36   1.468396 S    
P2    O20   1.548541 S    
P8    O24   1.750562 S    
C34   C42   1.322825 D    
Ba2   O21   2.814919 S    
P7    O22   1.750375 S    
C5    H9    1.109482 S    
C63   O41   1.210386 D    
