data_mof_unit_35842.cif
_audit_creation_date              2012-12-10T18:46:12-0500
_audit_creation_method            fapswitch 2.2
_symmetry_space_group_name_H-M    P1
_symmetry_Int_Tables_number       1
_space_group_crystal_system       triclinic
_cell_length_a                    9.875472
_cell_length_b                    10.721278
_cell_length_c                    13.177187
_cell_angle_alpha                 89.991549
_cell_angle_beta                  69.620147
_cell_angle_gamma                 89.419066
_cell_volume                      1307.76289102

loop_
_atom_site_label
_atom_site_type_symbol
_atom_type_description
_atom_site_fract_x
_atom_site_fract_y
_atom_site_fract_z
_atom_type_partial_charge
C1    C     C_R   0.499732 0.740008 0.499630 0.867987
C2    C     C_R   0.453741 0.539124 0.971940 -0.008033
C3    C     C_R   0.465603 0.471592 0.876751 0.012946
C4    C     C_R   0.559570 0.515061 0.019833 0.116122
C5    C     C_R   0.689949 0.451772 0.961001 0.135267
C6    C     C_R   0.700356 0.388039 0.866826 -0.287356
C7    C     C_R   0.580831 0.383534 0.833574 -0.025514
C8    C     C_R   0.529743 0.534654 0.129705 -0.179300
C9    C     C_R   0.769922 0.465167 0.114453 -0.172676
C10   C     C_R   0.368292 0.500591 0.822737 -0.051516
C11   C     C_R   0.614832 0.934906 0.513660 -0.161511
C12   C     C_R   0.419604 0.495928 0.704404 0.891722
C13   C     C_R   0.615976 0.062447 0.512195 -0.154091
C14   C     C_R   0.502526 0.127350 0.495434 -0.071167
C15   C     C_R   0.388753 0.064933 0.478070 -0.163788
C16   C     C_R   0.387600 0.937041 0.479300 -0.176796
C17   C     C_R   0.500309 0.872440 0.497739 -0.034235
C18   C     C_R   0.954326 0.405161 0.450742 0.048927
C19   C     C_R   0.097110 0.406084 0.451759 -0.094111
C20   C     C_R   0.047522 0.593605 0.549580 -0.064990
C21   C     C_R   0.903852 0.593517 0.549691 -0.069320
C22   C     C_R   0.501129 0.259938 0.498260 0.901773
C23   C     C_R   0.580367 0.502853 0.295727 0.889961
C24   C     C_R   0.798969 0.436611 0.005748 -0.188473
C25   C     C_R   0.630837 0.504999 0.178065 -0.074689
C26   C     C_R   0.240674 0.566646 0.876358 -0.224185
C27   C     C_R   0.224018 0.627793 0.972667 -0.182736
C28   C     C_R   0.335943 0.625961 0.015051 -0.022280
H1    H     H_    0.851129 0.445429 0.150181 0.204507
H2    H     H_    0.703748 0.109686 0.526431 0.234490
H3    H     H_    0.300788 0.114458 0.463964 0.176231
H4    H     H_    0.082257 0.668640 0.589330 0.133227
H5    H     H_    0.830333 0.668346 0.589618 0.140469
H6    H     H_    0.793326 0.327985 0.828671 0.189163
H7    H     H_    0.901488 0.392941 0.959706 0.156846
H8    H     H_    0.421679 0.560930 0.180726 0.157117
N1    N     N_R   0.142790 0.500030 0.500030 -0.089531
N2    N     N_R   0.857180 0.499940 0.500010 -0.111015
O1    O     O_R   0.385370 0.683250 0.500010 -0.628645
O2    O     O_R   0.614700 0.683220 0.500010 -0.628530
O3    O     O_R   0.328400 0.499990 0.653620 -0.607380
O4    O     O_R   0.557730 0.499960 0.653620 -0.624631
O5    O     O_R   0.385300 0.316780 0.499990 -0.625713
O6    O     O_R   0.614630 0.316750 0.499990 -0.596401
O7    O     O_R   0.442270 0.500040 0.346380 -0.624800
O8    O     O_R   0.671600 0.500010 0.346380 -0.560437
Zn1   Zn    Zn3+2 0.346870 0.500020 0.500000 0.964943
Zn2   Zn    Zn3+2 0.653130 0.499980 0.500000 1.003294
H9    H     H_    0.299180 0.889213 0.465803 0.172611
C29   C     C_2   0.917034 0.298760 0.394935 0.923214
O9    O     O_2   0.951755 0.193094 0.411882 -0.654964
O10   O     O_R   0.853980 0.318188 0.316709 -0.792121
H10   H     H_    0.836488 0.237522 0.283253 0.333492
H11   H     H_    0.172717 0.332166 0.412420 0.151950
H12   H     H_    0.162521 0.584964 0.837228 0.167042
C30   C     C_2   0.335638 0.728982 0.090651 0.877221
O11   O     O_2   0.221867 0.765235 0.157929 -0.619980
O12   O     O_R   0.465027 0.787317 0.082568 -0.791561
H13   H     H_    0.450801 0.856119 0.138221 0.350266
H14   H     H_    0.131477 0.689467 0.006289 0.185393
C31   C     C_2   0.570999 0.276888 0.764400 0.930906
O13   O     O_2   0.680796 0.224706 0.705244 -0.642655
O14   O     O_R   0.435539 0.232274 0.771136 -0.821773
H15   H     H_    0.442303 0.155357 0.724950 0.339704
H16   H     H_    0.702627 0.885729 0.528317 0.170112

loop_
_geom_bond_atom_site_label_1
_geom_bond_atom_site_label_2
_ccdc_geom_bond_type
C29   O10   S    
C9    C24   A    
C15   H3    S    
C6    C7    A    
C23   O7    A    
N1    Zn1   S    
C1    C17   S    
C22   O5    A    
C9    H1    S    
C4    C8    A    
C8    H8    S    
C26   H12   S    
C10   C26   A    
O7    Zn1   S    
C29   O9    D    
C18   N2    A    
C9    C25   A    
C23   O8    A    
O4    Zn2   S    
C13   C14   A    
C20   C21   A    
C20   N1    A    
C11   C13   A    
C14   C22   S    
C26   C27   A    
C31   O13   D    
C5    C24   A    
C10   C12   S    
C2    C4    A    
C19   H11   S    
O3    Zn1   S    
C30   O12   S    
C2    C3    A    
C3    C7    A    
C27   H14   S    
C23   C25   S    
C28   C30   S    
C5    C6    A    
O8    Zn2   S    
C24   H7    S    
C21   H5    S    
C30   O11   D    
C1    O1    A    
C12   O4    A    
C8    C25   A    
C15   C16   A    
O6    Zn2   S    
C13   H2    S    
C16   H9    S    
N2    Zn2   S    
O10   H10   S    
C18   C29   S    
C12   O3    A    
O1    Zn1   S    
C18   C19   A    
C20   H4    S    
C6    H6    S    
C27   C28   A    
C3    C10   A    
O2    Zn2   S    
C14   C15   A    
C7    C31   S    
C2    C28   A    
C19   N1    A    
C1    O2    A    
O12   H13   S    
O14   H15   S    
C4    C5    A    
O5    Zn1   S    
C31   O14   S    
C22   O6    A    
C21   N2    A    
C11   H16   S    
C16   C17   A    
C11   C17   A    
