data_mof_unit_34898.cif
_audit_creation_date              2012-12-10T17:12:36-0500
_audit_creation_method            fapswitch 2.2
_symmetry_space_group_name_H-M    P1
_symmetry_Int_Tables_number       1
_space_group_crystal_system       triclinic
_cell_length_a                    23.457404
_cell_length_b                    10.643287
_cell_length_c                    10.031048
_cell_angle_alpha                 89.783921
_cell_angle_beta                  91.054942
_cell_angle_gamma                 90.605311
_cell_volume                      2503.81014186

loop_
_atom_site_label
_atom_site_type_symbol
_atom_type_description
_atom_site_fract_x
_atom_site_fract_y
_atom_site_fract_z
_atom_type_partial_charge
C1    C     C_R   0.506421 0.263679 0.500301 0.952109
C2    C     C_R   0.967435 0.263412 0.467394 -0.225994
C3    C     C_R   0.026834 0.259089 0.467037 0.463788
C4    C     C_R   0.058837 0.370839 0.496296 -0.152646
C5    C     C_R   0.029330 0.484791 0.519547 -0.067397
C6    C     C_R   0.059848 0.597540 0.542558 -0.047401
C7    C     C_R   0.031057 0.709083 0.567777 -0.096825
C8    C     C_R   0.971649 0.712477 0.570469 0.141086
C9    C     C_R   0.119019 0.375371 0.503653 0.567575
C10   C     C_R   0.119137 0.597244 0.538363 0.526577
C11   C     C_R   0.240510 0.525154 0.623614 -0.083746
C12   C     C_R   0.389216 0.498408 0.498719 0.862589
C13   C     C_R   0.299365 0.528613 0.616283 -0.251354
C14   C     C_R   0.326605 0.496078 0.497660 -0.054038
C15   C     C_R   0.293269 0.459637 0.384124 0.144184
C16   C     C_R   0.233916 0.458420 0.393246 -0.085967
C17   C     C_R   0.207805 0.490449 0.512197 0.247412
C18   C     C_R   0.760557 0.433207 0.608855 -0.133143
C19   C     C_R   0.701525 0.435968 0.607371 -0.134850
C20   C     C_R   0.672331 0.494296 0.501734 -0.070216
C21   C     C_R   0.702388 0.545006 0.394391 -0.181734
C22   C     C_R   0.761746 0.540590 0.393537 0.217563
C23   C     C_R   0.498535 0.737363 0.499374 0.952865
C24   C     C_R   0.790788 0.486157 0.503427 0.305492
C25   C     C_2   0.534622 0.929412 0.422203 -0.208330
C26   C     C_2   0.494704 0.870008 0.494505 -0.004376
C27   C     C_2   0.533498 0.063235 0.398767 0.500803
C28   C     C_2   0.523094 0.134905 0.504877 -0.485948
C29   C     C_2   0.532323 0.572857 0.930301 0.464456
C30   C     C_2   0.520202 0.590429 0.075010 -0.196219
C31   C     C_R   0.610468 0.498885 0.500823 0.893261
C32   C     C_R   0.879607 0.595670 0.541417 0.517666
C33   C     C_R   0.879258 0.377193 0.487656 0.539471
C34   C     C_R   0.938649 0.374978 0.492115 -0.084917
C35   C     C_R   0.969250 0.486785 0.518868 -0.043794
C36   C     C_R   0.939799 0.600220 0.544411 -0.027234
H1    H     H_    0.943157 0.178537 0.446336 0.232518
H2    H     H_    0.678733 0.390974 0.687588 0.200750
H3    H     H_    0.679688 0.588489 0.311425 0.190278
H4    H     H_    0.568256 0.876636 0.375190 0.180996
H5    H     H_    0.525453 0.093715 0.604182 0.169507
H6    H     H_    0.464011 0.465608 0.893724 0.125539
H7    H     H_    0.534509 0.676079 0.123934 0.233577
H8    H     H_    0.492286 0.416876 0.101344 0.210345
H9    H     H_    0.055156 0.794913 0.586144 0.227172
H10   H     H_    0.220195 0.549524 0.715957 0.159446
H11   H     H_    0.323586 0.556936 0.704319 0.176664
H12   H     H_    0.207423 0.431891 0.308049 0.155348
H13   H     H_    0.783062 0.389972 0.692059 0.162110
N1    N     N_R   0.851486 0.486297 0.510864 -0.357369
N2    N     N_R   0.147128 0.487572 0.519159 -0.362657
N3    N     N_2   0.500610 0.501330 0.852150 -0.244642
N4    N     N_2   0.500630 0.501360 0.147810 -0.205860
O1    O     O_R   0.499990 0.319060 0.613040 -0.620692
O2    O     O_2   0.849165 0.271482 0.459121 -0.534899
O3    O     O_2   0.149919 0.269754 0.498553 -0.452653
O4    O     O_2   0.148871 0.705929 0.552311 -0.527168
O5    O     O_R   0.500010 0.319100 0.386900 -0.532499
O6    O     O_R   0.416150 0.499940 0.613100 -0.632047
O7    O     O_R   0.416160 0.499980 0.386960 -0.613915
O8    O     O_R   0.499990 0.680900 0.613100 -0.566568
O9    O     O_R   0.500010 0.680940 0.386960 -0.631009
O10   O     O_R   0.583840 0.500020 0.613040 -0.549270
O11   O     O_R   0.583850 0.500060 0.386900 -0.595823
O12   O     O_2   0.848743 0.698477 0.567666 -0.544789
Zn1   Zn    Zn3+2 0.499990 0.499970 0.650990 1.027463
Zn2   Zn    Zn3+2 0.500010 0.500030 0.349010 1.025163
C37   C     C_3   0.792266 0.593785 0.274838 -0.801089
H14   H     H_    0.784547 0.696352 0.267705 0.257918
H15   H     H_    0.838924 0.578496 0.280182 0.235427
H16   H     H_    0.775673 0.547998 0.182483 0.248785
C38   C     C_3   0.440796 0.928132 0.546692 -0.866658
H17   H     H_    0.407322 0.854943 0.561507 0.234774
H18   H     H_    0.449068 0.972927 0.644858 0.255250
H19   H     H_    0.423112 0.997449 0.474411 0.258196
S1    S     S_3+6 0.545559 0.117219 0.234001 0.041822
O13   O     O_2   0.490049 0.158388 0.171558 -0.315638
O14   O     O_2   0.587196 0.225604 0.236335 -0.278601
O15   O     O_3   0.572200 0.000089 0.142664 -0.532284
H20   H     H_    0.575949 0.035639 0.051803 0.395852
S2    S     S_3+6 0.597045 0.643953 0.878988 0.059198
O16   O     O_2   0.639289 0.542289 0.853822 -0.312728
O17   O     O_2   0.589492 0.722971 0.756055 -0.278435
O18   O     O_3   0.623556 0.736274 0.001583 -0.558735
H21   H     H_    0.661701 0.763266 0.970999 0.392337
S3    S     S_3+6 0.057159 0.113060 0.420891 0.055423
O19   O     O_2   0.087738 0.056995 0.539587 -0.254271
O20   O     O_2   0.011759 0.022149 0.373321 -0.327869
O21   O     O_3   0.103372 0.136490 0.296694 -0.499468
H22   H     H_    0.121687 0.054061 0.284003 0.396726
C39   C     C_3   0.944807 0.837595 0.600409 -0.667796
H23   H     H_    0.918012 0.868632 0.514299 0.277880
H24   H     H_    0.919065 0.830060 0.691899 0.254697
H25   H     H_    0.977179 0.912742 0.618978 0.237636
C40   C     C_3   0.318884 0.418855 0.254514 -0.816123
H26   H     H_    0.348614 0.339851 0.272713 0.258159
H27   H     H_    0.285770 0.385614 0.181902 0.231897
H28   H     H_    0.341629 0.499060 0.207542 0.251933

loop_
_geom_bond_atom_site_label_1
_geom_bond_atom_site_label_2
_ccdc_geom_bond_type
C33   O2    S    
C4    C9    A    
C26   C38   S    
C19   C20   A    
C9    N2    A    
S1    O15   S    
C17   N2    S    
S2    O16   D    
C40   H28   S    
C7    C8    A    
O9    Zn2   S    
C18   C24   A    
C7    H9    S    
S1    O14   D    
C18   C19   A    
O6    Zn1   S    
C15   C40   S    
C5    C6    A    
S3    O20   D    
C15   C16   A    
C28   H5    S    
C34   C35   A    
C8    C36   A    
C23   C26   S    
C37   H14   S    
C12   O6    A    
H8    N4    S    
C23   O9    A    
C40   H26   S    
O7    Zn2   S    
C16   C17   A    
C1    C28   S    
C2    C34   A    
O10   Zn1   S    
C21   C22   A    
C3    S3    S    
C16   H12   S    
C38   H19   S    
C10   N2    A    
O8    Zn1   S    
S2    O17   D    
C24   N1    S    
C30   N4    D    
O11   Zn2   S    
C31   O10   A    
C10   O4    S    
O18   H21   S    
C38   H18   S    
C39   H23   S    
C8    C39   S    
S3    O19   D    
C38   H17   S    
C33   N1    A    
C35   C36   A    
C1    O1    A    
C29   S2    S    
C29   C30   S    
C19   H2    S    
C39   H24   S    
C21   H3    S    
C32   N1    A    
C33   C34   A    
C9    O3    S    
S1    O13   D    
C22   C37   S    
C12   C14   S    
C22   C24   A    
C30   H7    S    
C27   S1    S    
C32   C36   A    
S2    O18   S    
N3    Zn1   S    
C13   H11   S    
C11   C17   A    
C31   O11   A    
C4    C5    A    
S3    O21   S    
C6    C10   A    
C40   H27   S    
C6    C7    A    
O1    Zn1   S    
C25   C27   S    
C2    C3    A    
C25   C26   D    
C25   H4    S    
C1    O5    A    
C39   H25   S    
C11   C13   A    
C2    H1    S    
C37   H16   S    
C5    C35   A    
N4    Zn2   S    
O15   H20   S    
C12   O7    A    
O5    Zn2   S    
C23   O8    A    
C20   C21   A    
C37   H15   S    
C27   C28   D    
C14   C15   A    
C11   H10   S    
O21   H22   S    
C13   C14   A    
C20   C31   S    
C3    C4    A    
C18   H13   S    
H6    N3    S    
C32   O12   S    
C29   N3    D    
