data_mof_unit_20633.cif
_audit_creation_date              2012-12-10T17:50:37-0500
_audit_creation_method            fapswitch 2.2
_symmetry_space_group_name_H-M    P1
_symmetry_Int_Tables_number       1
_space_group_crystal_system       triclinic
_cell_length_a                    15.698707
_cell_length_b                    10.733736
_cell_length_c                    9.917534
_cell_angle_alpha                 87.466622
_cell_angle_beta                  89.172864
_cell_angle_gamma                 91.947126
_cell_volume                      1668.35188297

loop_
_atom_site_label
_atom_site_type_symbol
_atom_type_description
_atom_site_fract_x
_atom_site_fract_y
_atom_site_fract_z
_atom_type_partial_charge
C1    C     C_R   0.501403 0.259528 0.503972 0.899136
C2    C     C_3   0.082758 0.503250 0.496866 0.209328
C3    C     C_3   0.974282 0.614686 0.535314 -0.162444
C4    C     C_3   0.917574 0.504848 0.492898 0.213238
C5    C     C_3   0.032380 0.596218 0.410957 -0.157191
C6    C     C_3   0.973768 0.486389 0.368425 -0.165318
C7    C     C_1   0.173625 0.501768 0.500213 -0.098609
C8    C     C_1   0.826584 0.504456 0.493754 -0.085893
C9    C     C_R   0.443393 0.094775 0.748657 -0.164850
C10   C     C_R   0.391967 0.022166 0.839765 -0.081257
C11   C     C_R   0.359204 0.906957 0.803558 -0.127122
C12   C     C_R   0.337982 0.499692 0.500788 0.883905
C13   C     C_R   0.385614 0.858739 0.682657 -0.129261
C14   C     C_R   0.444994 0.926766 0.596325 0.035503
C15   C     C_R   0.464198 0.051861 0.619657 0.087761
C16   C     C_R   0.504802 0.125673 0.513095 -0.195634
C17   C     C_R   0.542195 0.070133 0.403271 -0.296106
C18   C     C_R   0.540697 0.942497 0.397599 0.483320
C19   C     C_R   0.489755 0.871211 0.491957 -0.237532
C20   C     C_R   0.380526 0.347824 0.149709 -0.217500
C21   C     C_R   0.316368 0.282657 0.085020 -0.313080
C22   C     C_R   0.310918 0.291930 0.945439 0.494286
C23   C     C_R   0.495964 0.739089 0.497103 0.878701
C24   C     C_R   0.375560 0.356477 0.870463 -0.291972
C25   C     C_R   0.439227 0.428419 0.932701 0.090701
C26   C     C_R   0.440280 0.426624 0.077127 0.179031
C27   C     C_R   0.557294 0.570154 0.066753 -0.099177
C28   C     C_R   0.557582 0.569576 0.923690 -0.090831
C29   C     C_R   0.662035 0.501007 0.498987 0.893500
C30   C     C_3   0.968064 0.411925 0.578566 -0.163804
C31   C     C_3   0.026058 0.393463 0.454241 -0.167344
C32   C     C_1   0.248972 0.500588 0.501848 -0.186817
C33   C     C_1   0.751136 0.503049 0.496172 -0.196791
C34   C     C_3   0.026483 0.521742 0.621098 -0.173072
H1    H     H_    0.049493 0.303077 0.421223 0.131297
H2    H     H_    0.316757 0.852382 0.871892 0.136672
H3    H     H_    0.361184 0.766877 0.659016 0.149152
H4    H     H_    0.604024 0.627622 0.116587 0.147425
H5    H     H_    0.381482 0.332545 0.256299 0.224201
H6    H     H_    0.271325 0.223327 0.143973 0.161463
H7    H     H_    0.376196 0.342846 0.764846 0.220749
H8    H     H_    0.604582 0.626569 0.866197 0.146191
H9    H     H_    0.939083 0.336282 0.645970 0.129995
H10   H     H_    0.950022 0.472063 0.265157 0.134321
H11   H     H_    0.060932 0.671517 0.342556 0.134011
H12   H     H_    0.950815 0.705122 0.568135 0.133555
H13   H     H_    0.050681 0.536964 0.723786 0.132443
H14   H     H_    0.575824 0.125744 0.324127 0.182781
H15   H     H_    0.471469 0.178503 0.786207 0.169686
H16   H     H_    0.377637 0.055094 0.938773 0.159187
N1    N     N_R   0.499210 0.498800 0.142780 -0.115368
N2    N     N_R   0.499180 0.498720 0.857170 -0.109328
O1    O     O_R   0.500000 0.316780 0.614690 -0.645712
O2    O     O_R   0.499990 0.316750 0.385360 -0.636234
O3    O     O_R   0.376780 0.500000 0.614650 -0.643032
O4    O     O_R   0.376770 0.499980 0.385310 -0.628627
O5    O     O_R   0.500010 0.683250 0.614640 -0.624101
O6    O     O_R   0.500000 0.683220 0.385310 -0.575180
O7    O     O_R   0.623230 0.500020 0.614690 -0.610747
O8    O     O_R   0.623220 0.500000 0.385350 -0.623537
Zn1   Zn    Zn3+2 0.500010 0.500020 0.653130 0.928535
Zn2   Zn    Zn3+2 0.499990 0.499980 0.346870 0.948780
O9    O     O_3   0.586331 0.888915 0.295861 -0.633376
C35   C     C_3   0.665202 0.847543 0.345873 0.110386
H17   H     H_    0.679250 0.759434 0.296575 0.166963
H18   H     H_    0.664580 0.824933 0.456956 0.102114
C36   C     C_3   0.736878 0.943843 0.309377 -0.367285
H19   H     H_    0.738069 0.964478 0.198531 0.232706
H20   H     H_    0.725128 0.031686 0.360755 0.216067
C37   C     C_3   0.823370 0.895978 0.352160 -0.966478
H21   H     H_    0.824021 0.876646 0.463115 0.262263
H22   H     H_    0.874067 0.967605 0.324587 0.265470
H23   H     H_    0.837395 0.809116 0.300360 0.265370
O10   O     O_3   0.247519 0.226197 0.880803 -0.652361
C38   C     C_3   0.175346 0.301065 0.865502 0.100473
H24   H     H_    0.142921 0.273976 0.771785 0.168922
H25   H     H_    0.191936 0.402944 0.851269 0.125886
C39   C     C_3   0.112864 0.276895 0.985088 -0.362819
H26   H     H_    0.098340 0.175023 0.998991 0.232175
H27   H     H_    0.141843 0.310243 0.078863 0.215555
C40   C     C_3   0.029913 0.344324 0.963398 -0.976198
H28   H     H_    0.042683 0.446742 0.954135 0.260471
H29   H     H_    0.986266 0.323416 0.051199 0.264283
H30   H     H_    0.998201 0.312519 0.871161 0.264030

loop_
_geom_bond_atom_site_label_1
_geom_bond_atom_site_label_2
_ccdc_geom_bond_type
O6    Zn2   S    
C23   O6    A    
C11   C13   A    
C2    C7    S    
C17   H14   S    
C4    C8    S    
C40   H28   S    
C22   C24   A    
C11   H2    S    
N2    Zn1   S    
C5    C6    S    
C39   H27   S    
C18   O9    S    
C27   H4    S    
C15   C16   A    
C29   C33   S    
O8    Zn2   S    
C18   C19   A    
C1    O1    A    
O1    Zn1   S    
C29   O7    A    
C16   C17   A    
C37   H21   S    
C9    C10   A    
C13   H3    S    
C2    C34   S    
C6    C31   S    
C6    H10   S    
C13   C14   A    
C12   C32   S    
C24   H7    S    
N1    Zn2   S    
C40   H29   S    
C27   N1    A    
O7    Zn1   S    
O10   C38   S    
C30   C34   S    
C36   H19   S    
C35   C36   S    
C9    H15   S    
C24   C25   A    
C4    C6    S    
C20   H5    S    
C39   H26   S    
O2    Zn2   S    
C3    C34   S    
C25   C26   A    
C5    H11   S    
C2    C31   S    
C36   H20   S    
C35   H18   S    
C19   C23   S    
C38   H24   S    
C29   O8    A    
C37   H23   S    
C17   C18   A    
C1    C16   S    
C38   H25   S    
C12   O4    A    
C1    O2    A    
C31   H1    S    
C30   H9    S    
C2    C5    S    
C22   O10   S    
C3    C4    S    
C10   H16   S    
C40   H30   S    
C23   O5    A    
C7    C32   T    
C14   C19   A    
C3    C5    S    
O5    Zn1   S    
C3    H12   S    
C36   C37   S    
C35   H17   S    
C9    C15   A    
C25   N2    A    
C26   N1    A    
C28   N2    A    
C39   C40   S    
C30   C31   S    
C21   H6    S    
C20   C26   A    
O3    Zn1   S    
C28   H8    S    
O4    Zn2   S    
C8    C33   T    
C38   C39   S    
C12   O3    A    
C10   C11   A    
O9    C35   S    
C20   C21   A    
C27   C28   A    
C14   C15   A    
C37   H22   S    
C34   H13   S    
C21   C22   A    
C4    C30   S    
