data_mof_unit_65656.cif
_audit_creation_date              2013-03-05T15:49:58-0500
_audit_creation_method            fapswitch 2.2
_symmetry_space_group_name_H-M    P1
_symmetry_Int_Tables_number       1
_space_group_crystal_system       triclinic
_cell_length_a                    21.749278
_cell_length_b                    21.749171
_cell_length_c                    38.627337
_cell_angle_alpha                 89.988121
_cell_angle_beta                  89.997867
_cell_angle_gamma                 90.029244
_cell_volume                      18271.838783

loop_
_atom_site_label
_atom_site_type_symbol
_atom_site_description
_atom_site_fract_x
_atom_site_fract_y
_atom_site_fract_z
_atom_type_partial_charge
O1    O     O_R   0.551620 0.091530 0.500110 -0.578702
O2    O     O_R   0.908470 0.551620 0.500110 -0.578693
O3    O     O_R   0.448380 0.908470 0.500110 -0.578686
O4    O     O_R   0.091530 0.448380 0.500110 -0.578686
O5    O     O_R   0.551620 0.908470 0.499890 -0.577280
O6    O     O_R   0.908470 0.448380 0.499890 -0.578805
O7    O     O_R   0.448380 0.091530 0.499890 -0.577317
O8    O     O_R   0.091530 0.551620 0.499890 -0.578892
O9    O     O_R   0.051620 0.591530 0.000110 -0.578928
O10   O     O_R   0.408470 0.051620 0.000110 -0.577218
O11   O     O_R   0.948380 0.408470 0.000110 -0.578914
O12   O     O_R   0.591530 0.948380 0.000110 -0.577209
O13   O     O_R   0.051620 0.408470 0.999890 -0.578809
O14   O     O_R   0.408470 0.948380 0.999890 -0.578646
O15   O     O_R   0.948380 0.591530 0.999890 -0.578758
O16   O     O_R   0.591530 0.051620 0.999890 -0.578584
C1    C     C_R   0.500011 0.119820 0.500063 0.868963
C2    C     C_R   0.880197 0.499985 0.499994 0.868846
C3    C     C_R   0.499988 0.880180 0.500061 0.868822
C4    C     C_R   0.119803 0.500014 0.499999 0.868504
C5    C     C_R   0.000013 0.619804 0.999991 0.868530
C6    C     C_R   0.380181 0.999987 0.999933 0.868597
C7    C     C_R   0.999981 0.380195 0.000009 0.869699
C8    C     C_R   0.619819 0.000011 0.999934 0.868445
O17   O     O_R   0.551620 0.999930 0.449180 -0.607442
O18   O     O_R   0.000070 0.551620 0.449180 -0.601788
O19   O     O_R   0.448380 0.000070 0.449180 -0.607435
O20   O     O_R   0.999930 0.448380 0.449180 -0.601610
O21   O     O_R   0.551620 0.000070 0.550820 -0.601219
O22   O     O_R   0.000070 0.448380 0.550820 -0.601789
O23   O     O_R   0.448380 0.999930 0.550820 -0.601231
O24   O     O_R   0.999930 0.551620 0.550820 -0.601755
O25   O     O_R   0.051620 0.499930 0.949180 -0.601902
O26   O     O_R   0.500070 0.051620 0.949180 -0.601078
O27   O     O_R   0.948380 0.500070 0.949180 -0.601862
O28   O     O_R   0.499930 0.948380 0.949180 -0.601011
O29   O     O_R   0.051620 0.500070 0.050820 -0.601690
O30   O     O_R   0.500070 0.948380 0.050820 -0.607295
O31   O     O_R   0.948380 0.499930 0.050820 -0.602588
O32   O     O_R   0.499930 0.051620 0.050820 -0.607322
C9    C     C_R   0.500001 0.999994 0.432858 0.903889
C10   C     C_R   0.000051 0.500014 0.432800 0.899188
C11   C     C_R   0.500000 0.999998 0.567201 0.899228
C12   C     C_R   0.000000 0.499995 0.567201 0.899440
C13   C     C_R   0.000002 0.500014 0.932800 0.899442
C14   C     C_R   0.500005 0.000005 0.932800 0.899140
C15   C     C_R   0.999996 0.500082 0.067201 0.899752
C16   C     C_R   0.500003 0.999994 0.067143 0.903848
Zn1   Zn    Zn3+2 0.568970 0.000000 0.500000 1.111957
Zn2   Zn    Zn3+2 1.000000 0.568970 0.500000 1.113943
Zn3   Zn    Zn3+2 0.431030 0.000000 0.500000 1.111991
Zn4   Zn    Zn3+2 0.000000 0.431030 0.500000 1.114076
Zn5   Zn    Zn3+2 0.068970 0.500000 0.000000 1.113386
Zn6   Zn    Zn3+2 0.500000 0.068970 0.000000 1.112270
Zn7   Zn    Zn3+2 0.931030 0.500000 0.000000 1.113524
Zn8   Zn    Zn3+2 0.500000 0.931030 0.000000 1.112397
Zn9   Zn    Zn3+2 0.500000 0.500000 0.538510 1.224589
Zn10  Zn    Zn3+2 0.500000 0.500000 0.461490 1.223796
Zn11  Zn    Zn3+2 0.000000 1.000000 0.038510 1.223872
Zn12  Zn    Zn3+2 0.000000 0.000000 0.961490 1.224571
C17   C     C_R   0.444760 0.006472 0.377145 -0.102618
C18   C     C_R   0.977551 0.449312 0.376795 -0.109953
C19   C     C_R   0.555250 0.993460 0.377148 -0.102722
C20   C     C_R   0.022894 0.551166 0.377004 -0.110385
C21   C     C_R   0.448906 0.977714 0.623112 -0.109733
C22   C     C_R   0.977773 0.551089 0.623102 -0.109530
C23   C     C_R   0.551101 0.022297 0.623099 -0.109851
C24   C     C_R   0.022226 0.448882 0.623111 -0.109681
C25   C     C_R   0.948954 0.522366 0.876894 -0.109591
C26   C     C_R   0.477631 0.948964 0.876898 -0.109950
C27   C     C_R   0.051075 0.477715 0.876900 -0.109282
C28   C     C_R   0.522406 0.051075 0.876895 -0.110231
C29   C     C_R   0.948754 0.479150 0.123238 -0.106773
C30   C     C_R   0.493585 0.055228 0.122855 -0.102940
C31   C     C_R   0.050929 0.523623 0.122970 -0.125761
C32   C     C_R   0.506453 0.944722 0.122855 -0.102920
H1    H     H_    0.401973 0.011489 0.391246 0.185214
H2    H     H_    0.959558 0.410106 0.390856 0.163271
H3    H     H_    0.598036 0.988463 0.391253 0.185124
H4    H     H_    0.040934 0.590161 0.391222 0.163322
H5    H     H_    0.409659 0.960001 0.608984 0.164250
H6    H     H_    0.960106 0.590339 0.608966 0.163929
H7    H     H_    0.590346 0.040006 0.608961 0.164268
H8    H     H_    0.039887 0.409632 0.608981 0.163934
H9    H     H_    0.909739 0.540106 0.891026 0.163640
H10   H     H_    0.459842 0.909750 0.891034 0.164341
H11   H     H_    0.090286 0.459969 0.891036 0.163617
H12   H     H_    0.540189 0.090283 0.891028 0.164342
H13   H     H_    0.909553 0.461070 0.109215 0.163083
H14   H     H_    0.488626 0.098026 0.108753 0.185515
H15   H     H_    0.090320 0.541021 0.108812 0.170061
H16   H     H_    0.511407 0.901934 0.108753 0.185523
C33   C     C_R   0.443680 0.004801 0.341151 0.148250
C34   C     C_R   0.977094 0.449069 0.340644 0.158935
C35   C     C_R   0.556334 0.995086 0.341153 0.148319
C36   C     C_R   0.023206 0.552008 0.340869 0.158866
C37   C     C_R   0.448356 0.977375 0.659255 0.157808
C38   C     C_R   0.977426 0.551641 0.659244 0.158041
C39   C     C_R   0.551658 0.022656 0.659241 0.157773
C40   C     C_R   0.022582 0.448329 0.659253 0.158038
C41   C     C_R   0.948409 0.522723 0.840752 0.158293
C42   C     C_R   0.477283 0.948419 0.840757 0.157660
C43   C     C_R   0.051627 0.477354 0.840758 0.158232
C44   C     C_R   0.522764 0.051634 0.840752 0.157684
C45   C     C_R   0.948044 0.479878 0.159376 0.156922
C46   C     C_R   0.495248 0.056296 0.158850 0.148129
C47   C     C_R   0.051242 0.525555 0.159070 0.162150
C48   C     C_R   0.504807 0.943630 0.158850 0.148107
C49   C     C_R   0.500008 0.999935 0.322783 0.040471
C50   C     C_R   0.000048 0.500721 0.322595 0.063020
C51   C     C_R   0.500009 0.000020 0.677401 0.061412
C52   C     C_R   0.000008 0.499986 0.677402 0.061753
C53   C     C_R   0.000018 0.500034 0.822601 0.061970
C54   C     C_R   0.500026 0.000030 0.822601 0.061284
C55   C     C_R   0.999566 0.503166 0.177423 0.072889
C56   C     C_R   0.500028 0.999957 0.177219 0.040343
C57   C     C_R   0.500004 0.999975 0.395147 -0.078659
C58   C     C_R   0.000193 0.500127 0.394969 -0.032050
C59   C     C_R   0.500002 0.000001 0.605034 -0.034362
C60   C     C_R   1.000000 0.499987 0.605034 -0.033284
C61   C     C_R   0.000012 0.500037 0.894968 -0.032444
C62   C     C_R   0.500016 0.000015 0.894968 -0.034728
C63   C     C_R   0.999961 0.500779 0.105032 -0.029302
C64   C     C_R   0.500013 0.999981 0.104854 -0.079584
N1    N     N_R   0.537667 0.961735 0.267160 -0.170070
N2    N     N_R   0.962474 0.540376 0.267434 -0.158518
N3    N     N_R   0.462358 0.038135 0.267153 -0.170019
N4    N     N_R   0.036945 0.462664 0.266929 -0.159299
N5    N     N_R   0.462007 0.038125 0.732798 -0.159318
N6    N     N_R   0.961902 0.461967 0.732812 -0.159103
N7    N     N_R   0.538032 0.961934 0.732804 -0.159345
N8    N     N_R   0.038133 0.538030 0.732792 -0.159150
N9    N     N_R   0.961880 0.462004 0.767211 -0.159009
N10   N     N_R   0.462036 0.038152 0.767197 -0.159348
N11   N     N_R   0.038156 0.538021 0.767190 -0.159134
N12   N     N_R   0.538016 0.961916 0.767203 -0.159407
N13   N     N_R   0.962371 0.541016 0.233037 -0.157313
N14   N     N_R   0.538165 0.962233 0.232848 -0.170059
N15   N     N_R   0.036891 0.463333 0.232530 -0.153267
N16   N     N_R   0.461870 0.037649 0.232842 -0.170037
C65   C     C_R   0.500021 0.999945 0.215097 0.310293
C66   C     C_R   0.999614 0.502539 0.215142 0.283890
C67   C     C_R   0.500029 0.000037 0.784851 0.294992
C68   C     C_R   0.000017 0.500020 0.784852 0.294766
C69   C     C_R   0.000018 0.499991 0.715151 0.294790
C70   C     C_R   0.500015 0.000026 0.715150 0.294980
C71   C     C_R   0.999752 0.501191 0.284836 0.291604
C72   C     C_R   0.500010 0.999932 0.284905 0.310287
H17   H     H_    0.495139 0.197784 0.619317 0.201337
H18   H     H_    0.802180 0.496722 0.619176 0.201348
H19   H     H_    0.505060 0.802067 0.619313 0.201328
H20   H     H_    0.197810 0.503476 0.619186 0.201340
H21   H     H_    0.493307 0.801586 0.381034 0.200653
H22   H     H_    0.802159 0.503027 0.380808 0.201314
H23   H     H_    0.506261 0.198487 0.381036 0.200671
H24   H     H_    0.197860 0.496830 0.380823 0.201391
H25   H     H_    0.997183 0.697673 0.119151 0.201043
H26   H     H_    0.301520 0.992631 0.118953 0.200641
H27   H     H_    0.001152 0.302212 0.119189 0.201496
H28   H     H_    0.698517 0.007366 0.118944 0.200625
H29   H     H_    0.997845 0.302314 0.880826 0.201358
H30   H     H_    0.302084 0.005610 0.880684 0.201320
H31   H     H_    0.002993 0.697892 0.880805 0.201350
H32   H     H_    0.697894 0.994002 0.880679 0.201311
C73   C     C_R   0.518737 0.192051 0.436219 0.247714
C74   C     C_R   0.808486 0.516952 0.435864 0.242900
C75   C     C_R   0.481044 0.807998 0.436232 0.247644
C76   C     C_R   0.191534 0.482954 0.435886 0.242703
C77   C     C_R   0.518047 0.808476 0.564188 0.242907
C78   C     C_R   0.808478 0.482877 0.564114 0.242986
C79   C     C_R   0.482035 0.191459 0.564200 0.242812
C80   C     C_R   0.191511 0.517220 0.564113 0.242998
C81   C     C_R   0.016976 0.691563 0.935857 0.242996
C82   C     C_R   0.308502 0.018327 0.935825 0.242916
C83   C     C_R   0.983445 0.308522 0.935848 0.242841
C84   C     C_R   0.691479 0.981481 0.935839 0.242874
C85   C     C_R   0.016002 0.308470 0.064204 0.243286
C86   C     C_R   0.307980 0.980710 0.063736 0.247759
C87   C     C_R   0.983043 0.691504 0.064104 0.243058
C88   C     C_R   0.692040 0.019297 0.063724 0.247806
C89   C     C_R   0.495843 0.218909 0.405929 -0.224597
C90   C     C_R   0.781482 0.493524 0.405758 -0.226914
C91   C     C_R   0.503825 0.781155 0.405916 -0.224612
C92   C     C_R   0.218529 0.506367 0.405768 -0.226973
C93   C     C_R   0.495164 0.781403 0.594412 -0.226661
C94   C     C_R   0.781512 0.506269 0.594233 -0.226816
C95   C     C_R   0.504983 0.218485 0.594415 -0.226706
C96   C     C_R   0.218479 0.493885 0.594249 -0.226804
C97   C     C_R   0.993510 0.718547 0.905756 -0.226801
C98   C     C_R   0.281422 0.995595 0.905574 -0.226732
C99   C     C_R   0.007140 0.281607 0.905791 -0.226827
C100  C     C_R   0.718561 0.004099 0.905555 -0.226689
C101  C     C_R   0.992085 0.281496 0.094202 -0.226738
C102  C     C_R   0.281110 0.003302 0.094089 -0.224616
C103  C     C_R   0.006633 0.718389 0.094204 -0.228923
C104  C     C_R   0.718917 0.996694 0.094078 -0.224716
C105  C     C_R   0.459999 0.272140 0.407434 0.071140
C106  C     C_R   0.727905 0.458200 0.407504 0.072941
C107  C     C_R   0.539680 0.727926 0.407382 0.071241
C108  C     C_R   0.272091 0.541719 0.407496 0.072944
C109  C     C_R   0.459829 0.727815 0.592844 0.071857
C110  C     C_R   0.727982 0.541614 0.592509 0.072055
C111  C     C_R   0.540308 0.272079 0.592835 0.071869
C112  C     C_R   0.272013 0.458543 0.592551 0.072092
C113  C     C_R   0.958168 0.772077 0.907509 0.072048
C114  C     C_R   0.227838 0.960247 0.907103 0.071914
C115  C     C_R   0.042443 0.228058 0.907600 0.072041
C116  C     C_R   0.772156 0.039431 0.907033 0.072044
C117  C     C_R   0.956826 0.227895 0.092306 0.072612
C118  C     C_R   0.227885 0.039168 0.092679 0.071178
C119  C     C_R   0.042027 0.771926 0.092453 0.073388
C120  C     C_R   0.772128 0.960805 0.092667 0.071223
C121  C     C_R   0.454037 0.303689 0.439330 0.354137
C122  C     C_R   0.696215 0.453216 0.439417 0.353758
C123  C     C_R   0.545768 0.696366 0.439273 0.354152
C124  C     C_R   0.303777 0.546741 0.439406 0.353808
C125  C     C_R   0.454297 0.696175 0.560949 0.354387
C126  C     C_R   0.696293 0.546654 0.560601 0.353906
C127  C     C_R   0.545759 0.303776 0.560946 0.354368
C128  C     C_R   0.303701 0.453445 0.560647 0.353986
C129  C     C_R   0.953207 0.803750 0.939423 0.353847
C130  C     C_R   0.196210 0.954549 0.938996 0.354531
C131  C     C_R   0.047136 0.196300 0.939508 0.353698
C132  C     C_R   0.803786 0.045234 0.938915 0.354750
C133  C     C_R   0.952419 0.196137 0.060392 0.353546
C134  C     C_R   0.196362 0.045463 0.060794 0.354253
C135  C     C_R   0.046900 0.803710 0.060558 0.353962
C136  C     C_R   0.803636 0.954504 0.060776 0.354362
C137  C     C_R   0.484187 0.279611 0.469378 -0.059180
C138  C     C_R   0.720401 0.483903 0.469274 -0.058702
C139  C     C_R   0.515711 0.720418 0.469351 -0.059177
C140  C     C_R   0.279599 0.516067 0.469277 -0.058610
C141  C     C_R   0.484584 0.720338 0.530949 -0.057494
C142  C     C_R   0.720429 0.515996 0.530728 -0.058500
C143  C     C_R   0.515442 0.279638 0.530955 -0.057572
C144  C     C_R   0.279567 0.484052 0.530750 -0.058514
C145  C     C_R   0.983937 0.779595 0.969272 -0.058531
C146  C     C_R   0.220356 0.984722 0.969029 -0.057388
C147  C     C_R   0.016250 0.220436 0.969308 -0.058716
C148  C     C_R   0.779639 0.015181 0.968994 -0.057531
C149  C     C_R   0.983491 0.220359 0.030659 -0.058914
C150  C     C_R   0.220417 0.015561 0.030668 -0.059107
C151  C     C_R   0.016140 0.779579 0.030710 -0.058764
C152  C     C_R   0.779585 0.984436 0.030655 -0.058887
C153  C     C_R   0.502605 0.218239 0.468527 -0.058751
C154  C     C_R   0.781922 0.502055 0.468315 -0.057253
C155  C     C_R   0.497291 0.781790 0.468522 -0.058833
C156  C     C_R   0.218085 0.497900 0.468328 -0.057236
C157  C     C_R   0.502715 0.781885 0.531817 -0.057241
C158  C     C_R   0.781927 0.497826 0.531673 -0.057281
C159  C     C_R   0.497325 0.218085 0.531825 -0.057207
C160  C     C_R   0.218068 0.502222 0.531682 -0.057290
C161  C     C_R   0.002102 0.718095 0.968309 -0.057180
C162  C     C_R   0.281901 0.002863 0.968181 -0.057261
C163  C     C_R   0.998120 0.281944 0.968322 -0.057257
C164  C     C_R   0.718090 0.997043 0.968173 -0.057303
C165  C     C_R   0.001601 0.281894 0.031692 -0.057018
C166  C     C_R   0.281784 0.997125 0.031470 -0.058951
C167  C     C_R   0.997965 0.718069 0.031662 -0.057124
C168  C     C_R   0.718224 0.002884 0.031458 -0.058890
C169  C     C_R   0.499825 0.312843 0.500131 -0.058207
C170  C     C_R   0.687198 0.499967 0.500001 -0.059063
C171  C     C_R   0.500149 0.687158 0.500116 -0.058149
C172  C     C_R   0.312801 0.500036 0.500010 -0.059011
C173  C     C_R   0.000026 0.812805 0.999997 -0.059123
C174  C     C_R   0.187164 0.000154 0.999882 -0.058036
C175  C     C_R   0.999926 0.187188 0.999987 -0.059302
C176  C     C_R   0.812836 0.999831 0.999864 -0.058013
C177  C     C_R   0.500005 0.185783 0.500151 -0.062474
C178  C     C_R   0.814265 0.499951 0.499993 -0.062757
C179  C     C_R   0.499985 0.814218 0.500146 -0.062501
C180  C     C_R   0.185735 0.500047 0.500003 -0.062714
C181  C     C_R   0.000037 0.685739 0.999986 -0.062609
C182  C     C_R   0.314222 0.999983 0.999848 -0.062634
C183  C     C_R   0.999925 0.314258 0.000010 -0.062613
C184  C     C_R   0.685777 0.000007 0.999842 -0.062665
O33   O     O_R   0.591500 0.499930 0.528880 -0.576834
O34   O     O_R   0.500070 0.591500 0.528880 -0.576975
O35   O     O_R   0.408500 0.500070 0.528880 -0.576864
O36   O     O_R   0.499930 0.408500 0.528880 -0.576989
O37   O     O_R   0.591500 0.500070 0.471120 -0.577175
O38   O     O_R   0.500070 0.408500 0.471120 -0.576733
O39   O     O_R   0.408500 0.499930 0.471120 -0.577074
O40   O     O_R   0.499930 0.591500 0.471120 -0.576756
O41   O     O_R   0.091500 0.999930 0.028880 -0.576759
O42   O     O_R   0.000070 0.091500 0.028880 -0.577227
O43   O     O_R   0.908500 0.000070 0.028880 -0.576421
O44   O     O_R   0.999930 0.908500 0.028880 -0.577182
O45   O     O_R   0.091500 0.000070 0.971120 -0.576817
O46   O     O_R   0.000070 0.908500 0.971120 -0.576966
O47   O     O_R   0.908500 0.999930 0.971120 -0.576980
O48   O     O_R   0.999930 0.091500 0.971120 -0.577013
C185  C     C_R   0.620420 0.499993 0.500000 0.952031
C186  C     C_R   0.500028 0.620407 0.500020 0.952764
C187  C     C_R   0.379579 0.500004 0.500002 0.952072
C188  C     C_R   0.499969 0.379593 0.500026 0.952661
C189  C     C_R   0.120409 0.000034 0.999978 0.952886
C190  C     C_R   0.999992 0.120416 0.999995 0.951637
C191  C     C_R   0.879590 0.999980 0.999974 0.952791
C192  C     C_R   0.000007 0.879581 0.000001 0.952141
C193  C     C_3   0.381815 0.006245 0.323370 -0.822927
H33   H     H_    0.378448 0.968112 0.304349 0.250441
H34   H     H_    0.343391 0.000531 0.342052 0.245206
H35   H     H_    0.375143 0.051069 0.310189 0.250072
C194  C     C_3   0.950823 0.394290 0.321808 -0.856042
H36   H     H_    0.912737 0.409288 0.304628 0.240373
H37   H     H_    0.987161 0.371993 0.306037 0.262458
H38   H     H_    0.932278 0.359371 0.340024 0.243517
C195  C     C_3   0.618200 0.993618 0.323372 -0.822978
H39   H     H_    0.624862 0.948785 0.310209 0.250056
H40   H     H_    0.621578 0.031739 0.304336 0.250470
H41   H     H_    0.656624 0.999330 0.342052 0.245162
C196  C     C_3   0.049463 0.607090 0.322285 -0.855806
H42   H     H_    0.087332 0.592324 0.304892 0.239720
H43   H     H_    0.013044 0.629830 0.306774 0.262827
H44   H     H_    0.068306 0.641580 0.340653 0.243564
C197  C     C_3   0.393200 0.951639 0.677990 -0.854236
H45   H     H_    0.407730 0.913460 0.695235 0.240487
H46   H     H_    0.371121 0.988212 0.693684 0.262058
H47   H     H_    0.358250 0.933371 0.659713 0.244117
C198  C     C_3   0.951749 0.606803 0.677965 -0.854538
H48   H     H_    0.913561 0.592277 0.695214 0.240521
H49   H     H_    0.988346 0.628891 0.693654 0.262172
H50   H     H_    0.933507 0.641745 0.659679 0.243999
C199  C     C_3   0.606817 0.048403 0.677960 -0.854282
H51   H     H_    0.592288 0.086586 0.695195 0.240496
H52   H     H_    0.628905 0.011838 0.693664 0.262056
H53   H     H_    0.641759 0.066670 0.659672 0.244113
C200  C     C_3   0.048264 0.393169 0.677984 -0.854492
H54   H     H_    0.086461 0.407694 0.695222 0.240504
H55   H     H_    0.011672 0.371086 0.693686 0.262178
H56   H     H_    0.066493 0.358222 0.659704 0.244016
C201  C     C_3   0.893307 0.548525 0.822022 -0.854704
H57   H     H_    0.907922 0.586677 0.804769 0.240517
H58   H     H_    0.871134 0.511976 0.806337 0.262220
H59   H     H_    0.858409 0.566851 0.840303 0.243973
C202  C     C_3   0.451429 0.893318 0.822033 -0.854167
H60   H     H_    0.413288 0.907931 0.804786 0.240492
H61   H     H_    0.487956 0.871153 0.806341 0.262042
H62   H     H_    0.433076 0.858412 0.840318 0.244128
C203  C     C_3   0.106731 0.451545 0.822036 -0.854855
H63   H     H_    0.092119 0.413381 0.804801 0.240562
H64   H     H_    0.128900 0.488086 0.806334 0.262209
H65   H     H_    0.141632 0.433234 0.840323 0.243937
C204  C     C_3   0.548620 0.106743 0.822023 -0.854102
H66   H     H_    0.586768 0.092138 0.804781 0.240473
H67   H     H_    0.512097 0.128911 0.806327 0.262040
H68   H     H_    0.566966 0.141644 0.840305 0.244153
C205  C     C_3   0.892800 0.454567 0.178230 -0.855827
H69   H     H_    0.907213 0.416655 0.195691 0.240782
H70   H     H_    0.870787 0.491465 0.193716 0.262180
H71   H     H_    0.857821 0.436060 0.160046 0.243606
C206  C     C_3   0.493888 0.118159 0.176629 -0.822982
H72   H     H_    0.532019 0.121467 0.195658 0.250395
H73   H     H_    0.499663 0.156580 0.157947 0.245205
H74   H     H_    0.449069 0.124893 0.189801 0.250111
C207  C     C_3   0.106958 0.552890 0.176581 -0.860000
H75   H     H_    0.102119 0.556641 0.205050 0.246885
H76   H     H_    0.147886 0.524122 0.170882 0.261533
H77   H     H_    0.115120 0.599978 0.166425 0.238234
C208  C     C_3   0.506181 0.881756 0.176632 -0.822933
H78   H     H_    0.468049 0.878428 0.195661 0.250401
H79   H     H_    0.500419 0.843346 0.157951 0.245221
H80   H     H_    0.551000 0.875026 0.189804 0.250097
N17   N     N_R   0.568037 0.148366 0.433477 0.211566
O49   O     O_R   0.615184 0.153732 0.454007 -0.320895
O50   O     O_R   0.575136 0.117373 0.404992 -0.426768
N18   N     N_R   0.853193 0.565323 0.432671 0.210147
O51   O     O_R   0.848283 0.613494 0.452461 -0.318259
O52   O     O_R   0.885079 0.570484 0.404336 -0.420042
N19   N     N_R   0.431719 0.851667 0.433547 0.211710
O53   O     O_R   0.384631 0.846249 0.454119 -0.320803
O54   O     O_R   0.424529 0.882702 0.405077 -0.426759
N20   N     N_R   0.146868 0.434541 0.432723 0.210206
O55   O     O_R   0.151803 0.386406 0.452550 -0.318176
O56   O     O_R   0.114998 0.429308 0.404389 -0.419963
N21   N     N_R   0.566324 0.853324 0.567136 0.210375
O57   O     O_R   0.614333 0.848395 0.547217 -0.318267
O58   O     O_R   0.571638 0.885433 0.595377 -0.419943
N22   N     N_R   0.853119 0.434486 0.567277 0.210159
O59   O     O_R   0.848152 0.386354 0.547458 -0.318463
O60   O     O_R   0.885000 0.429263 0.595608 -0.420094
N23   N     N_R   0.433732 0.146639 0.567166 0.210356
O61   O     O_R   0.385731 0.151578 0.547243 -0.318252
O62   O     O_R   0.428389 0.114557 0.595423 -0.419889
N24   N     N_R   0.146864 0.565610 0.567241 0.210238
O63   O     O_R   0.151853 0.613729 0.547402 -0.318427
O64   O     O_R   0.114949 0.570847 0.595558 -0.420075
N25   N     N_R   0.065356 0.646918 0.932661 0.210064
O65   O     O_R   0.113505 0.651832 0.952475 -0.318502
O66   O     O_R   0.070551 0.615098 0.904310 -0.420171
N26   N     N_R   0.353377 0.066590 0.932933 0.210477
O67   O     O_R   0.348416 0.114560 0.952873 -0.318284
O68   O     O_R   0.385567 0.071943 0.904717 -0.419830
N27   N     N_R   0.935022 0.353106 0.932564 0.209925
O69   O     O_R   0.886823 0.348194 0.952343 -0.318488
O70   O     O_R   0.929859 0.384833 0.904172 -0.420121
N28   N     N_R   0.646599 0.933214 0.933010 0.210619
O71   O     O_R   0.651611 0.885269 0.952975 -0.318126
O72   O     O_R   0.614346 0.927826 0.904822 -0.419778
N29   N     N_R   0.064293 0.353213 0.067613 0.209551
O73   O     O_R   0.112676 0.348463 0.047971 -0.318828
O74   O     O_R   0.069127 0.384963 0.096011 -0.421270
N30   N     N_R   0.351675 0.931398 0.066344 0.211891
O75   O     O_R   0.346203 0.884350 0.045754 -0.320781
O76   O     O_R   0.382820 0.924171 0.094769 -0.426775
N31   N     N_R   0.934466 0.647015 0.067293 0.210380
O77   O     O_R   0.886441 0.651980 0.047390 -0.318213
O78   O     O_R   0.928978 0.615353 0.095689 -0.419833
N32   N     N_R   0.648346 0.068608 0.066330 0.211880
O79   O     O_R   0.653810 0.115658 0.045729 -0.320802
O80   O     O_R   0.617205 0.075829 0.094756 -0.426827
C209  C     C_3   0.429466 0.294783 0.374826 -0.736092
H81   H     H_    0.436483 0.262529 0.352880 0.216231
H82   H     H_    0.379169 0.299301 0.379033 0.263324
H83   H     H_    0.449113 0.339924 0.367246 0.267898
C210  C     C_3   0.705130 0.427011 0.375119 -0.739660
H84   H     H_    0.737496 0.433272 0.353144 0.215446
H85   H     H_    0.700223 0.376851 0.379719 0.262749
H86   H     H_    0.660159 0.446760 0.367345 0.268440
C211  C     C_3   0.570084 0.705293 0.374738 -0.736252
H87   H     H_    0.562952 0.737537 0.352792 0.216228
H88   H     H_    0.620401 0.700802 0.378876 0.263250
H89   H     H_    0.550428 0.660138 0.367200 0.267949
C212  C     C_3   0.294853 0.572895 0.375095 -0.739670
H90   H     H_    0.262492 0.566599 0.353124 0.215515
H91   H     H_    0.299733 0.623060 0.379671 0.262671
H92   H     H_    0.339835 0.553162 0.367331 0.268479
C213  C     C_3   0.429171 0.704998 0.625387 -0.737467
H93   H     H_    0.435866 0.737291 0.647350 0.215709
H94   H     H_    0.378927 0.700179 0.621068 0.263004
H95   H     H_    0.448986 0.659974 0.633012 0.268467
C214  C     C_3   0.705256 0.572762 0.624911 -0.737322
H96   H     H_    0.737619 0.566459 0.646879 0.215641
H97   H     H_    0.700414 0.622930 0.620335 0.263074
H98   H     H_    0.660261 0.553014 0.632681 0.268454
C215  C     C_3   0.571040 0.294845 0.625360 -0.737421
H99   H     H_    0.564434 0.262495 0.647314 0.215700
H100  H     H_    0.621268 0.299711 0.620998 0.263043
H101  H     H_    0.551215 0.339837 0.633026 0.268455
C216  C     C_3   0.294746 0.427457 0.624977 -0.737326
H102  H     H_    0.262389 0.433806 0.646944 0.215643
H103  H     H_    0.299582 0.377280 0.620444 0.263058
H104  H     H_    0.339744 0.447216 0.632724 0.268471
C217  C     C_3   0.926938 0.794817 0.875130 -0.737406
H105  H     H_    0.933181 0.762461 0.853157 0.215636
H106  H     H_    0.876783 0.799661 0.879742 0.263062
H107  H     H_    0.946669 0.839813 0.867346 0.268439
C218  C     C_3   0.205013 0.929746 0.874522 -0.737546
H108  H     H_    0.237282 0.936580 0.852556 0.215715
H109  H     H_    0.200233 0.879476 0.878766 0.262987
H110  H     H_    0.159969 0.949571 0.866947 0.268474
C219  C     C_3   0.073905 0.205377 0.875283 -0.737281
H111  H     H_    0.067887 0.237813 0.853320 0.215608
H112  H     H_    0.124015 0.200448 0.880018 0.263157
H113  H     H_    0.054176 0.160434 0.867413 0.268410
C220  C     C_3   0.795003 0.069805 0.874412 -0.737481
H114  H     H_    0.762745 0.062894 0.852452 0.215727
H115  H     H_    0.799796 0.120089 0.878586 0.263001
H116  H     H_    0.840050 0.049945 0.866873 0.268485
C221  C     C_3   0.925071 0.205184 0.124540 -0.739191
H117  H     H_    0.930792 0.237682 0.146495 0.215567
H118  H     H_    0.875019 0.200102 0.119648 0.262895
H119  H     H_    0.944800 0.160313 0.132513 0.268287
C222  C     C_3   0.205216 0.069368 0.125374 -0.736022
H120  H     H_    0.237415 0.062064 0.147319 0.216235
H121  H     H_    0.200766 0.119716 0.121334 0.263217
H122  H     H_    0.160035 0.049692 0.132853 0.268027
C223  C     C_3   0.073393 0.794561 0.124816 -0.741396
H123  H     H_    0.067248 0.762097 0.146759 0.214743
H124  H     H_    0.123528 0.799478 0.120142 0.262595
H125  H     H_    0.053693 0.839500 0.132679 0.269075
C224  C     C_3   0.794793 0.930588 0.125364 -0.736134
H126  H     H_    0.762607 0.937907 0.147313 0.216226
H127  H     H_    0.799211 0.880238 0.121333 0.263240
H128  H     H_    0.839988 0.950238 0.132832 0.267987
N33   N     N_R   0.409287 0.352060 0.442306 0.202741
O81   O     O_R   0.407640 0.396950 0.420039 -0.380603
O82   O     O_R   0.366781 0.348600 0.465845 -0.343078
N34   N     N_R   0.647567 0.408784 0.442668 0.202167
O83   O     O_R   0.602675 0.406969 0.420413 -0.381398
O84   O     O_R   0.650898 0.366547 0.466369 -0.344210
N35   N     N_R   0.590565 0.648029 0.442207 0.202792
O85   O     O_R   0.592156 0.603134 0.419953 -0.380524
O86   O     O_R   0.633171 0.651537 0.465684 -0.342877
N36   N     N_R   0.352407 0.591196 0.442639 0.202170
O87   O     O_R   0.397291 0.593033 0.420376 -0.381434
O88   O     O_R   0.349100 0.633393 0.466353 -0.344282
N37   N     N_R   0.409635 0.647695 0.557896 0.202620
O89   O     O_R   0.408035 0.602725 0.580115 -0.380424
O90   O     O_R   0.367100 0.651179 0.534378 -0.343494
N38   N     N_R   0.647704 0.591109 0.557375 0.202164
O91   O     O_R   0.602827 0.592923 0.579641 -0.380979
O92   O     O_R   0.651027 0.633308 0.533653 -0.344480
N39   N     N_R   0.590375 0.352298 0.557887 0.202592
O93   O     O_R   0.591937 0.397251 0.580106 -0.380368
O94   O     O_R   0.632950 0.348830 0.534391 -0.343489
N40   N     N_R   0.352277 0.408973 0.557455 0.202168
O95   O     O_R   0.397182 0.407225 0.579704 -0.380849
O96   O     O_R   0.348877 0.366654 0.533813 -0.344213
N41   N     N_R   0.908776 0.852353 0.942686 0.202130
O97   O     O_R   0.906876 0.897214 0.920407 -0.381174
O98   O     O_R   0.866731 0.849110 0.966495 -0.344778
N42   N     N_R   0.147791 0.909811 0.942009 0.202662
O99   O     O_R   0.102792 0.908273 0.919814 -0.380290
O100  O     O_R   0.151392 0.867123 0.965440 -0.343125
N43   N     N_R   0.091436 0.147593 0.942823 0.202003
O101  O     O_R   0.093332 0.102765 0.920533 -0.381195
O102  O     O_R   0.133462 0.150778 0.966642 -0.345041
N44   N     N_R   0.852174 0.090007 0.941854 0.202600
O103  O     O_R   0.897290 0.091311 0.919729 -0.379905
O104  O     O_R   0.848210 0.133178 0.964978 -0.342093
N45   N     N_R   0.908236 0.147299 0.056984 0.201967
O105  O     O_R   0.906198 0.102513 0.079308 -0.381884
O106  O     O_R   0.866494 0.150263 0.032999 -0.345483
N46   N     N_R   0.148087 0.090338 0.057927 0.202873
O107  O     O_R   0.103125 0.091798 0.080148 -0.380122
O108  O     O_R   0.151788 0.133207 0.034605 -0.342286
N47   N     N_R   0.091266 0.852420 0.057307 0.202158
O109  O     O_R   0.093147 0.897215 0.079618 -0.381486
O110  O     O_R   0.133278 0.849345 0.033473 -0.344873
N48   N     N_R   0.851888 0.909604 0.057898 0.202864
O111  O     O_R   0.896811 0.908031 0.080139 -0.380261
O112  O     O_R   0.848295 0.866921 0.034472 -0.342496

loop_
_geom_bond_atom_site_label_1
_geom_bond_atom_site_label_2
_geom_bond_distance
_ccdc_geom_bond_type
C31   C47   1.395101 A    
C207  H75   1.107758 S    
C41   C53   1.412669 A    
C220  H114  1.111036 S    
C43   C203  1.508364 S    
Zn12  O46   2.024441 S    
N39   O93   1.301533 A    
H29   C99   1.083290 S    
N34   O83   1.301513 A    
C159  C177  1.412197 A    
C202  H60   1.110474 S    
C162  C182  1.412235 A    
C87   N31   1.437558 S    
C87   C103  1.398907 A    
C223  H123  1.111052 S    
C224  H128  1.109823 S    
C85   C101  1.398861 A    
C146  C162  1.395681 A    
N4    N15   1.328807 A    
C176  C191  1.451871 S    
O18   Zn2   1.999061 S    
N15   C66   1.355015 A    
C44   C204  1.508357 S    
C193  H35   1.109348 S    
C79   C159  1.417482 A    
C222  H122  1.109820 S    
O25   C13   1.288695 A    
C94   C110  1.397038 A    
C175  C190  1.452233 S    
C145  C173  1.432753 A    
C212  H90   1.111031 S    
C77   C157  1.417504 A    
C86   C166  1.416162 A    
C28   H12   1.083833 S    
N10   C67   1.354837 A    
C7    C183  1.434092 S    
C98   C114  1.397058 A    
C81   C161  1.417534 A    
C218  H109  1.110338 S    
O3    C3    1.280289 A    
C138  C154  1.395368 A    
H28   C104  1.083253 S    
C221  H118  1.110348 S    
Zn12  O45   2.024539 S    
C209  H82   1.110338 S    
C150  C166  1.394173 A    
O5    Zn1   2.025968 S    
N18   O51   1.301468 A    
C206  H73   1.111037 S    
C133  N45   1.438065 S    
C208  H80   1.109349 S    
C165  C183  1.412134 A    
C106  C210  1.506808 S    
N16   C65   1.353379 A    
N26   O68   1.300518 A    
C35   C49   1.419690 A    
C125  C141  1.432581 A    
C216  H104  1.109813 S    
C3    C179  1.434615 S    
Zn10  O38   2.024441 S    
C13   C61   1.461349 S    
C201  H57   1.110474 S    
Zn11  O43   2.024540 S    
N1    C72   1.353386 A    
C129  C145  1.432572 A    
C32   C64   1.395465 A    
C219  H113  1.109809 S    
N24   O64   1.300504 A    
C42   C54   1.412656 A    
C22   H6    1.083827 S    
C86   C102  1.399327 A    
C15   C63   1.461404 S    
C136  C152  1.432218 A    
C214  H98   1.109810 S    
C37   C197  1.508361 S    
N40   O95   1.301525 A    
O44   C192  1.280720 A    
C170  C185  1.452378 S    
C204  H68   1.110856 S    
C136  N48   1.438213 S    
O26   Zn6   1.999061 S    
C207  H77   1.110805 S    
C147  C163  1.395367 A    
N25   O65   1.301461 A    
C220  H116  1.109829 S    
C120  C224  1.506669 S    
C82   N26   1.437291 S    
N23   O61   1.301465 A    
O27   C13   1.288735 A    
O8    Zn2   2.026353 S    
H30   C98   1.083303 S    
C202  H62   1.110852 S    
C121  C137  1.432306 A    
N42   O99   1.301534 A    
O31   C15   1.288673 A    
Zn11  O44   2.024591 S    
C201  H59   1.110852 S    
C79   N23   1.437348 S    
O32   C16   1.287624 A    
C120  C136  1.416312 A    
H25   C103  1.083311 S    
C139  C155  1.394174 A    
C151  C173  1.432628 A    
N46   O107  1.301520 A    
C154  C178  1.412177 A    
N14   C65   1.353389 A    
C124  N36   1.438085 S    
N2    C71   1.354998 A    
N4    C71   1.354931 A    
C25   C41   1.396144 A    
N1    N14   1.325475 A    
C29   H13   1.083834 S    
C53   C68   1.458159 S    
O45   C189  1.279840 A    
C54   C67   1.458159 S    
C30   H14   1.083836 S    
C46   C206  1.511037 S    
N33   O82   1.298808 A    
C131  C147  1.432621 A    
N17   O49   1.301523 A    
O9    C5    1.280121 A    
C37   C51   1.412654 A    
O11   C7    1.280007 A    
C211  H88   1.110337 S    
C171  C186  1.451783 S    
C80   C160  1.417587 A    
C75   N19   1.436899 S    
C217  H105  1.111038 S    
C198  H49   1.109672 S    
O16   Zn6   2.026353 S    
N42   O100  1.298855 A    
N43   O102  1.298762 A    
C88   N32   1.436844 S    
C104  C120  1.397332 A    
Zn12  O47   2.024511 S    
N19   O54   1.299693 A    
C198  H48   1.110472 S    
C164  C184  1.412268 A    
O6    Zn4   2.026355 S    
C220  H115  1.110337 S    
C128  N40   1.438060 S    
N22   O59   1.301471 A    
C140  C156  1.395314 A    
N13   C66   1.354681 A    
C106  C122  1.416391 A    
C115  C131  1.416433 A    
C205  H69   1.110446 S    
C95   C111  1.397054 A    
C166  C182  1.411875 A    
C148  C176  1.433444 A    
C152  C168  1.394106 A    
C89   C105  1.397294 A    
N29   O73   1.301436 A    
C20   C58   1.398800 A    
O21   Zn1   1.998968 S    
C213  H93   1.111035 S    
C31   C63   1.398335 A    
Zn11  O41   2.024513 S    
C122  N34   1.438054 S    
N7    C70   1.354831 A    
C107  C123  1.416324 A    
N8    C69   1.354830 A    
N12   C67   1.354833 A    
O35   C187  1.280612 A    
C134  C150  1.432272 A    
C30   C46   1.391050 A    
C131  N43   1.438037 S    
O34   C186  1.279754 A    
C52   C69   1.458147 S    
O13   C7    1.280173 A    
C219  H112  1.110342 S    
C199  H52   1.109673 S    
N20   O55   1.301468 A    
N44   O104  1.298940 A    
O2    Zn2   2.025976 S    
O37   C185  1.280686 A    
C29   C45   1.396089 A    
O39   C187  1.280731 A    
C92   C108  1.397072 A    
C215  H100  1.110341 S    
C149  C175  1.432693 A    
O28   C14   1.288703 A    
O26   C14   1.288725 A    
C172  C187  1.452383 S    
O29   C15   1.288794 A    
O30   C16   1.287633 A    
C116  C220  1.506773 S    
C31   H15   1.084330 S    
C141  C171  1.433343 A    
O29   Zn5   1.998968 S    
Zn9   O34   2.024439 S    
C39   C199  1.508365 S    
C126  N38   1.438093 S    
N41   O97   1.301520 A    
C118  C134  1.416291 A    
N36   O87   1.301516 A    
C144  C160  1.395382 A    
C101  C117  1.396985 A    
C210  H85   1.110345 S    
O19   Zn3   1.998970 S    
N20   O56   1.300509 A    
C203  H64   1.109659 S    
O24   C12   1.288710 A    
C148  C164  1.395740 A    
C40   C52   1.412660 A    
C38   C52   1.412650 A    
C111  C215  1.506793 S    
C127  C143  1.432613 A    
C146  C174  1.433336 A    
O46   C192  1.280589 A    
N30   O75   1.301543 A    
C20   C36   1.395951 A    
N7    N12   1.328726 A    
C51   C70   1.458143 S    
C87   C167  1.417401 A    
C48   C208  1.511033 S    
C74   N18   1.437461 S    
C222  H121  1.110340 S    
C96   C112  1.397028 A    
C56   C65   1.463134 S    
N45   O106  1.298773 A    
O15   Zn7   2.025964 S    
C217  H107  1.109816 S    
C24   C40   1.396148 A    
C102  C118  1.397287 A    
C132  C148  1.432573 A    
C26   C62   1.398862 A    
C76   N20   1.437476 S    
N35   O85   1.301520 A    
O40   C186  1.281304 A    
C198  H50   1.110852 S    
C39   C51   1.412642 A    
C132  N44   1.437956 S    
C99   C115  1.397029 A    
N37   O90   1.298811 A    
N32   O79   1.301541 A    
C110  C214  1.506804 S    
C195  H41   1.111036 S    
C205  H71   1.110858 S    
O32   Zn6   1.998904 S    
N28   O72   1.300525 A    
N3    N16   1.325461 A    
C2    C178  1.433982 S    
C25   H9    1.083827 S    
O18   C10   1.288541 A    
C8    C184  1.434550 S    
C213  H95   1.109822 S    
C83   N27   1.437549 S    
H27   C101  1.083306 S    
C27   C43   1.396125 A    
C173  C192  1.452321 S    
C140  C172  1.432660 A    
C45   C55   1.413429 A    
C14   C62   1.461346 S    
O23   Zn3   1.998995 S    
C5    C181  1.434031 S    
H18   C94   1.083293 S    
C137  C153  1.394189 A    
H23   C89   1.083255 S    
C137  C169  1.431579 A    
C116  C132  1.416272 A    
O12   C8    1.280187 A    
O1    C1    1.280316 A    
O14   C6    1.280268 A    
C24   C60   1.398890 A    
O14   Zn8   2.026355 S    
O38   C188  1.281287 A    
C41   C201  1.508359 S    
C114  C130  1.416345 A    
O36   C188  1.279760 A    
C150  C174  1.431618 A    
C135  N47   1.438096 S    
C194  H37   1.109656 S    
N21   O58   1.300516 A    
N48   O111  1.301520 A    
C80   N24   1.437449 S    
C168  C184  1.411874 A    
Zn9   O36   2.024591 S    
C142  C170  1.432706 A    
O30   Zn8   1.999057 S    
C143  C169  1.433347 A    
C218  H108  1.111031 S    
C125  N37   1.438136 S    
C216  H103  1.110349 S    
C9    C57   1.456664 S    
H32   C100  1.083306 S    
C23   C59   1.398888 A    
C215  H99   1.111040 S    
C11   C59   1.461388 S    
C174  C189  1.451861 S    
C193  H34   1.111039 S    
C30   C64   1.395457 A    
C138  C170  1.432694 A    
N2    N13   1.328737 A    
C209  H81   1.111014 S    
C212  H91   1.110348 S    
O48   C190  1.280576 A    
H20   C96   1.083297 S    
N18   O52   1.300511 A    
C206  H72   1.110501 S    
H24   C92   1.083299 S    
C141  C157  1.395695 A    
O10   C6    1.280218 A    
C23   H7    1.083826 S    
C208  H79   1.111039 S    
H26   C102  1.083248 S    
O43   C191  1.281434 A    
C112  C128  1.416381 A    
C145  C161  1.395381 A    
C119  C223  1.506800 S    
C47   C207  1.509594 S    
C19   C57   1.395467 A    
C17   C33   1.391045 A    
C221  H119  1.109791 S    
O2    C2    1.280075 A    
Zn10  O39   2.024511 S    
C12   C60   1.461400 S    
C133  C149  1.432694 A    
N19   O53   1.301530 A    
C19   C35   1.391059 A    
N38   O91   1.301526 A    
C78   C158  1.417577 A    
N47   O110  1.298804 A    
C93   C109  1.397063 A    
C197  H46   1.109673 S    
C35   C195  1.511031 S    
O22   Zn4   1.999057 S    
C82   C162  1.417549 A    
O31   Zn7   1.998995 S    
O24   Zn2   1.998904 S    
C38   C198  1.508370 S    
C97   C113  1.397070 A    
C214  H97   1.110349 S    
C114  C218  1.506782 S    
C74   C90   1.398881 A    
N40   O96   1.298795 A    
C204  H67   1.109667 S    
C23   C39   1.396134 A    
N3    C72   1.353381 A    
C28   C62   1.398860 A    
C201  H58   1.109666 S    
C55   C66   1.457046 S    
C84   N28   1.437260 S    
C207  H76   1.110356 S    
O21   C11   1.288715 A    
N6    C69   1.354830 A    
C20   H4    1.083854 S    
O22   C12   1.288740 A    
C129  N41   1.438114 S    
C202  H61   1.109668 S    
C18   H2    1.083834 S    
O13   Zn5   2.025968 S    
C223  H124  1.110342 S    
C17   C57   1.395457 A    
C24   H8    1.083825 S    
N47   O109  1.301517 A    
N46   O108  1.298828 A    
O3    Zn3   2.026345 S    
C10   C58   1.461319 S    
C142  C158  1.395353 A    
C28   C44   1.396157 A    
C221  H117  1.111056 S    
C36   C50   1.412782 A    
C34   C50   1.412934 A    
C163  C183  1.412092 A    
C42   C202  1.508363 S    
N33   O81   1.301511 A    
O28   Zn8   1.998908 S    
C155  C179  1.411856 A    
C81   N25   1.437480 S    
C156  C180  1.412157 A    
C218  H110  1.109826 S    
C108  C212  1.506800 S    
C78   C94   1.398870 A    
C21   C59   1.398881 A    
C147  C175  1.432679 A    
H31   C97   1.083295 S    
C151  C167  1.395243 A    
N36   O88   1.298833 A    
N5    C70   1.354833 A    
O23   C11   1.288743 A    
C82   C98   1.398872 A    
C27   H11   1.083826 S    
C117  C221  1.506863 S    
N35   O86   1.298808 A    
C144  C172  1.432742 A    
C209  H83   1.109815 S    
C17   H1    1.083839 S    
C18   C34   1.396452 A    
C109  C213  1.506790 S    
C45   C205  1.508700 S    
N6    N9    1.328735 A    
O9    Zn5   2.026345 S    
O17   C9    1.287622 A    
C122  C138  1.432568 A    
C206  H74   1.109350 S    
O11   Zn7   2.026345 S    
N22   O60   1.300505 A    
C107  C211  1.506683 S    
C127  N39   1.438097 S    
H19   C93   1.083300 S    
C224  H127  1.110340 S    
O41   C189  1.281263 A    
C193  H33   1.110500 S    
N26   O67   1.301472 A    
N27   O69   1.301463 A    
C26   C42   1.396135 A    
C83   C163  1.417508 A    
O5    C3    1.280224 A    
Zn10  O37   2.024539 S    
C79   C95   1.398854 A    
N9    C68   1.354831 A    
C40   C200  1.508360 S    
C48   C56   1.419681 A    
N24   O63   1.301469 A    
O7    Zn3   2.025964 S    
C117  C133  1.416432 A    
C161  C181  1.412115 A    
C83   C99   1.398861 A    
C139  C171  1.431552 A    
C22   C38   1.396120 A    
C196  H42   1.110483 S    
C75   C155  1.416117 A    
C88   C104  1.399356 A    
C167  C181  1.412064 A    
C211  H87   1.111009 S    
C199  H51   1.110478 S    
O17   Zn1   1.998999 S    
C18   C58   1.398767 A    
C196  H43   1.109625 S    
C74   C154  1.417608 A    
C77   C93   1.398869 A    
N5    N10   1.328731 A    
C88   C168  1.416152 A    
C27   C61   1.398885 A    
C21   C37   1.396150 A    
C194  H36   1.110473 S    
C46   C56   1.419683 A    
N25   O66   1.300510 A    
C85   C165  1.417573 A    
C6    C182  1.434560 S    
Zn9   O33   2.024513 S    
C105  C209  1.506699 S    
C197  H47   1.110851 S    
O20   Zn4   1.998908 S    
C200  H54   1.110477 S    
C157  C179  1.412204 A    
C90   C106  1.397030 A    
C143  C159  1.395719 A    
C118  C222  1.506675 S    
C210  H84   1.111034 S    
N43   O101  1.301516 A    
C19   H3    1.083837 S    
C195  H39   1.109354 S    
O8    C4    1.280075 A    
C149  C165  1.395482 A    
O4    Zn4   2.025975 S    
C123  C139  1.432271 A    
C33   C193  1.511037 S    
C43   C53   1.412659 A    
N30   O76   1.299688 A    
N17   O50   1.299709 A    
C135  C151  1.432569 A    
C84   C100  1.398842 A    
N45   O105  1.301513 A    
O20   C10   1.288858 A    
C217  H106  1.110343 S    
N34   O84   1.298838 A    
C108  C124  1.416415 A    
C21   H5    1.083825 S    
C75   C91   1.399353 A    
H21   C91   1.083252 S    
C76   C92   1.398892 A    
C34   C194  1.508319 S    
C32   C48   1.391060 A    
N31   O77   1.301468 A    
C110  C126  1.416403 A    
O47   C191  1.279680 A    
N37   O89   1.301534 A    
C4    C180  1.433978 S    
N32   O80   1.299687 A    
C211  H89   1.109821 S    
N31   O78   1.300470 A    
C78   N22   1.437464 S    
C205  H70   1.109787 S    
C119  C135  1.416545 A    
C100  C116  1.396993 A    
C219  H111  1.111043 S    
N29   O74   1.300558 A    
C77   N21   1.437323 S    
C123  N35   1.438167 S    
C213  H94   1.110341 S    
O25   Zn5   1.998999 S    
O6    C2    1.280069 A    
Zn11  O42   2.024439 S    
O27   Zn7   1.998970 S    
C73   C153  1.416123 A    
C126  C142  1.432590 A    
C86   N30   1.436851 S    
C160  C180  1.412183 A    
C196  H44   1.110860 S    
O7    C1    1.280200 A    
C224  H126  1.110997 S    
C81   C97   1.398888 A    
C130  C146  1.432554 A    
C91   C107  1.397315 A    
C152  C176  1.431521 A    
C199  H53   1.110852 S    
C153  C177  1.411822 A    
N23   O62   1.300519 A    
C103  C119  1.397142 A    
N44   O103  1.301526 A    
C84   C164  1.417594 A    
O19   C9    1.287622 A    
C73   N17   1.436903 S    
C25   C61   1.398874 A    
C194  H38   1.110858 S    
C113  C217  1.506806 S    
C222  H120  1.111002 S    
C200  H55   1.109672 S    
N39   O94   1.298803 A    
C47   C55   1.414965 A    
N21   O57   1.301469 A    
O12   Zn8   2.025975 S    
N48   O112  1.298827 A    
C32   H16   1.083838 S    
C44   C54   1.412661 A    
Zn9   O35   2.024540 S    
N11   C68   1.354833 A    
C76   C156  1.417579 A    
N41   O98   1.298792 A    
C200  H56   1.110851 S    
C49   C72   1.463134 S    
C158  C178  1.412164 A    
C134  N46   1.438129 S    
C50   C71   1.458578 S    
C26   H10   1.083830 S    
C210  H86   1.109817 S    
C203  H65   1.110851 S    
C1    C177  1.434637 S    
Zn12  O48   2.024593 S    
C130  N42   1.438115 S    
C128  C144  1.432592 A    
O42   C190  1.280670 A    
C112  C216  1.506804 S    
C16   C64   1.456687 S    
H17   C95   1.083300 S    
C115  C219  1.506813 S    
O4    C4    1.280068 A    
C208  H78   1.110501 S    
C111  C127  1.416377 A    
C73   C89   1.399341 A    
C109  C125  1.416370 A    
N27   O70   1.300501 A    
C216  H102  1.111033 S    
C195  H40   1.110497 S    
Zn10  O40   2.024593 S    
C80   C96   1.398864 A    
N8    N11   1.328730 A    
H22   C90   1.083301 S    
C113  C129  1.416427 A    
C212  H92   1.109815 S    
C215  H101  1.109819 S    
N38   O92   1.298766 A    
C197  H45   1.110475 S    
O10   Zn6   2.025976 S    
C223  H125  1.109808 S    
C85   N29   1.437514 S    
O15   C5    1.280051 A    
C105  C121  1.416330 A    
O33   C185  1.280648 A    
O16   C8    1.280293 A    
C214  H96   1.111032 S    
C169  C188  1.451757 S    
C33   C49   1.419688 A    
C203  H63   1.110479 S    
N28   O71   1.301471 A    
C124  C140  1.432535 A    
C22   C60   1.398897 A    
C204  H66   1.110478 S    
O1    Zn1   2.026345 S    
C36   C196  1.508476 S    
C121  N33   1.438168 S    
C29   C63   1.398393 A    
