data_mof_unit_67229.cif
_audit_creation_date              2012-12-11T18:15:35-0500
_audit_creation_method            fapswitch 2.2
_symmetry_space_group_name_H-M    P1
_symmetry_Int_Tables_number       1
_space_group_crystal_system       monoclinic
_cell_length_a                    20.127322
_cell_length_b                    19.947241
_cell_length_c                    8.382
_cell_angle_alpha                 90.0
_cell_angle_beta                  91.869822
_cell_angle_gamma                 90.0
_cell_volume                      3363.45157979

loop_
_atom_site_label
_atom_site_type_symbol
_atom_type_description
_atom_site_fract_x
_atom_site_fract_y
_atom_site_fract_z
_atom_type_partial_charge
Ba1   Ba    Ba6+2 0.999980 0.452130 0.155200 1.667034
Ba2   Ba    Ba6+2 0.999980 0.547870 0.655200 1.667032
Ba3   Ba    Ba6+2 0.499980 0.952130 0.155200 1.667032
Ba4   Ba    Ba6+2 0.499980 0.047870 0.655200 1.667032
C1    C     C_3   0.042233 0.113910 0.496880 -0.461062
C2    C     C_R   0.111043 0.663699 0.182148 -0.277836
C3    C     C_R   0.611043 0.836301 0.682148 -0.277834
C4    C     C_R   0.611043 0.163698 0.182148 -0.277837
C5    C     C_R   0.124543 0.283577 0.578681 -0.016107
C6    C     C_R   0.124543 0.716423 0.078682 -0.016111
C7    C     C_R   0.624542 0.783576 0.578682 -0.016112
C8    C     C_R   0.624543 0.216423 0.078682 -0.016110
C9    C     C_R   0.173207 0.236421 0.621332 -0.147676
C10   C     C_R   0.173208 0.763578 0.121331 -0.147678
C11   C     C_R   0.673208 0.736422 0.621331 -0.147678
C12   C     C_3   0.042239 0.886086 0.996890 -0.461094
C13   C     C_R   0.673207 0.263578 0.121332 -0.147677
C14   C     C_R   0.209856 0.242504 0.766276 0.011444
C15   C     C_R   0.209856 0.757495 0.266275 0.011445
C16   C     C_R   0.709856 0.742504 0.766275 0.011445
C17   C     C_R   0.709856 0.257496 0.266276 0.011443
C18   C     C_R   0.200427 0.299270 0.865235 -0.024334
C19   C     C_R   0.200427 0.700729 0.365234 -0.024334
C20   C     C_R   0.700427 0.799270 0.865234 -0.024335
C21   C     C_R   0.700427 0.200730 0.365235 -0.024335
C22   C     C_R   0.799006 0.700667 0.947055 0.017102
C23   C     C_3   0.542240 0.613914 0.496884 -0.461086
C24   C     C_R   0.799006 0.299333 0.447055 0.017104
C25   C     C_R   0.299006 0.200667 0.947056 0.017104
C26   C     C_R   0.299007 0.799333 0.447055 0.017101
C27   C     C_R   0.790037 0.757767 0.045371 0.033417
C28   C     C_R   0.790037 0.242233 0.545371 0.033408
C29   C     C_R   0.290037 0.257767 0.045371 0.033413
C30   C     C_R   0.290038 0.742233 0.545371 0.033418
C31   C     C_R   0.850003 0.653498 0.989514 0.074995
C32   C     C_R   0.850003 0.346502 0.489514 0.075006
C33   C     C_R   0.350003 0.153497 0.989515 0.075000
C34   C     C_3   0.542233 0.386087 0.996884 -0.461072
C35   C     C_R   0.350003 0.846502 0.489514 0.074993
C36   C     C_R   0.889230 0.664081 0.128127 -0.256148
C37   C     C_R   0.889230 0.335919 0.628126 -0.256143
C38   C     C_R   0.389230 0.164081 0.128128 -0.256147
C39   C     C_R   0.389230 0.835919 0.628128 -0.256149
C40   C     C_3   0.994289 0.183369 0.878083 0.301711
C41   C     C_3   0.994294 0.816627 0.378080 0.301690
C42   C     C_3   0.494295 0.683373 0.878075 0.301692
C43   C     C_3   0.494292 0.316629 0.378080 0.301689
C44   C     C_R   0.876460 0.717276 0.230700 -0.037572
C45   C     C_R   0.149786 0.346684 0.821741 0.053068
C46   C     C_R   0.876460 0.282724 0.730699 -0.037571
C47   C     C_R   0.376460 0.217276 0.230700 -0.037570
C48   C     C_R   0.376461 0.782724 0.730700 -0.037573
C49   C     C_R   0.828143 0.764812 0.188059 -0.143635
C50   C     C_R   0.828143 0.235188 0.688058 -0.143641
C51   C     C_R   0.328143 0.264812 0.188059 -0.143639
C52   C     C_R   0.328144 0.735188 0.688058 -0.143637
C53   C     C_R   0.757447 0.693498 0.809371 -0.027968
C54   C     C_R   0.757446 0.306502 0.309372 -0.027969
C55   C     C_R   0.257446 0.193498 0.809372 -0.027968
C56   C     C_R   0.149786 0.653316 0.321742 0.053067
C57   C     C_R   0.257447 0.806501 0.309371 -0.027967
C58   C     C_3   0.033022 0.122541 0.941241 -0.189892
C59   C     C_3   0.033037 0.877448 0.441241 -0.189883
C60   C     C_3   0.533040 0.622553 0.941235 -0.189881
C61   C     C_3   0.533031 0.377452 0.441238 -0.189887
C62   C     C_3   0.811133 0.457803 0.818006 0.309389
C63   C     C_3   0.811132 0.542197 0.318005 0.309390
C64   C     C_3   0.311133 0.957803 0.818006 0.309389
C65   C     C_3   0.311132 0.042197 0.318005 0.309390
C66   C     C_3   0.748694 0.414770 0.806105 -0.389000
C67   C     C_R   0.649786 0.846684 0.821741 0.053066
C68   C     C_3   0.748694 0.585232 0.306119 -0.388996
C69   C     C_3   0.248694 0.914769 0.806114 -0.388996
C70   C     C_3   0.248694 0.085231 0.306118 -0.388997
C71   C     C_3   0.189142 0.542342 0.993570 0.299098
C72   C     C_3   0.189143 0.457659 0.493570 0.299102
C73   C     C_3   0.689143 0.042341 0.993571 0.299097
C74   C     C_3   0.689143 0.957659 0.493572 0.299099
C75   C     C_3   0.251810 0.585006 0.006432 -0.370869
C76   C     C_3   0.251810 0.414994 0.506431 -0.370872
C77   C     C_3   0.751810 0.085006 0.006432 -0.370865
C78   C     C_R   0.649786 0.153316 0.321741 0.053068
C79   C     C_3   0.751810 0.914994 0.506432 -0.370867
C80   C     C_3   0.009022 0.178664 0.437840 0.359033
C81   C     C_3   0.009022 0.821337 0.937837 0.359034
C82   C     C_3   0.509021 0.678662 0.437834 0.359039
C83   C     C_3   0.509020 0.321335 0.937833 0.359025
C84   C     C_R   0.242131 0.306565 0.002734 -0.034349
C85   C     C_R   0.242131 0.693435 0.502734 -0.034342
C86   C     C_R   0.742131 0.806565 0.002734 -0.034343
C87   C     C_R   0.742131 0.193435 0.502734 -0.034350
C88   C     C_2   0.940762 0.163447 0.370000 0.572970
C89   C     C_R   0.111043 0.336302 0.682147 -0.277837
C90   C     C_2   0.940763 0.836564 0.869989 0.572967
C91   C     C_2   0.440764 0.663433 0.369989 0.572974
C92   C     C_2   0.440762 0.336557 0.869982 0.572963
C93   C     C_2   0.986965 0.065463 0.974321 0.514085
C94   C     C_2   0.986989 0.934532 0.474333 0.514077
C95   C     C_2   0.486993 0.565468 0.974337 0.514087
C96   C     C_2   0.486980 0.434533 0.474328 0.514097
H1    H     H_    0.713457 0.435559 0.714110 0.126296
H2    H     H_    0.724256 0.586167 0.423014 0.119868
H3    H     H_    0.421586 0.387459 0.867486 -0.012774
H4    H     H_    0.957405 0.043192 0.877566 0.033736
H5    H     H_    0.957426 0.956805 0.377586 0.033749
H6    H     H_    0.457429 0.543192 0.877593 0.033734
H7    H     H_    0.457416 0.456804 0.377580 0.033729
H8    H     H_    0.224255 0.913834 0.923006 0.119868
H9    H     H_    0.224256 0.086167 0.423013 0.119868
H10   H     H_    0.167206 0.538783 0.112532 0.007141
H11   H     H_    0.167207 0.461218 0.612533 0.007141
H12   H     H_    0.667207 0.038782 0.112533 0.007142
H13   H     H_    0.667208 0.961219 0.612535 0.007143
H14   H     H_    0.153473 0.566677 0.907900 0.066982
H15   H     H_    0.153472 0.433323 0.407901 0.066979
H16   H     H_    0.653473 0.066677 0.907902 0.066980
H17   H     H_    0.713453 0.564443 0.214134 0.126297
H18   H     H_    0.653472 0.933323 0.407906 0.066979
H19   H     H_    0.287012 0.563572 0.097641 0.138340
H20   H     H_    0.287013 0.436427 0.597640 0.138341
H21   H     H_    0.787013 0.063572 0.097640 0.138350
H22   H     H_    0.787014 0.936429 0.597634 0.138342
H23   H     H_    0.239539 0.636984 0.041213 0.071218
H24   H     H_    0.239539 0.363016 0.541210 0.071216
H25   H     H_    0.739539 0.136984 0.041215 0.071214
H26   H     H_    0.739540 0.863017 0.541221 0.071217
H27   H     H_    0.276148 0.586396 0.889452 0.115485
H28   H     H_    0.213454 0.935558 0.714127 0.126297
H29   H     H_    0.276148 0.413604 0.389451 0.115485
H30   H     H_    0.776148 0.086397 0.889452 0.115484
H31   H     H_    0.776146 0.913601 0.389450 0.115486
H32   H     H_    0.002605 0.212673 0.541356 -0.115249
H33   H     H_    0.002598 0.787325 0.041346 -0.115226
H34   H     H_    0.502597 0.712673 0.541343 -0.115235
H35   H     H_    0.502598 0.287325 0.041345 -0.115223
H36   H     H_    0.010494 0.088102 0.583539 0.105894
H37   H     H_    0.010502 0.911897 0.083548 0.105889
H38   H     H_    0.510503 0.588100 0.583538 0.105893
H39   H     H_    0.213453 0.064443 0.214133 0.126292
H40   H     H_    0.510491 0.411897 0.083534 0.105890
H41   H     H_    0.050842 0.079544 0.395301 0.163882
H42   H     H_    0.050854 0.920455 0.895319 0.163898
H43   H     H_    0.550858 0.579547 0.395311 0.163906
H44   H     H_    0.550850 0.420453 0.895308 0.163895
H45   H     H_    0.068931 0.106134 0.851431 -0.002671
H46   H     H_    0.068947 0.893852 0.351429 -0.002684
H47   H     H_    0.568948 0.606149 0.851419 -0.002680
H48   H     H_    0.568940 0.393857 0.351424 -0.002671
H49   H     H_    0.073348 0.372607 0.647263 0.059131
H50   H     H_    0.761321 0.362675 0.772935 0.058182
H51   H     H_    0.073347 0.627394 0.147265 0.059133
H52   H     H_    0.573347 0.872606 0.647265 0.059132
H53   H     H_    0.573348 0.127393 0.147264 0.059132
H54   H     H_    0.183756 0.196140 0.539366 0.064472
H55   H     H_    0.183757 0.803859 0.039364 0.064474
H56   H     H_    0.683757 0.696141 0.539364 0.064473
H57   H     H_    0.683756 0.303860 0.039365 0.064476
H58   H     H_    0.819175 0.806169 0.268294 0.062755
H59   H     H_    0.819175 0.193831 0.768293 0.062755
H60   H     H_    0.319176 0.306169 0.268293 0.062754
H61   H     H_    0.761322 0.637326 0.272944 0.058181
H62   H     H_    0.319176 0.693830 0.768293 0.062754
H63   H     H_    0.926798 0.627635 0.162981 0.050905
H64   H     H_    0.926798 0.372364 0.662980 0.050903
H65   H     H_    0.426797 0.127635 0.162981 0.050904
H66   H     H_    0.426798 0.872365 0.662981 0.050906
H67   H     H_    0.238154 0.350067 0.078479 0.098241
H68   H     H_    0.238154 0.649932 0.578480 0.098240
H69   H     H_    0.738154 0.850067 0.078480 0.098241
H70   H     H_    0.738154 0.149933 0.578479 0.098242
H71   H     H_    0.761638 0.650167 0.733152 0.093007
H72   H     H_    0.261322 0.862675 0.772940 0.058180
H73   H     H_    0.761638 0.349833 0.233153 0.093007
H74   H     H_    0.261638 0.150167 0.733154 0.093006
H75   H     H_    0.261639 0.849832 0.233152 0.093006
H76   H     H_    0.090703 0.125095 0.557206 0.102915
H77   H     H_    0.090707 0.874895 0.057219 0.102912
H78   H     H_    0.590707 0.625106 0.557217 0.102908
H79   H     H_    0.590700 0.374899 0.057223 0.102912
H80   H     H_    0.030944 0.222338 0.844529 -0.007344
H81   H     H_    0.030944 0.777653 0.344520 -0.007346
H82   H     H_    0.530943 0.722347 0.844510 -0.007352
H83   H     H_    0.261322 0.137326 0.272943 0.058183
H84   H     H_    0.530944 0.277657 0.344521 -0.007344
H85   H     H_    0.963731 0.168118 0.771470 -0.083228
H86   H     H_    0.963738 0.831883 0.271471 -0.083203
H87   H     H_    0.463736 0.668116 0.771470 -0.083201
H88   H     H_    0.463736 0.331883 0.271470 -0.083210
H89   H     H_    0.061992 0.136600 0.051313 0.143948
H90   H     H_    0.062007 0.863383 0.551307 0.143959
H91   H     H_    0.562012 0.636619 0.051298 0.143954
H92   H     H_    0.562002 0.363389 0.551304 0.143952
H93   H     H_    0.833112 0.460977 0.699012 0.000799
H94   H     H_    0.724250 0.413836 0.922992 0.119871
H95   H     H_    0.833107 0.539023 0.199006 0.000799
H96   H     H_    0.333109 0.960977 0.699008 0.000801
H97   H     H_    0.333107 0.039023 0.199006 0.000800
H98   H     H_    0.846865 0.433914 0.904236 0.066896
H99   H     H_    0.846869 0.566085 0.404229 0.066893
H100  H     H_    0.346868 0.933914 0.904231 0.066893
H101  H     H_    0.346869 0.066085 0.404229 0.066893
H102  H     H_    0.921578 0.112547 0.367531 -0.012797
H103  H     H_    0.921590 0.887467 0.867503 -0.012774
H104  H     H_    0.421592 0.612529 0.367507 -0.012780
O1    O     O_2   0.130070 0.404060 0.104920 -0.464469
O2    O     O_3   0.952596 0.792927 0.496504 -0.532654
O3    O     O_3   0.452598 0.707073 0.996503 -0.532650
O4    O     O_3   0.452595 0.292928 0.496504 -0.532658
O5    O     O_3   0.924190 0.533610 0.949240 -0.500914
O6    O     O_3   0.924190 0.466390 0.449240 -0.500914
O7    O     O_3   0.424190 0.033610 0.949240 -0.500914
O8    O     O_3   0.424190 0.966390 0.449240 -0.500913
O9    O     O_3   0.075780 0.466370 0.861070 -0.498628
O10   O     O_3   0.075780 0.533630 0.361070 -0.498629
O11   O     O_3   0.575780 0.966370 0.861070 -0.498628
O12   O     O_2   0.130070 0.595940 0.604920 -0.464470
O13   O     O_3   0.575780 0.033630 0.361070 -0.498628
O14   O     O_3   0.022320 0.344950 0.359800 -0.451395
O15   O     O_3   0.022320 0.655050 0.859800 -0.451399
O16   O     O_3   0.522320 0.844950 0.359800 -0.451399
O17   O     O_3   0.522320 0.155050 0.859800 -0.451398
O18   O     O_2   0.135168 0.296513 0.252329 -0.484929
O19   O     O_2   0.135168 0.703487 0.752330 -0.484928
O20   O     O_2   0.635167 0.796513 0.252330 -0.484928
O21   O     O_2   0.635169 0.203486 0.752331 -0.484927
O22   O     O_3   0.206658 0.478511 0.940260 -0.638605
O23   O     O_2   0.630070 0.904060 0.104920 -0.464468
O24   O     O_3   0.206658 0.521489 0.440260 -0.638604
O25   O     O_3   0.706658 0.978511 0.940260 -0.638603
O26   O     O_3   0.706658 0.021489 0.440259 -0.638604
O27   O     O_3   0.047330 0.206509 0.316464 -0.565326
O28   O     O_3   0.047329 0.793490 0.816462 -0.565324
O29   O     O_3   0.547328 0.706510 0.316459 -0.565319
O30   O     O_3   0.547330 0.293490 0.816462 -0.565327
O31   O     O_2   0.869860 0.403670 0.205810 -0.459233
O32   O     O_2   0.869860 0.596330 0.705810 -0.459235
O33   O     O_2   0.369860 0.903670 0.205810 -0.459238
O34   O     O_2   0.630070 0.095940 0.604920 -0.464469
O35   O     O_2   0.369860 0.096330 0.705810 -0.459234
O36   O     O_3   0.977590 0.344880 0.951200 -0.473175
O37   O     O_3   0.977590 0.655120 0.451200 -0.473176
O38   O     O_3   0.477590 0.844880 0.951200 -0.473175
O39   O     O_3   0.477590 0.155120 0.451200 -0.473175
O40   O     O_2   0.864013 0.297083 0.055061 -0.436165
O41   O     O_2   0.864015 0.702919 0.555066 -0.436164
O42   O     O_2   0.364015 0.797080 0.055068 -0.436165
O43   O     O_2   0.364014 0.202918 0.555065 -0.436161
O44   O     O_2   0.905787 0.208660 0.317213 -0.555072
O45   O     O_3   0.793334 0.478198 0.369798 -0.644988
O46   O     O_2   0.905781 0.791357 0.817209 -0.555084
O47   O     O_2   0.405780 0.708638 0.317205 -0.555083
O48   O     O_2   0.405784 0.291346 0.817207 -0.555084
O49   O     O_2   0.982404 0.043767 0.109603 -0.624960
O50   O     O_2   0.982441 0.956230 0.609614 -0.624970
O51   O     O_2   0.482446 0.543772 0.109621 -0.624968
O52   O     O_2   0.482429 0.456231 0.609608 -0.624972
O53   O     O_3   0.793334 0.521802 0.869796 -0.644987
O54   O     O_3   0.293334 0.978198 0.369798 -0.644987
O55   O     O_3   0.293334 0.021802 0.869797 -0.644988
O56   O     O_3   0.952593 0.207072 0.996508 -0.532651
P1    P     P_3+3 0.136530 0.426510 0.931350 0.972491
P2    P     P_3+3 0.917003 0.717534 0.430773 1.018844
P3    P     P_3+3 0.417003 0.782466 0.930773 1.018846
P4    P     P_3+3 0.417003 0.217534 0.430773 1.018845
P5    P     P_3+3 0.083112 0.717456 0.879291 0.997814
P6    P     P_3+3 0.083113 0.282545 0.379291 0.997823
P7    P     P_3+3 0.583112 0.217455 0.879291 0.997818
P8    P     P_3+3 0.583112 0.782544 0.379291 0.997815
P9    P     P_3+3 0.136530 0.573490 0.431350 0.972492
P10   P     P_3+3 0.636530 0.926510 0.931350 0.972492
P11   P     P_3+3 0.636530 0.073490 0.431350 0.972492
P12   P     P_3+3 0.863410 0.426100 0.379280 0.975642
P13   P     P_3+3 0.863410 0.573900 0.879280 0.975640
P14   P     P_3+3 0.363410 0.926100 0.379280 0.975638
P15   P     P_3+3 0.363410 0.073900 0.879280 0.975642
P16   P     P_3+3 0.917002 0.282466 0.930772 1.018847

loop_
_geom_bond_atom_site_label_1
_geom_bond_atom_site_label_2
_ccdc_geom_bond_type
C29   C51   A    
C1    H36   S    
C76   H20   S    
C65   H101  S    
C41   O2    S    
C6    P5    S    
C25   C29   A    
C10   H55   S    
O54   P14   S    
O12   P9    D    
C89   H49   S    
O33   P14   D    
C57   H75   S    
C23   H78   S    
Ba4   O35   S    
C12   H42   S    
C55   H74   S    
C47   P4    S    
C40   H80   S    
C70   H9    S    
C46   P16   S    
C88   O44   D    
C66   H1    S    
C41   H81   S    
Ba1   P12   S    
C62   C66   S    
Ba2   O12   S    
O2    P2    S    
C49   H58   S    
C46   C50   A    
Ba3   P10   S    
C68   H2    S    
C43   O4    S    
O7    P15   S    
C37   H64   S    
C43   C61   S    
C74   H18   S    
C29   C84   A    
Ba1   O31   S    
O32   P13   D    
C59   C94   S    
O35   P15   D    
O24   P9    S    
C67   P10   S    
C3    C67   A    
O18   P6    D    
O19   P5    D    
C39   C48   A    
C28   C87   A    
C72   O24   S    
O26   P11   S    
C42   O3    S    
Ba4   O17   S    
C95   H6    S    
C52   H62   S    
C72   H15   S    
O28   P5    S    
C16   C53   A    
C63   C68   S    
O25   P10   S    
C33   C38   A    
Ba2   P9    S    
C80   O27   S    
C5    C9    A    
C95   O51   D    
C50   H59   S    
C7    C11   A    
C74   C79   S    
C82   H34   S    
C60   C95   S    
C25   C55   A    
Ba3   O16   S    
C96   H7    S    
C58   H45   S    
C75   H19   S    
C68   H17   S    
C23   H43   S    
O38   P3    S    
C19   C85   A    
O55   P15   S    
Ba1   O14   S    
C76   H29   S    
C18   C84   A    
C42   H87   S    
C73   H16   S    
C13   H57   S    
C59   H46   S    
C83   O30   S    
O43   P4    D    
C38   H65   S    
C66   H94   S    
C38   C47   A    
C27   C86   A    
Ba4   P11   S    
C22   C27   A    
C79   H22   S    
Ba4   O11   S    
O15   P5    S    
C65   H97   S    
O45   P12   S    
C32   C37   A    
C19   C56   A    
C81   O28   S    
C63   H95   S    
O41   P2    D    
C90   O46   D    
C28   C50   A    
C22   C53   A    
C58   H89   S    
Ba1   O36   S    
Ba3   O7    S    
C11   C16   A    
Ba2   O6    S    
C82   O29   S    
C21   C87   A    
C26   C30   A    
Ba1   O5    S    
C94   H5    S    
C23   H38   S    
C16   C20   A    
C24   C28   A    
C36   H63   S    
C6    C10   A    
C2    C56   A    
C91   O47   D    
C1    C80   S    
C45   P1    S    
C15   C19   A    
C43   H84   S    
C69   H8    S    
C35   C39   A    
C70   H83   S    
C40   C58   S    
C64   C69   S    
O13   P11   S    
C5    C89   A    
C75   H23   S    
C41   C59   S    
C13   C17   A    
O36   P16   S    
O10   P9    S    
O9    P1    S    
C78   P11   S    
C61   H48   S    
Ba3   O38   S    
C8    C13   A    
C23   C82   S    
C3    C7    A    
C73   O25   S    
C85   H68   S    
C79   H31   S    
O17   P7    S    
C73   H12   S    
C83   H35   S    
C40   O56   S    
C58   C93   S    
C81   C90   S    
C14   C55   A    
O23   P10   D    
C1    H41   S    
C61   H92   S    
C73   C77   S    
Ba3   O13   S    
C84   H67   S    
C83   C92   S    
C91   H104  S    
Ba2   P13   S    
C32   P12   S    
C65   C70   S    
C64   H96   S    
C71   H14   S    
C7    P8    S    
Ba2   O5    S    
C27   C49   A    
C69   H72   S    
C53   H71   S    
C4    H53   S    
Ba4   O7    S    
O22   P1    S    
C11   H56   S    
C62   H98   S    
Ba3   O33   S    
C18   C45   A    
Ba1   P1    S    
C2    H51   S    
C9    C14   A    
C35   P14   S    
Ba2   O32   S    
C51   H60   S    
C66   H50   S    
C24   C54   A    
O37   P2    S    
C60   H47   S    
C12   C81   S    
C56   P9    S    
C1    H76   S    
C4    C78   A    
C26   C57   A    
C74   H13   S    
O39   P4    S    
C92   O48   D    
C79   H26   S    
C25   C33   A    
Ba3   Ba4   S    
C59   H90   S    
Ba3   O23   S    
C37   C46   A    
C94   O50   D    
C60   H91   S    
C88   H102  S    
C12   H77   S    
C54   H73   S    
Ba3   P14   S    
C93   O49   D    
C76   H24   S    
C39   H66   S    
Ba3   O8    S    
C36   C44   A    
C48   P3    S    
C17   C21   A    
C71   H10   S    
Ba4   O34   S    
C34   H79   S    
Ba4   O39   S    
C87   H70   S    
C77   H25   S    
Ba1   O6    S    
C14   C18   A    
Ba4   P15   S    
C34   H44   S    
C10   C15   A    
C71   O22   S    
C72   C76   S    
C61   C96   S    
C62   H93   S    
C20   C86   A    
O20   P8    D    
C64   O55   S    
O8    P14   S    
C44   C49   A    
C74   O26   S    
C69   H28   S    
O3    P3    S    
C70   H39   S    
C30   C52   A    
C62   O53   S    
C63   H99   S    
O4    P4    S    
C34   C83   S    
C64   H100  S    
O5    P13   S    
C42   H82   S    
C12   H37   S    
C31   C36   A    
O31   P12   D    
C30   C85   A    
C75   H27   S    
C17   C54   A    
C33   P15   S    
O29   P8    S    
C77   H21   S    
O30   P7    S    
C21   C78   A    
O1    P1    D    
C82   C91   S    
C15   C57   A    
C72   H11   S    
Ba4   O8    S    
Ba1   Ba2   S    
C86   H69   S    
C44   P2    S    
Ba1   O1    S    
O14   P6    S    
O53   P13   S    
C80   H32   S    
C26   C35   A    
C68   H61   S    
C47   C51   A    
O11   P10   S    
O34   P11   D    
C41   H86   S    
Ba2   O37   S    
C9    H54   S    
C8    P7    S    
C93   H4    S    
C2    C6    A    
C5    P6    S    
C77   H30   S    
C3    H52   S    
O56   P16   S    
C48   C52   A    
C22   C31   A    
C24   C32   A    
Ba2   O9    S    
O6    P12   S    
Ba2   O15   S    
C31   P13   S    
O27   P6    S    
C42   C60   S    
Ba1   O10   S    
O40   P16   D    
C92   H3    S    
C34   H40   S    
C90   H103  S    
C80   C88   S    
C45   C89   A    
C43   H88   S    
C96   O52   D    
C71   C75   S    
C40   H85   S    
O21   P7    D    
O42   P3    D    
C4    C8    A    
C20   C67   A    
C81   H33   S    
C65   O54   S    
C63   O45   S    
O16   P8    S    
