data_mof_unit_67604.cif
_audit_creation_date              2012-12-10T18:05:42-0500
_audit_creation_method            fapswitch 2.2
_symmetry_space_group_name_H-M    P1
_symmetry_Int_Tables_number       1
_space_group_crystal_system       triclinic
_cell_length_a                    10.910484
_cell_length_b                    10.925208
_cell_length_c                    9.612764
_cell_angle_alpha                 89.014117
_cell_angle_beta                  88.458965
_cell_angle_gamma                 91.509322
_cell_volume                      1144.83897371

loop_
_atom_site_label
_atom_site_type_symbol
_atom_type_description
_atom_site_fract_x
_atom_site_fract_y
_atom_site_fract_z
_atom_type_partial_charge
C1    C     C_R   0.500257 0.262219 0.501894 0.792245
C2    C     C_R   0.495203 0.737455 0.499231 0.764590
C3    C     C_R   0.871627 0.499832 0.498296 -0.255353
C4    C     C_R   0.128478 0.518092 0.506083 -0.277458
C5    C     C_R   0.934134 0.438905 0.604331 -0.079146
C6    C     C_R   0.066437 0.585956 0.405142 -0.122575
C7    C     C_R   0.513524 0.067429 0.380620 -0.319908
C8    C     C_R   0.481766 0.931084 0.626252 -0.189708
C9    C     C_R   0.497934 0.941332 0.374251 0.144697
C10   C     C_R   0.480983 0.058557 0.631432 0.214627
C11   C     C_R   0.491474 0.871475 0.498733 -0.080455
C12   C     C_R   0.500001 0.127927 0.506469 -0.087736
C13   C     C_R   0.426515 0.418433 0.075861 0.043379
C14   C     C_R   0.578746 0.575791 0.920322 0.075726
C15   C     C_R   0.422616 0.421632 0.925713 0.545196
C16   C     C_R   0.577891 0.577983 0.071243 0.505060
C17   C     C_R   0.262761 0.508403 0.501646 0.845890
C18   C     C_R   0.737391 0.496578 0.498882 0.859468
C19   C     C_R   0.150081 0.895782 0.242784 0.428804
C20   C     C_R   0.791311 0.147594 0.769509 0.407494
C21   C     C_R   0.126353 0.806589 0.348525 0.051627
C22   C     C_R   0.838612 0.232354 0.667680 -0.001900
C23   C     C_R   0.130444 0.680571 0.315160 0.111975
C24   C     C_R   0.871518 0.352307 0.706018 0.143699
C25   C     C_R   0.176307 0.647035 0.184299 -0.209933
C26   C     C_R   0.851409 0.387918 0.843733 -0.185451
C27   C     C_R   0.212472 0.736493 0.085332 -0.363555
C28   C     C_R   0.800872 0.306322 0.943157 -0.337655
C29   C     C_R   0.191796 0.860208 0.110221 0.446123
C30   C     C_R   0.773552 0.183913 0.908841 0.433802
C31   C     C_R   0.937456 0.580866 0.405982 0.454320
C32   C     C_R   0.059800 0.461764 0.616439 0.441214
Cu1   Cu    Cu3+1 0.500000 0.500020 0.640660 1.008901
Cu2   Cu    Cu3+1 0.500000 0.499980 0.359340 0.986038
H1    H     H_    0.182725 0.551276 0.158660 0.167300
H2    H     H_    0.875188 0.479331 0.875263 0.165391
H3    H     H_    0.253400 0.710071 0.987256 0.164208
H4    H     H_    0.783242 0.339785 0.046787 0.184683
H5    H     H_    0.530545 0.118280 0.284861 0.171389
H6    H     H_    0.472000 0.878522 0.722696 0.159157
N1    N     N_R   0.500030 0.500030 0.852070 -0.226613
N2    N     N_R   0.499970 0.499970 0.147930 -0.224341
O1    O     O_R   0.499990 0.319660 0.618740 -0.519109
O2    O     O_R   0.500010 0.680340 0.381260 -0.535673
O3    O     O_R   0.499990 0.319630 0.381170 -0.617554
O4    O     O_R   0.500010 0.680370 0.618830 -0.589513
O5    O     O_R   0.319650 0.500020 0.618780 -0.512240
O6    O     O_R   0.680350 0.499980 0.381220 -0.506880
O7    O     O_R   0.319640 0.500000 0.381210 -0.611958
O8    O     O_R   0.680360 0.500000 0.618790 -0.565161
O9    O     O_3   0.225954 0.947726 0.010385 -0.591407
C33   C     C_3   0.131663 0.955465 0.913773 -0.359182
H7    H     H_    0.049246 0.996276 0.962918 0.180181
H8    H     H_    0.107954 0.864934 0.868510 0.154675
H9    H     H_    0.163626 0.016689 0.826265 0.187089
O10   O     O_3   0.720660 0.100127 0.004820 -0.584281
C34   C     C_3   0.778211 0.107089 0.134625 -0.354071
H10   H     H_    0.755855 0.022321 0.195507 0.182632
H11   H     H_    0.742044 0.183843 0.196362 0.180443
H12   H     H_    0.880083 0.114460 0.123035 0.190853
O11   O     O_3   0.354520 0.340465 0.844845 -0.519452
C35   C     C_3   0.253959 0.277195 0.910667 -0.140000
H13   H     H_    0.192762 0.242669 0.829118 0.197617
H14   H     H_    0.198939 0.336754 0.979326 0.158108
H15   H     H_    0.284657 0.193974 0.965858 0.197347
O12   O     O_3   0.666849 0.641716 0.143792 -0.517524
C36   C     C_3   0.683655 0.764711 0.098523 -0.191998
H16   H     H_    0.695339 0.821923 0.190305 0.202656
H17   H     H_    0.604855 0.801754 0.041925 0.145324
H18   H     H_    0.770569 0.776516 0.037003 0.144529
O13   O     O_3   0.117497 0.015593 0.263821 -0.586913
C37   C     C_3   0.218014 0.080662 0.317087 -0.295886
H19   H     H_    0.295291 0.085435 0.239589 0.186092
H20   H     H_    0.247397 0.040103 0.417324 0.188218
H21   H     H_    0.189860 0.175468 0.338228 0.181581
O14   O     O_3   0.753575 0.031920 0.729533 -0.568055
C38   C     C_3   0.843957 0.948067 0.764904 -0.374706
H22   H     H_    0.851472 0.938530 0.879467 0.189073
H23   H     H_    0.934530 0.974142 0.715662 0.144429
H24   H     H_    0.816633 0.856966 0.725676 0.180392
N3    N     N_3   0.102685 0.846576 0.488501 -0.614104
H25   H     H_    0.025741 0.901336 0.489781 0.234141
H26   H     H_    0.085839 0.773206 0.557941 0.202631
N4    N     N_3   0.855573 0.196457 0.525816 -0.590905
H27   H     H_    0.771045 0.165292 0.489646 0.234198
H28   H     H_    0.915731 0.123620 0.523032 0.242981
O15   O     O_3   0.876552 0.662502 0.322567 -0.536090
C39   C     C_3   0.829400 0.757313 0.405606 -0.262726
H29   H     H_    0.862839 0.759649 0.514038 0.102783
H30   H     H_    0.728692 0.747712 0.412921 0.194472
H31   H     H_    0.853070 0.846851 0.354327 0.165539
O16   O     O_3   0.112174 0.439016 0.742584 -0.563593
C40   C     C_3   0.113372 0.549136 0.818437 -0.308841
H32   H     H_    0.033561 0.608529 0.799616 0.114722
H33   H     H_    0.198543 0.603566 0.794237 0.186750
H34   H     H_    0.110603 0.525493 0.930717 0.173091
N5    N     N_3   0.481931 0.885863 0.241920 -0.584296
H35   H     H_    0.480102 0.952069 0.162109 0.230016
H36   H     H_    0.396001 0.842199 0.244891 0.229988
N6    N     N_3   0.458761 0.116002 0.762615 -0.523765
H37   H     H_    0.541614 0.153924 0.795071 0.262186
H38   H     H_    0.430428 0.051351 0.839114 0.233737
N7    N     N_3   0.368043 0.317015 0.147482 -0.627849
H39   H     H_    0.432930 0.251332 0.166043 0.241489
H40   H     H_    0.317375 0.341228 0.234786 0.268659
N8    N     N_3   0.665274 0.646984 0.836181 -0.519584
H41   H     H_    0.640143 0.738363 0.831866 0.213247
H42   H     H_    0.753566 0.638258 0.872987 0.196231

loop_
_geom_bond_atom_site_label_1
_geom_bond_atom_site_label_2
_ccdc_geom_bond_type
O15   C39   S    
C40   H32   S    
C27   C29   A    
C37   H20   S    
C19   O13   S    
Cu2   N2    S    
N3    H25   S    
C20   C30   A    
C38   H22   S    
C2    O4    A    
C21   N3    S    
C19   C21   A    
N4    H28   S    
C34   H11   S    
N8    H41   S    
O10   C34   S    
C20   O14   S    
C3    C18   S    
O16   C40   S    
C35   H14   S    
N5    H36   S    
C1    O1    A    
C2    O2    A    
C13   N7    S    
C33   H9    S    
C5    C32   A    
O12   C36   S    
C40   H33   S    
Cu1   O4    S    
C1    C12   S    
C37   H21   S    
C2    C11   S    
C13   N2    A    
N3    H26   S    
C33   H8    S    
N5    H35   S    
C38   H23   S    
C7    C12   A    
C31   O15   S    
C36   H16   S    
Cu1   O1    S    
Cu2   O2    S    
O14   C38   S    
C15   N1    A    
C4    C6    A    
C17   O7    A    
C34   H12   S    
Cu1   O8    S    
C30   O10   S    
O9    C33   S    
C36   H17   S    
C22   N4    S    
C10   N6    S    
C35   H13   S    
C39   H31   S    
C28   H4    S    
N6    H38   S    
Cu1   Cu2   S    
C15   O11   S    
N7    H40   S    
Cu2   O3    S    
N4    H27   S    
C3    C31   A    
C9    C11   A    
C4    C32   A    
C10   C12   A    
C25   H1    S    
C14   N1    A    
C4    C17   S    
C26   H2    S    
C20   C22   A    
C40   H34   S    
C21   C23   A    
Cu1   O5    S    
C14   C16   A    
Cu2   O6    S    
C19   C29   A    
C16   N2    A    
C33   H7    S    
C18   O8    A    
C29   O9    S    
C38   H24   S    
C7    C9    A    
Cu2   O7    S    
C9    N5    S    
C35   H15   S    
C17   O5    A    
C39   H30   S    
C37   H19   S    
C3    C5    A    
C18   O6    A    
C25   C27   A    
C26   C28   A    
C36   H18   S    
Cu1   N1    S    
C13   C15   A    
O13   C37   S    
C24   C26   A    
C1    O3    A    
C34   H10   S    
C32   O16   S    
C5    C24   S    
N8    H42   S    
C27   H3    S    
C8    C11   A    
C6    C23   S    
C28   C30   A    
N6    H37   S    
C6    C31   A    
C22   C24   A    
C23   C25   A    
O11   C35   S    
C14   N8    S    
C16   O12   S    
C39   H29   S    
C8    C10   A    
N7    H39   S    
C7    H5    S    
C8    H6    S    
