data_mof_unit_27872.cif
_audit_creation_date              2012-12-11T16:56:07-0500
_audit_creation_method            fapswitch 2.2
_symmetry_space_group_name_H-M    P1
_symmetry_Int_Tables_number       1
_space_group_crystal_system       triclinic
_cell_length_a                    6.936097
_cell_length_b                    14.570097
_cell_length_c                    16.197979
_cell_angle_alpha                 90.487181
_cell_angle_beta                  89.59706
_cell_angle_gamma                 90.131401
_cell_volume                      1636.85763956

loop_
_atom_site_label
_atom_site_type_symbol
_atom_type_description
_atom_site_fract_x
_atom_site_fract_y
_atom_site_fract_z
_atom_type_partial_charge
O1    O     O_R   0.505830 0.583360 0.413880 -0.547343
O2    O     O_R   0.175830 0.595460 0.585520 -0.540098
O3    O     O_R   0.005520 0.416640 0.586120 -0.542936
C1    C     C_R   0.344487 0.617283 0.614667 0.706836
O4    O     O_R   0.176120 0.594390 0.414490 -0.541697
O5    O     O_R   0.005810 0.415570 0.413870 -0.541944
C2    C     C_R   0.345774 0.616386 0.386057 0.701175
O6    O     O_R   0.505540 0.584430 0.586130 -0.549585
O7    O     O_3   0.339200 0.441330 0.500000 -0.352436
V1    V     V_3+5 0.064350 0.510880 0.500000 1.417066
O8    O     O_R   0.676100 0.404540 0.414480 -0.536203
C3    C     C_R   0.845602 0.386822 0.382491 0.691829
O9    O     O_R   0.675810 0.405610 0.585510 -0.510394
C4    C     C_R   0.843931 0.382939 0.613320 0.763837
V2    V     V_3+5 0.564340 0.489120 0.500000 1.445569
O10   O     O_3   0.839360 0.558670 0.500000 -0.387326
C5    C     C_2   0.720930 0.205790 0.785760 -0.202212
C6    C     C_2   0.886905 0.180945 0.822129 -0.349716
H1    H     H_    0.587170 0.175143 0.807541 0.146755
H2    H     H_    0.024129 0.209307 0.802795 0.129307
C7    C     C_2   0.701877 0.272342 0.716375 0.311194
C8    C     C_2   0.855992 0.314140 0.680219 -0.315669
H3    H     H_    0.000665 0.298887 0.700367 0.095998
C9    C     C_R   0.750277 0.177369 0.249288 -0.061278
C10   C     C_R   0.883143 0.183565 0.184558 -0.162478
C11   C     C_R   0.019006 0.255198 0.188510 -0.168697
H4    H     H_    0.129450 0.259562 0.141090 0.124055
C12   C     C_R   0.006605 0.325562 0.249386 0.307508
C13   C     C_R   0.861660 0.320055 0.312946 -0.158507
C14   C     C_R   0.740755 0.242998 0.311835 -0.086854
C15   C     C_3   0.524921 0.234827 0.318093 0.208374
C16   C     C_3   0.536983 0.161445 0.249943 0.190330
H5    H     H_    0.448787 0.298167 0.299067 0.112379
H6    H     H_    0.465616 0.181368 0.191551 0.094241
C17   C     C_R   0.505900 0.680271 0.742349 0.105963
C18   C     C_R   0.352860 0.681922 0.686131 -0.156691
C19   C     C_R   0.202794 0.744592 0.702518 -0.128046
H7    H     H_    0.081542 0.748420 0.661229 0.123401
C20   C     C_R   0.214097 0.807476 0.769054 -0.172999
H8    H     H_    0.100316 0.857438 0.777099 0.120530
C21   C     C_R   0.376541 0.810212 0.821027 -0.110902
C22   C     C_R   0.518002 0.743245 0.807649 0.041146
C23   C     C_3   0.730109 0.754599 0.796937 -0.370083
C24   C     C_3   0.717607 0.685698 0.726148 0.187003
H9    H     H_    0.811428 0.729647 0.851217 0.198104
H10   H     H_    0.768504 0.824897 0.776354 0.117138
H11   H     H_    0.755074 0.714003 0.664415 0.067261
C25   C     C_R   0.527561 0.701681 0.275595 0.096550
C26   C     C_R   0.358526 0.687908 0.321603 -0.188785
C27   C     C_R   0.203207 0.747321 0.306757 -0.190471
H12   H     H_    0.073811 0.742300 0.344311 0.163146
C28   C     C_R   0.210244 0.812848 0.242686 0.280339
C29   C     C_R   0.376881 0.819060 0.190645 -0.136676
C30   C     C_R   0.535426 0.764670 0.211455 -0.018163
C31   C     C_3   0.652903 0.701782 0.157963 -0.369679
C32   C     C_3   0.646091 0.633404 0.228349 0.167715
H13   H     H_    0.799192 0.729481 0.144751 0.199792
H14   H     H_    0.572915 0.677965 0.102476 0.123686
H15   H     H_    0.569729 0.568020 0.213376 0.071476
O11   O     O_R   0.229930 0.912420 0.917160 -0.542875
O12   O     O_R   0.559420 0.902500 0.088780 -0.536349
O13   O     O_R   0.729660 0.081330 0.089380 -0.532664
C33   C     C_R   0.389480 0.881878 0.118532 0.759458
O14   O     O_R   0.559650 0.901420 0.917750 -0.544066
O15   O     O_R   0.729880 0.080250 0.917130 -0.541442
C34   C     C_R   0.390761 0.879594 0.888600 0.691001
O16   O     O_R   0.229700 0.913500 0.089410 -0.517565
O17   O     O_3   0.396250 0.055540 0.003280 -0.376729
V3    V     V_3+5 0.671130 0.986010 0.003260 1.432659
O18   O     O_R   0.059600 0.091310 0.917720 -0.550121
C35   C     C_R   0.891521 0.113086 0.889441 0.748119
O19   O     O_R   0.059370 0.092380 0.088750 -0.542589
C36   C     C_R   0.890313 0.115030 0.116830 0.729371
V4    V     V_3+5 0.171120 0.007820 0.003230 1.426454
O20   O     O_3   0.896130 0.938240 0.003240 -0.365429
O21   O     O_3   0.484586 0.072659 0.275779 -0.640725
H16   H     H_    0.581677 0.049722 0.315327 0.293480
O22   O     O_3   0.810255 0.603184 0.744944 -0.626758
H17   H     H_    0.807371 0.565571 0.693678 0.298391
N1    N     N_2   0.045171 0.868685 0.229837 -0.513722
H18   H     H_    0.917409 0.836833 0.245580 0.263448
C37   C     C_3   0.057603 0.959049 0.266802 -0.470835
H19   H     H_    0.918703 0.995302 0.258707 0.173287
H20   H     H_    0.172119 0.999590 0.236095 0.247111
H21   H     H_    0.087130 0.954182 0.333996 0.184903
O23   O     O_3   0.827653 0.621703 0.264020 -0.642545
H22   H     H_    0.811484 0.573133 0.306025 0.294164
N2    N     N_2   0.511306 0.291348 0.688922 -0.496492
H23   H     H_    0.412551 0.297449 0.736569 0.238158
C38   C     C_3   0.443874 0.229670 0.624825 -0.471965
H24   H     H_    0.301075 0.253005 0.602756 0.201295
H25   H     H_    0.428945 0.158900 0.649196 0.158885
H26   H     H_    0.545698 0.229217 0.571571 0.208163
N3    N     N_2   0.132282 0.402983 0.240987 -0.548749
H27   H     H_    0.157417 0.442978 0.292139 0.274001
C39   C     C_3   0.103994 0.457357 0.167654 -0.559307
H28   H     H_    0.203899 0.517089 0.168369 0.200839
H29   H     H_    0.953460 0.483029 0.165576 0.221683
H30   H     H_    0.135051 0.416341 0.111105 0.196310
O24   O     O_3   0.457848 0.201689 0.394639 -0.620724
H31   H     H_    0.559954 0.163727 0.420006 0.288633

loop_
_geom_bond_atom_site_label_1
_geom_bond_atom_site_label_2
_ccdc_geom_bond_type
C31   C32   S    
C1    C18   S    
C3    C13   S    
C21   C22   A    
C17   C18   A    
C1    O6    A    
C20   C21   A    
C29   C30   A    
C25   C30   A    
C11   H4    S    
C19   H7    S    
C7    C8    D    
C18   C19   A    
O5    C3    A    
C14   C15   S    
O17   V4    S    
V2    O10   S    
C39   H30   S    
C12   N3    S    
O11   V4    S    
O12   C33   A    
C17   C22   A    
C16   H6    S    
C32   O23   S    
O17   V3    S    
C39   H29   S    
O18   V4    S    
C27   C28   A    
C15   H5    S    
O13   C36   A    
O18   C35   A    
O1    V2    S    
O7    V1    S    
C10   C36   S    
C24   H11   S    
C7    N2    S    
O11   C34   A    
O1    C2    A    
O9    C4    A    
O8    V2    S    
C5    C6    D    
C33   O16   A    
V4    O20   S    
C9    C10   A    
C2    C26   S    
O19   V4    S    
C20   H8    S    
O4    C2    A    
O23   H22   S    
N1    H18   S    
C10   C11   A    
O15   C35   A    
C5    C7    S    
O13   V3    S    
C15   O24   S    
O2    C1    A    
C23   C24   S    
C9    C16   S    
C16   O21   S    
C13   C14   A    
C38   H25   S    
C15   C16   S    
C39   H28   S    
C27   H12   S    
O16   V4    S    
O14   V3    S    
O21   H16   S    
N3    C39   S    
C17   C24   S    
C23   H9    S    
O3    C4    A    
N1    C37   S    
C25   C26   A    
N2    C38   S    
C37   H19   S    
O6    V2    S    
C37   H20   S    
O9    V2    S    
C22   C23   S    
O2    V1    S    
C28   C29   A    
C38   H26   S    
O12   V3    S    
C6    C35   S    
C25   C32   S    
C30   C31   S    
C12   C13   A    
O22   H17   S    
O19   C36   A    
O5    V1    S    
O8    C3    A    
C21   C34   S    
C37   H21   S    
C11   C12   A    
C32   H15   S    
C4    C8    S    
C31   H13   S    
O7    V2    S    
O4    V1    S    
C19   C20   A    
O3    V1    S    
V1    O10   S    
C29   C33   S    
C38   H24   S    
O15   V3    S    
C24   O22   S    
O24   H31   S    
C5    H1    S    
V3    O20   S    
C6    H2    S    
N3    H27   S    
C23   H10   S    
C9    C14   A    
N2    H23   S    
C26   C27   A    
C31   H14   S    
C8    H3    S    
C28   N1    S    
O14   C34   A    
