data_mof_unit_60839.cif
_audit_creation_date              2013-03-05T15:44:40-0500
_audit_creation_method            fapswitch 2.2
_symmetry_space_group_name_H-M    P1
_symmetry_Int_Tables_number       1
_space_group_crystal_system       triclinic
_cell_length_a                    20.11594
_cell_length_b                    22.655287
_cell_length_c                    15.166335
_cell_angle_alpha                 90.490815
_cell_angle_beta                  90.459225
_cell_angle_gamma                 90.009204
_cell_volume                      6911.31437873

loop_
_atom_site_label
_atom_site_type_symbol
_atom_site_description
_atom_site_fract_x
_atom_site_fract_y
_atom_site_fract_z
_atom_type_partial_charge
Zn1   Zn    Zn3+2 0.583120 1.000000 0.434770 1.066699
Zn2   Zn    Zn3+2 0.083120 0.500000 0.434770 1.067709
Zn3   Zn    Zn3+2 0.425830 1.000000 0.416880 1.148915
Zn4   Zn    Zn3+2 0.925830 0.500000 0.416880 1.150709
Zn5   Zn    Zn3+2 0.495530 0.070660 0.574170 0.982226
Zn6   Zn    Zn3+2 0.495530 0.929340 0.574170 1.080881
Zn7   Zn    Zn3+2 0.995530 0.570660 0.574170 0.979747
Zn8   Zn    Zn3+2 0.995530 0.429340 0.574170 1.075274
O1    O     O_3   0.500000 1.000000 0.500000 -0.544923
O2    O     O_3   1.000000 0.500000 0.500000 -0.544542
O3    O     O_R   0.419410 0.880950 0.543120 -0.640624
O4    O     O_R   0.419410 0.119050 0.543120 -0.667251
O5    O     O_R   0.919410 0.380950 0.543120 -0.640156
O6    O     O_R   0.919410 0.619050 0.543120 -0.666373
O7    O     O_R   0.635640 0.069590 0.463140 -0.589911
O8    O     O_R   0.635640 0.930410 0.463140 -0.638043
O9    O     O_R   0.135640 0.569590 0.463140 -0.590876
O10   O     O_R   0.135640 0.430410 0.463140 -0.639211
O11   O     O_R   0.456890 1.000000 0.295720 -0.575752
O12   O     O_R   0.956890 0.500000 0.295720 -0.575863
O13   O     O_R   0.488070 0.049450 0.698020 -0.658436
O14   O     O_R   0.488070 0.950550 0.698020 -0.603058
O15   O     O_R   0.988070 0.549450 0.698020 -0.658419
O16   O     O_R   0.988070 0.450550 0.698020 -0.604308
O17   O     O_R   0.370630 0.069610 0.433010 -0.572528
O18   O     O_R   0.370630 0.930390 0.433010 -0.579730
O19   O     O_R   0.870630 0.569610 0.433010 -0.573041
O20   O     O_R   0.870630 0.430390 0.433010 -0.579093
O21   O     O_R   0.574320 0.880940 0.560740 -0.577685
O22   O     O_R   0.574320 0.119060 0.560740 -0.658150
O23   O     O_R   0.074320 0.380940 0.560740 -0.574211
O24   O     O_R   0.074320 0.619060 0.560740 -0.658114
O25   O     O_R   0.566990 1.000000 0.308240 -0.630480
O26   O     O_R   0.066990 0.500000 0.308240 -0.626710
C1    C     C_R   0.373140 0.885927 0.484981 0.879309
C2    C     C_R   0.372930 0.114012 0.485614 0.878213
C3    C     C_R   0.873145 0.385927 0.484975 0.880538
C4    C     C_R   0.872837 0.613843 0.485857 0.879400
C5    C     C_R   0.627223 0.113578 0.515611 0.863172
C6    C     C_R   0.627291 0.886607 0.514675 0.908326
C7    C     C_R   0.127221 0.613574 0.515607 0.857630
C8    C     C_R   0.127352 0.386720 0.515056 0.863039
C9    C     C_R   0.514247 0.000799 0.260263 0.887534
C10   C     C_R   0.014247 0.500797 0.260261 0.889553
C11   C     C_R   0.484294 0.000401 0.738675 0.870914
C12   C     C_R   0.984302 0.500401 0.738672 0.870329
C13   C     C_R   0.319248 0.157490 0.485158 -0.196946
C14   C     C_R   0.325311 0.837660 0.474549 -0.181981
C15   C     C_R   0.819024 0.657024 0.485882 -0.198530
C16   C     C_R   0.825329 0.337659 0.474529 -0.182711
C17   C     C_R   0.679448 0.842075 0.518204 -0.154612
C18   C     C_R   0.677281 0.159838 0.523122 -0.210577
C19   C     C_R   0.179818 0.342585 0.520964 -0.186315
C20   C     C_R   0.177289 0.659819 0.523100 -0.207220
C21   C     C_R   0.797142 0.820204 0.519972 0.102976
C22   C     C_R   0.742409 0.225147 0.616596 0.164212
C23   C     C_R   0.297306 0.319836 0.527353 0.131414
C24   C     C_R   0.242623 0.724969 0.616555 0.164634
C25   C     C_R   0.745327 0.860725 0.527098 0.056882
C26   C     C_R   0.701074 0.176369 0.606870 0.046725
C27   C     C_R   0.245646 0.360262 0.538421 0.080884
C28   C     C_R   0.201267 0.676205 0.606812 0.047605
C29   C     C_R   0.663587 0.782251 0.507078 0.241307
C30   C     C_R   0.698295 0.189209 0.447295 0.269253
C31   C     C_R   0.164204 0.283355 0.502857 0.258757
C32   C     C_R   0.198139 0.689304 0.447296 0.270926
C33   C     C_R   0.715135 0.739882 0.498467 -0.168398
C34   C     C_R   0.740649 0.239128 0.455164 -0.167919
C35   C     C_R   0.215541 0.240693 0.496754 -0.169093
C36   C     C_R   0.240564 0.739172 0.455171 -0.168239
C37   C     C_R   0.283279 0.259774 0.504375 0.039732
C38   C     C_R   0.260458 0.758933 0.541469 0.029340
C39   C     C_R   0.783000 0.759401 0.502409 0.059493
C40   C     C_R   0.760382 0.259008 0.541469 0.029464
C41   C     C_R   0.334655 0.217949 0.491342 0.028982
C42   C     C_R   0.298502 0.811196 0.549943 0.037887
C43   C     C_R   0.834352 0.717506 0.490198 0.028349
C44   C     C_R   0.798407 0.311283 0.549912 0.037885
C45   C     C_R   0.252996 0.138362 0.481279 0.198915
C46   C     C_R   0.308198 0.817041 0.389868 0.200405
C47   C     C_R   0.752860 0.637626 0.483467 0.196826
C48   C     C_R   0.808334 0.316960 0.389852 0.199813
C49   C     C_R   0.201371 0.179630 0.483174 0.236633
C50   C     C_R   0.263742 0.769929 0.379828 0.235921
C51   C     C_R   0.701083 0.678712 0.485860 0.234754
C52   C     C_R   0.763906 0.269828 0.379808 0.236061
C53   C     C_R   0.519116 0.000706 0.163920 -0.127119
C54   C     C_R   0.019120 0.500713 0.163915 -0.128813
C55   C     C_R   0.477626 0.002561 0.833879 -0.219798
C56   C     C_R   0.977645 0.502559 0.833872 -0.219344
C57   C     C_R   0.420610 0.041438 0.961723 0.349247
C58   C     C_R   0.920571 0.541362 0.961714 0.349258
C59   C     C_R   0.423933 0.033229 0.870800 -0.042542
C60   C     C_R   0.923906 0.533161 0.870792 -0.042942
C61   C     C_R   0.528243 0.979154 0.886918 0.273748
C62   C     C_R   0.028304 0.479215 0.886902 0.276634
C63   C     C_R   0.526682 0.987915 0.979399 -0.005595
C64   C     C_R   0.026724 0.487961 0.979386 -0.006116
C65   C     C_R   0.470860 0.017612 0.017708 -0.180141
C66   C     C_R   0.970855 0.517589 0.017697 -0.180356
C67   C     C_R   0.466923 0.022341 0.110798 0.289340
C68   C     C_R   0.966904 0.522303 0.110788 0.289485
C69   C     C_R   0.575462 0.976354 0.125512 -0.242467
C70   C     C_R   0.075503 0.476428 0.125505 -0.239675
C71   C     C_R   0.579938 0.969379 0.034683 0.147440
C72   C     C_R   0.080001 0.469479 0.034673 0.147278
H1    H     H_    0.616022 0.960661 0.166579 0.188606
H2    H     H_    0.116083 0.460773 0.166572 0.190806
N1    N     N_3   0.402057 0.236886 0.478417 -0.456317
H3    H     H_    0.420314 0.218147 0.420189 0.226576
H4    H     H_    0.431615 0.223928 0.531735 0.224925
N2    N     N_3   0.305581 0.840129 0.634238 -0.464840
H5    H     H_    0.291679 0.884436 0.628748 0.211733
H6    H     H_    0.354791 0.837295 0.656180 0.234186
N3    N     N_3   0.901683 0.736284 0.476189 -0.456402
H7    H     H_    0.919696 0.716918 0.418273 0.225304
H8    H     H_    0.931484 0.724001 0.529644 0.226003
N4    N     N_3   0.805369 0.340314 0.634149 -0.464584
H9    H     H_    0.791446 0.384608 0.628513 0.212772
H10   H     H_    0.854556 0.337533 0.656197 0.233549
N5    N     N_3   0.639770 0.944294 0.999902 -0.358105
H11   H     H_    0.679819 0.970706 0.020101 0.217962
H12   H     H_    0.646235 0.902414 0.027148 0.226413
N6    N     N_3   0.139879 0.444483 0.999890 -0.358136
H13   H     H_    0.179882 0.470943 0.020111 0.218497
H14   H     H_    0.146412 0.402604 0.027116 0.227276
N7    N     N_3   0.371784 0.057132 0.816441 -0.359110
H15   H     H_    0.391188 0.090704 0.777505 0.228440
H16   H     H_    0.352902 0.023624 0.775533 0.197395
N8    N     N_3   0.871722 0.557004 0.816432 -0.358468
H17   H     H_    0.891083 0.590587 0.777477 0.228876
H18   H     H_    0.852879 0.523471 0.775539 0.197965
N9    N     N_R   0.581077 0.947012 0.845436 0.226189
O27   O     O_R   0.580210 0.889591 0.844954 -0.318848
O28   O     O_R   0.625110 0.974773 0.799019 -0.398048
N10   N     N_R   0.081186 0.447137 0.845410 0.225638
O29   O     O_R   0.080430 0.389715 0.844987 -0.322771
O30   O     O_R   0.125123 0.474939 0.798886 -0.408914
N11   N     N_R   0.237527 0.076409 0.478001 0.245651
O31   O     O_R   0.202376 0.054652 0.413093 -0.249707
O32   O     O_R   0.257315 0.041850 0.541084 -0.395813
N12   N     N_R   0.337117 0.843092 0.313043 0.246688
O33   O     O_R   0.401242 0.842266 0.302425 -0.338790
O34   O     O_R   0.299383 0.866185 0.252415 -0.246791
N13   N     N_R   0.737704 0.575614 0.480004 0.246640
O35   O     O_R   0.702108 0.553913 0.415474 -0.249494
O36   O     O_R   0.758297 0.540929 0.542484 -0.396297
N14   N     N_R   0.837328 0.342966 0.313043 0.246455
O37   O     O_R   0.901469 0.342184 0.302574 -0.336491
O38   O     O_R   0.799649 0.365985 0.252289 -0.246449
N15   N     N_3   0.363258 0.341427 0.545038 -0.416685
H19   H     H_    0.390531 0.342554 0.486756 0.247798
H20   H     H_    0.386220 0.315767 0.593445 0.212948
N16   N     N_3   0.267991 0.736409 0.703824 -0.389170
H21   H     H_    0.246323 0.774618 0.729750 0.233783
H22   H     H_    0.319843 0.739144 0.702658 0.227458
N17   N     N_3   0.863067 0.842752 0.534674 -0.445071
H23   H     H_    0.889749 0.841911 0.475872 0.242555
H24   H     H_    0.886711 0.819048 0.584734 0.223308
N18   N     N_3   0.767597 0.236717 0.703919 -0.389676
H25   H     H_    0.745874 0.274963 0.729641 0.234240
H26   H     H_    0.819453 0.239449 0.702936 0.226416
N19   N     N_R   0.634478 0.656808 0.477896 0.260882
O39   O     O_R   0.605223 0.656464 0.401079 -0.248230
O40   O     O_R   0.609070 0.626382 0.541733 -0.266221
N20   N     N_R   0.745893 0.252170 0.291920 0.259082
O41   O     O_R   0.692380 0.273715 0.255795 -0.255543
O42   O     O_R   0.789279 0.225338 0.242636 -0.258383
N21   N     N_R   0.134669 0.157723 0.477623 0.258910
O43   O     O_R   0.105894 0.152347 0.400843 -0.241982
O44   O     O_R   0.108717 0.131878 0.545455 -0.275517
N22   N     N_R   0.245685 0.752305 0.291941 0.258915
O45   O     O_R   0.192245 0.773978 0.255795 -0.256531
O46   O     O_R   0.288994 0.725355 0.242678 -0.257447
N23   N     N_3   0.759446 0.921923 0.544795 -0.416475
H27   H     H_    0.789801 0.937882 0.494672 0.231536
H28   H     H_    0.785422 0.925195 0.604634 0.227675
N24   N     N_3   0.684848 0.143029 0.684032 -0.386279
H29   H     H_    0.634161 0.147457 0.696901 0.228504
H30   H     H_    0.695761 0.098522 0.672407 0.202043
N25   N     N_3   0.262009 0.419495 0.567547 -0.377483
H31   H     H_    0.287228 0.416236 0.627880 0.223881
H32   H     H_    0.219899 0.444398 0.582314 0.183955
N26   N     N_3   0.185197 0.642735 0.683906 -0.386152
H33   H     H_    0.134523 0.647094 0.696914 0.228304
H34   H     H_    0.196134 0.598253 0.672089 0.198563
N27   N     N_R   0.594788 0.765768 0.502940 0.233811
O47   O     O_R   0.564697 0.749942 0.574585 -0.287785
O48   O     O_R   0.559737 0.777750 0.432859 -0.327943
N28   N     N_R   0.674132 0.168687 0.363273 0.234131
O49   O     O_R   0.707741 0.129057 0.319914 -0.297570
O50   O     O_R   0.613226 0.180127 0.339484 -0.348368
N29   N     N_R   0.095964 0.268101 0.486593 0.230653
O51   O     O_R   0.057741 0.255067 0.552446 -0.289430
O52   O     O_R   0.069419 0.278596 0.409805 -0.323762
N30   N     N_R   0.173683 0.668987 0.363312 0.233966
O53   O     O_R   0.206996 0.629287 0.319690 -0.292574
O54   O     O_R   0.112774 0.680683 0.339826 -0.349640
N31   N     N_R   0.409471 0.047387 0.152254 0.235139
O55   O     O_R   0.414419 0.097100 0.195469 -0.321393
O56   O     O_R   0.355297 0.016307 0.158101 -0.256381
N32   N     N_R   0.909419 0.547292 0.152239 0.235071
O57   O     O_R   0.914298 0.597020 0.195426 -0.322352
O58   O     O_R   0.855290 0.516151 0.158105 -0.256385
N33   N     N_R   0.368556 0.078596 0.994615 0.253578
O59   O     O_R   0.381829 0.133188 0.015432 -0.297117
O60   O     O_R   0.306841 0.062228 0.985707 -0.265064
N34   N     N_R   0.868459 0.578454 0.994607 0.253692
O61   O     O_R   0.881644 0.633066 0.015409 -0.297393
O62   O     O_R   0.806770 0.562006 0.985706 -0.264618

loop_
_geom_bond_atom_site_label_1
_geom_bond_atom_site_label_2
_geom_bond_distance
_ccdc_geom_bond_type
C24   C28   1.389015 A    
Zn7   O2    1.951127 S    
C45   N11   1.437954 S    
Zn8   O2    1.966853 S    
N28   O49   1.301079 A    
O23   C8    1.283974 A    
C21   C25   1.393265 A    
Zn2   O10   1.947248 S    
C34   C52   1.425078 A    
N21   O43   1.301008 A    
C14   C42   1.406868 A    
N19   O39   1.300973 A    
C52   N20   1.432183 S    
C13   C45   1.401985 A    
C46   C50   1.398869 A    
Zn6   O1    1.966853 S    
N7    H16   1.045723 S    
N13   O35   1.301025 A    
Zn1   O25   1.943670 S    
C62   N10   1.434884 S    
C4    C15   1.459172 S    
N33   O59   1.300961 A    
C16   C48   1.403073 A    
N17   H23   1.044582 S    
N32   O58   1.301390 A    
C35   C49   1.425311 A    
C30   C34   1.419462 A    
N19   O40   1.301156 A    
N14   O38   1.300997 A    
C25   N23   1.437792 S    
N1    H4    1.044049 S    
C8    C19   1.456725 S    
C54   C68   1.408933 A    
N27   O48   1.301344 A    
Zn7   O15   1.949763 S    
N24   H30   1.045776 S    
O6    C4    1.277116 A    
O19   C4    1.278382 A    
C34   C40   1.433593 A    
N3    H7    1.045885 S    
Zn6   O14   1.941828 S    
C23   N15   1.436374 S    
C61   N9    1.434821 S    
N26   H33   1.044351 S    
C2    C13   1.461756 S    
C15   C47   1.401667 A    
C35   C37   1.432962 A    
N4    H9    1.045892 S    
C18   C26   1.401666 A    
C63   C65   1.433576 A    
C43   N3    1.437557 S    
C53   C67   1.408923 A    
C19   C27   1.405826 A    
Zn7   O6    1.940643 S    
N22   O46   1.301075 A    
N34   O61   1.300960 A    
N3    H8    1.044113 S    
C62   C64   1.415505 A    
C12   C56   1.451496 S    
O24   C7    1.275411 A    
Zn3   O11   1.945606 S    
Zn1   O7    1.940993 S    
O4    C2    1.277910 A    
C36   C50   1.425038 A    
O5    C3    1.282605 A    
C38   C42   1.414081 A    
C63   C71   1.420850 A    
Zn2   O26   1.943670 S    
N33   O60   1.301264 A    
C5    C18   1.456420 S    
N15   H19   1.044573 S    
N31   O55   1.301608 A    
N17   H24   1.045125 S    
O15   C12   1.277949 A    
C37   C41   1.416121 A    
Zn2   O9    1.940993 S    
N20   O42   1.301065 A    
N21   O44   1.300994 A    
C1    C14   1.463115 S    
C16   C44   1.406771 A    
C58   C60   1.391983 A    
N2    H5    1.045892 S    
N13   O36   1.301384 A    
O11   C9    1.277040 A    
C56   C60   1.402169 A    
O13   C11   1.277970 A    
N25   H32   1.042613 S    
Zn7   O24   1.940178 S    
C29   C33   1.419155 A    
C33   C51   1.425275 A    
C22   C40   1.427913 A    
N32   O57   1.301608 A    
C57   N33   1.433680 S    
O25   C9    1.281912 A    
Zn1   O1    1.949599 S    
N24   H29   1.044343 S    
Zn3   O17   1.943752 S    
C17   C29   1.400806 A    
N14   O37   1.301346 A    
Zn5   O4    1.940643 S    
N23   H28   1.045649 S    
C18   C30   1.401707 A    
Zn6   O3    1.935801 S    
N30   O53   1.301086 A    
C27   N25   1.446255 S    
C20   C28   1.401575 A    
N29   O52   1.301057 A    
N25   H31   1.045870 S    
C36   C38   1.433568 A    
C22   C26   1.388980 A    
C15   C43   1.405300 A    
N18   H26   1.045187 S    
C55   C61   1.399769 A    
N8    H18   1.045724 S    
C59   N7    1.437832 S    
Zn5   O1    1.951127 S    
Zn3   O1    1.945531 S    
C57   C59   1.392010 A    
N9    O27   1.300960 A    
C32   N30   1.433921 S    
N23   H27   1.045719 S    
C42   N2    1.437729 S    
C21   C39   1.428915 A    
Zn6   O21   1.938493 S    
C66   C68   1.417830 A    
N5    H11   1.045795 S    
C71   N5    1.433552 S    
C69   C71   1.388861 A    
Zn1   O8    1.947248 S    
C60   N8    1.437835 S    
C23   C37   1.429266 A    
C56   C62   1.399769 A    
O7    C5    1.282074 A    
N16   H21   1.044485 S    
O8    C6    1.280332 A    
C33   C39   1.435573 A    
N2    H6    1.043967 S    
N4    H10   1.043967 S    
N10   O30   1.301225 A    
C65   C67   1.417827 A    
O12   C10   1.277060 A    
C29   N27   1.434151 S    
C40   C44   1.414082 A    
N20   O41   1.300968 A    
C51   N19   1.432545 S    
C53   C69   1.390564 A    
C17   C25   1.396041 A    
Zn4   O2    1.945531 S    
N7    H15   1.044446 S    
Zn2   O2    1.949599 S    
C70   H2    1.084341 S    
Zn4   O19   1.943752 S    
C19   C31   1.402453 A    
N22   O45   1.300983 A    
C58   C66   1.424212 A    
N6    H14   1.045846 S    
Zn5   O22   1.940178 S    
O26   C10   1.281923 A    
C46   N12   1.437659 S    
N28   O50   1.301177 A    
C11   C55   1.451597 S    
C44   N4    1.437735 S    
Zn8   O23   1.938493 S    
N16   H22   1.045187 S    
Zn3   O18   1.946862 S    
C67   N31   1.434811 S    
N10   O29   1.300959 A    
C50   N22   1.432170 S    
C48   N14   1.437664 S    
N11   O31   1.300931 A    
C61   C63   1.415481 A    
C23   C27   1.395472 A    
C70   C72   1.388879 A    
C20   C32   1.401661 A    
C58   N34   1.433678 S    
C6    C17   1.456668 S    
C47   N13   1.437995 S    
C64   C72   1.420835 A    
C9    C53   1.465217 S    
N18   H25   1.044489 S    
C14   C46   1.403116 A    
O10   C8    1.281748 A    
N8    H17   1.044448 S    
C68   N32   1.434805 S    
C13   C41   1.406477 A    
N27   O47   1.301069 A    
C22   N18   1.436196 S    
C48   C52   1.398879 A    
N1    H3    1.045869 S    
C45   C49   1.397758 A    
C3    C16   1.462989 S    
N11   O32   1.301382 A    
C24   C38   1.427959 A    
C32   C36   1.419411 A    
O20   C3    1.285056 A    
C31   C35   1.417564 A    
C49   N21   1.432138 S    
O21   C6    1.285852 A    
O3    C1    1.282618 A    
Zn8   O16   1.941828 S    
N26   H34   1.045793 S    
O22   C5    1.275399 A    
C41   N1    1.437463 S    
N12   O34   1.300989 A    
N15   H20   1.045119 S    
C31   N29   1.434422 S    
C55   C59   1.402199 A    
C64   C66   1.433597 A    
O9    C7    1.281973 A    
C7    C20   1.456271 S    
N5    H12   1.045848 S    
N30   O54   1.301172 A    
O17   C2    1.279146 A    
C28   N26   1.437975 S    
Zn4   O12   1.945606 S    
Zn8   O5    1.935801 S    
O18   C1    1.285112 A    
C21   N17   1.436117 S    
O14   C11   1.284651 A    
Zn5   O13   1.949763 S    
C30   N28   1.433917 S    
N34   O62   1.301263 A    
N29   O51   1.301222 A    
Zn4   O20   1.946862 S    
C72   N6    1.433552 S    
N31   O56   1.301390 A    
N9    O28   1.301206 A    
C39   C43   1.415154 A    
N12   O33   1.301342 A    
N6    H13   1.045797 S    
C69   H1    1.084345 S    
C24   N16   1.436187 S    
C57   C65   1.424209 A    
C10   C54   1.465278 S    
C26   N24   1.437979 S    
C54   C70   1.390591 A    
C47   C51   1.397433 A    
O16   C12   1.284615 A    
