data_mof_unit_64248.cif
_audit_creation_date              2012-12-10T20:46:32-0500
_audit_creation_method            fapswitch 2.2
_symmetry_space_group_name_H-M    P1
_symmetry_Int_Tables_number       1
_space_group_crystal_system       triclinic
_cell_length_a                    15.600092
_cell_length_b                    19.203062
_cell_length_c                    19.194847
_cell_angle_alpha                 94.495425
_cell_angle_beta                  102.113771
_cell_angle_gamma                 97.617662
_cell_volume                      5538.97359126

loop_
_atom_site_label
_atom_site_type_symbol
_atom_type_description
_atom_site_fract_x
_atom_site_fract_y
_atom_site_fract_z
_atom_type_partial_charge
Br1   Br    Br    0.708762 0.113479 0.570073 -0.431010
Br2   Br    Br    0.377891 0.593900 0.912962 -0.409488
Br3   Br    Br    0.298626 0.418745 0.203999 -0.435546
Br4   Br    Br    0.021941 0.728235 0.616300 -0.465960
C1    C     C_R   0.509479 0.311677 0.493393 0.512131
C2    C     C_R   0.879490 0.499527 0.509543 0.219573
C3    C     C_R   0.881530 0.612485 0.578065 -0.117038
C4    C     C_R   0.490603 0.688066 0.505586 0.511074
C5    C     C_R   0.162069 0.446400 0.456524 0.032384
C6    C     C_R   0.484550 0.763671 0.504016 0.030176
C7    C     C_R   0.548264 0.807897 0.479440 -0.136204
C8    C     C_R   0.541671 0.879088 0.475629 -0.069567
C9    C     C_R   0.470718 0.907468 0.496292 0.228214
C10   C     C_R   0.406535 0.863066 0.519796 -0.094817
C11   C     C_R   0.413652 0.791783 0.524334 -0.135626
C12   C     C_R   0.043656 0.349171 0.448830 -0.138416
C13   C     C_R   0.446195 0.113749 0.457405 -0.116146
C14   C     C_R   0.441441 0.185701 0.456358 -0.152680
C15   C     C_R   0.525051 0.091168 0.492165 0.241173
C16   C     C_R   0.510017 0.508883 0.690885 0.515338
C17   C     C_R   0.514777 0.235876 0.490691 0.000830
C18   C     C_R   0.593719 0.213322 0.524055 -0.109451
C19   C     C_R   0.599304 0.141521 0.523978 0.181099
C20   C     C_R   0.484208 0.488976 0.231035 0.037173
C21   C     C_R   0.558454 0.519967 0.207791 -0.169911
C22   C     C_R   0.556291 0.520987 0.135097 -0.093490
C23   C     C_R   0.993842 0.394921 0.476114 -0.058736
C24   C     C_R   0.479041 0.491025 0.083607 0.204115
C25   C     C_R   0.405142 0.459891 0.106543 -0.055450
C26   C     C_R   0.406642 0.458618 0.179485 0.140622
C27   C     C_R   0.461804 0.547666 0.873810 0.198208
C28   C     C_R   0.489503 0.491419 0.308735 0.537995
C29   C     C_R   0.455142 0.543945 0.799841 -0.111580
C30   C     C_R   0.531044 0.519953 0.917434 0.236622
C31   C     C_R   0.517003 0.513217 0.768800 -0.003389
C32   C     C_R   0.586838 0.487429 0.812968 -0.146593
C33   C     C_R   0.594089 0.491479 0.886713 -0.127706
C34   C     C_R   0.022579 0.468901 0.487328 0.062078
C35   C     C_R   0.740833 0.535111 0.534833 0.497764
C36   C     C_R   0.258294 0.466528 0.465100 0.499743
C37   C     C_R   0.968425 0.634309 0.573803 0.155923
C38   C     C_R   0.836316 0.547044 0.544373 0.010385
C39   C     C_R   0.126828 0.374647 0.438387 -0.109833
C40   C     C_R   0.108501 0.494606 0.477716 0.018488
C41   C     C_R   0.971254 0.517633 0.512394 0.048267
C42   C     C_R   0.012672 0.588337 0.538379 0.016801
C43   C     C_R   0.095439 0.612724 0.525047 -0.100208
C44   C     C_R   0.139782 0.567629 0.491195 -0.116108
H1    H     H_    0.846936 0.648822 0.603600 0.156331
H2    H     H_    0.125616 0.667504 0.538390 0.174172
H3    H     H_    0.636173 0.464279 0.790639 0.161242
H4    H     H_    0.615051 0.545473 0.119597 0.158853
H5    H     H_    0.648168 0.471155 0.920049 0.143390
H6    H     H_    0.618764 0.543486 0.246074 0.154880
H7    H     H_    0.166529 0.337003 0.421739 0.150667
H8    H     H_    0.935318 0.370348 0.491329 0.187736
H9    H     H_    0.019668 0.292944 0.439475 0.141617
H10   H     H_    0.199926 0.590937 0.477141 0.147940
H11   H     H_    0.380063 0.202093 0.430040 0.151573
H12   H     H_    0.388599 0.075868 0.430909 0.152793
H13   H     H_    0.772646 0.428469 0.474179 0.336784
H14   H     H_    0.351317 0.884000 0.535310 0.143159
H15   H     H_    0.363077 0.758535 0.542712 0.147036
H16   H     H_    0.651339 0.251484 0.550010 0.167285
H17   H     H_    0.591660 0.911643 0.455975 0.163110
H18   H     H_    0.603332 0.787503 0.463074 0.152936
H19   H     H_    0.401672 0.565178 0.766792 0.173770
H20   H     H_    0.345415 0.437213 0.067180 0.172676
N1    N     N_2   0.461576 0.979841 0.493564 -0.239360
N2    N     N_2   0.532677 0.018670 0.494684 -0.189802
N3    N     N_2   0.472359 0.491326 0.008639 -0.178221
N4    N     N_2   0.540219 0.521129 0.992284 -0.223367
O1    O     O_3   0.500000 0.500000 0.500000 -0.452603
O2    O     O_R   0.703360 0.489010 0.567610 -0.545729
O3    O     O_R   0.300660 0.429640 0.429680 -0.526493
O4    O     O_R   0.695340 0.566530 0.487850 -0.526589
O5    O     O_R   0.300650 0.514820 0.514850 -0.548305
O6    O     O_3   0.831713 0.441548 0.463761 -0.717508
O7    O     O_R   0.453370 0.540700 0.651360 -0.535787
O8    O     O_R   0.442100 0.444740 0.334100 -0.488531
O9    O     O_R   0.561930 0.354050 0.543340 -0.542261
O10   O     O_R   0.542600 0.660510 0.471200 -0.542561
O11   O     O_R   0.453390 0.335660 0.446330 -0.535785
O12   O     O_R   0.442080 0.649780 0.539130 -0.543042
O13   O     O_R   0.561920 0.473910 0.663190 -0.540078
O14   O     O_R   0.542610 0.540650 0.351350 -0.546030
Zn1   Zn    Zn3+2 0.425320 0.550450 0.550460 0.950889
Zn2   Zn    Zn3+2 0.580410 0.455020 0.567370 0.951047
Zn3   Zn    Zn3+2 0.568940 0.565780 0.453410 0.960982
Zn4   Zn    Zn3+2 0.425330 0.428750 0.428760 0.989967

loop_
_geom_bond_atom_site_label_1
_geom_bond_atom_site_label_2
_ccdc_geom_bond_type
C2    C41   A    
C30   C33   A    
C31   C32   A    
O12   Zn1   S    
O7    Zn1   S    
C41   C42   A    
O10   Zn3   S    
C4    O10   A    
C32   C33   A    
O1    Zn4   S    
C6    C11   A    
C1    O11   A    
C2    O6    S    
Br4   C37   S    
C23   C34   A    
C14   C17   A    
C35   O2    A    
C20   C28   S    
O1    Zn1   S    
C34   C41   A    
O3    Zn4   S    
C13   C15   A    
C16   C31   S    
C37   C42   A    
C27   C29   A    
C35   C38   S    
C7    H18   S    
O4    Zn3   S    
C33   H5    S    
C12   C23   A    
C4    O12   A    
C9    C10   A    
C43   H2    S    
C5    C39   A    
C20   C21   A    
C3    H1    S    
C23   H8    S    
C21   C22   A    
C5    C36   S    
Br2   C27   S    
Br3   C26   S    
C15   C19   A    
C3    C38   A    
O1    Zn2   S    
C34   C40   A    
C25   C26   A    
C22   H4    S    
C28   O8    A    
C25   H20   S    
C1    O9    A    
C43   C44   A    
H13   O6    S    
C28   O14   A    
C16   O13   A    
C13   C14   A    
C27   C30   A    
C35   O4    A    
C21   H6    S    
C12   C39   A    
C32   H3    S    
C39   H7    S    
Br1   C19   S    
C24   N3    S    
C30   N4    S    
C29   H19   S    
O13   Zn2   S    
O11   Zn4   S    
C42   C43   A    
C24   C25   A    
C5    C40   A    
C16   O7    A    
C18   C19   A    
O14   Zn3   S    
C7    C8    A    
C44   H10   S    
C8    H17   S    
C22   C24   A    
C36   O3    A    
O1    Zn3   S    
N3    N4    D    
C36   O5    A    
C9    N1    S    
C29   C31   A    
C12   H9    S    
C3    C37   A    
O8    Zn4   S    
N1    N2    D    
C20   C26   A    
O9    Zn2   S    
C6    C7    A    
C13   H12   S    
C18   H16   S    
C14   H11   S    
C1    C17   S    
C8    C9    A    
O5    Zn1   S    
C4    C6    S    
C2    C38   A    
C11   H15   S    
C10   C11   A    
C15   N2    S    
O2    Zn2   S    
C17   C18   A    
C40   C44   A    
C10   H14   S    
