data_mof_unit_14176.cif
_audit_creation_date              2012-12-10T17:50:10-0500
_audit_creation_method            fapswitch 2.2
_symmetry_space_group_name_H-M    P1
_symmetry_Int_Tables_number       1
_space_group_crystal_system       triclinic
_cell_length_a                    10.614522
_cell_length_b                    14.704969
_cell_length_c                    14.724643
_cell_angle_alpha                 65.122059
_cell_angle_beta                  103.157032
_cell_angle_gamma                 102.705694
_cell_volume                      2010.14949749

loop_
_atom_site_label
_atom_site_type_symbol
_atom_type_description
_atom_site_fract_x
_atom_site_fract_y
_atom_site_fract_z
_atom_type_partial_charge
C1    C     C_R   0.476967 0.119701 0.312328 0.797840
C2    C     C_R   0.520752 0.880320 0.687660 0.796442
C3    C     C_R   0.472822 0.291752 0.178843 -0.246047
C4    C     C_R   0.506008 0.708161 0.821033 -0.240120
C5    C     C_R   0.453988 0.360062 0.077388 0.090885
C6    C     C_R   0.490697 0.639111 0.919967 0.090904
C7    C     C_R   0.426558 0.320619 0.001037 0.156971
C8    C     C_R   0.503256 0.678315 0.995138 0.156502
C9    C     C_R   0.465915 0.466405 0.049923 0.068526
C10   C     C_R   0.465021 0.532545 0.946286 0.065976
C11   C     C_R   0.435546 0.489971 0.872331 -0.209051
C12   C     C_R   0.476260 0.508640 0.122302 -0.208350
C13   C     C_R   0.415380 0.386008 0.899505 -0.190941
C14   C     C_R   0.493644 0.612577 0.094975 -0.192325
C15   C     C_R   0.717039 0.282809 0.670135 0.263659
C16   C     C_R   0.284512 0.717935 0.328726 0.261169
C17   C     C_R   0.682713 0.202080 0.639216 0.031658
C18   C     C_R   0.318183 0.798349 0.360124 0.031585
C19   C     C_R   0.519712 0.285640 0.509134 -0.012931
C20   C     C_R   0.480084 0.714263 0.490985 -0.014678
C21   C     C_R   0.549826 0.371359 0.535544 -0.066915
C22   C     C_R   0.450656 0.628875 0.464063 -0.066013
C23   C     C_R   0.259567 0.000513 0.500060 0.789475
C24   C     C_R   0.740439 0.999479 0.499955 0.790966
C25   C     C_R   0.650047 0.367977 0.618863 0.066035
C26   C     C_R   0.351143 0.632593 0.380243 0.067587
C27   C     C_R   0.483568 0.459030 0.483191 0.111987
C28   C     C_R   0.517037 0.541263 0.516324 0.107810
C29   C     C_R   0.615591 0.533061 0.600701 -0.255177
C30   C     C_R   0.385434 0.467420 0.398535 -0.257857
C31   C     C_R   0.680764 0.448989 0.650018 -0.133865
C32   C     C_R   0.320785 0.551749 0.348839 -0.144951
C33   C     C_3   0.016631 0.010656 0.408128 -0.161408
C34   C     C_3   0.983397 0.989329 0.591907 -0.162406
C35   C     C_3   0.962035 0.087457 0.429881 -0.162650
C36   C     C_3   0.037996 0.912527 0.570155 -0.163156
C37   C     C_3   0.877123 0.998810 0.499743 0.007363
C38   C     C_3   0.122900 0.001174 0.500290 0.008029
C39   C     C_3   0.929409 0.921959 0.477980 -0.127104
C40   C     C_3   0.070619 0.078024 0.522055 -0.127414
C41   C     C_R   0.458651 0.187349 0.204766 -0.060867
C42   C     C_R   0.522951 0.812667 0.794864 -0.059796
C43   C     C_R   0.411394 0.215831 0.027070 -0.160997
C44   C     C_R   0.524651 0.783268 0.969499 -0.162263
C45   C     C_R   0.426398 0.149471 0.128396 -0.177582
C46   C     C_R   0.533200 0.850145 0.869691 -0.177969
Cu1   Cu    Cu3+1 0.465750 0.918270 0.475680 0.943786
Cu2   Cu    Cu3+1 0.534250 0.081730 0.524320 0.943847
H1    H     H_    0.927655 0.158888 0.372428 0.143709
H2    H     H_    0.072402 0.841105 0.627610 0.143670
H3    H     H_    0.556173 0.719346 0.551553 0.135255
H4    H     H_    0.442926 0.280234 0.449077 0.135101
H5    H     H_    0.268572 0.864461 0.320468 0.160930
H6    H     H_    0.732656 0.136128 0.678632 0.161936
H7    H     H_    0.645345 0.590632 0.631306 0.133325
H8    H     H_    0.355940 0.409938 0.367805 0.130219
H9    H     H_    0.033580 0.019538 0.332976 0.145624
H10   H     H_    0.966469 0.980453 0.667061 0.145178
H11   H     H_    0.868934 0.858018 0.460003 0.150887
H12   H     H_    0.131101 0.141963 0.540033 0.150252
H13   H     H_    0.392812 0.356662 0.840422 0.156371
H14   H     H_    0.500568 0.641660 0.152766 0.158566
H15   H     H_    0.506634 0.682526 0.762664 0.146755
H16   H     H_    0.502537 0.318337 0.239343 0.153003
H17   H     H_    0.546276 0.930836 0.850975 0.165484
H18   H     H_    0.414504 0.068883 0.146841 0.165651
H19   H     H_    0.388867 0.185280 0.968937 0.147097
H20   H     H_    0.533214 0.813589 0.026537 0.148140
H21   H     H_    0.423269 0.534756 0.792085 0.147804
H22   H     H_    0.467124 0.463372 0.200662 0.140750
H23   H     H_    0.755697 0.448164 0.713862 0.202988
H24   H     H_    0.246478 0.552859 0.284569 0.203517
N1    N     N_R   0.585750 0.204560 0.560800 -0.207020
N2    N     N_R   0.414250 0.795440 0.439200 -0.206492
O1    O     O_R   0.454850 0.022100 0.338110 -0.587011
O2    O     O_R   0.545150 0.977900 0.661890 -0.586616
O3    O     O_R   0.512700 0.160150 0.379180 -0.588101
O4    O     O_R   0.487300 0.839850 0.620820 -0.588042
O5    O     O_R   0.287930 0.931000 0.479440 -0.577751
O6    O     O_R   0.712070 0.069000 0.520560 -0.577483
O7    O     O_R   0.345780 0.069050 0.520520 -0.587031
O8    O     O_R   0.654220 0.930950 0.479480 -0.585990
Cl1   Cl    Cl    0.843400 0.272871 0.773648 -0.642949
Cl2   Cl    Cl    0.159648 0.728586 0.224157 -0.643895

loop_
_geom_bond_atom_site_label_1
_geom_bond_atom_site_label_2
_ccdc_geom_bond_type
C25   C31   A    
C38   C40   S    
C26   C32   A    
C40   H12   S    
C34   C37   S    
C1    O3    A    
Cu2   O2    S    
Cu1   O5    S    
C36   H2    S    
C32   H24   S    
C3    H16   S    
C4    H15   S    
C33   C39   S    
C34   C40   S    
C28   C29   A    
C35   C37   S    
C20   H3    S    
C15   C25   A    
C14   H14   S    
C16   Cl2   S    
Cu2   O7    S    
C42   C46   A    
Cu1   O8    S    
C24   O8    A    
C12   H22   S    
C18   H5    S    
C19   H4    S    
C24   O6    A    
C35   H1    S    
C33   H9    S    
C7    C43   A    
C9    C10   A    
C31   H23   S    
C21   C27   A    
C18   N2    A    
C22   C28   A    
C27   C30   A    
C17   N1    A    
C44   C46   A    
C16   C26   A    
C37   C39   S    
C1    O1    A    
C19   N1    A    
C46   H17   S    
C4    C6    A    
C5    C7    A    
C15   Cl1   S    
C29   H7    S    
C30   H8    S    
Cu2   O3    S    
C43   H19   S    
C5    C9    A    
C2    O4    A    
Cu1   Cu2   S    
C39   H11   S    
C24   C37   S    
C20   N2    A    
C43   C45   A    
C1    C41   S    
C12   C14   A    
C44   H20   S    
C45   H18   S    
C2    O2    A    
C15   C17   A    
C21   C25   A    
C3    C41   A    
C8    C14   A    
C23   O7    A    
C19   C21   A    
Cu2   N1    S    
C36   C39   S    
C8    C44   A    
Cu1   N2    S    
C20   C22   A    
C3    C5    A    
C6    C10   A    
C6    C8    A    
C11   H21   S    
C23   C38   S    
C33   C38   S    
Cu2   O6    S    
C36   C38   S    
C35   C40   S    
Cu1   O1    S    
C29   C31   A    
C30   C32   A    
C11   C13   A    
C4    C42   A    
C2    C42   S    
C33   C35   S    
C34   C36   S    
C9    C12   A    
C10   C11   A    
C7    C13   A    
C13   H13   S    
C16   C18   A    
C22   C26   A    
C27   C28   A    
C34   H10   S    
C41   C45   A    
Cu1   O4    S    
C23   O5    A    
C17   H6    S    
