data_mof_unit_38595.cif
_audit_creation_date              2012-10-26T21:25:54-0400
_audit_creation_method            fapswitch 2.2
_symmetry_space_group_name_H-M    P1
_symmetry_Int_Tables_number       1
_space_group_crystal_system       triclinic
_cell_length_a                    10.89929
_cell_length_b                    10.889613
_cell_length_c                    12.699818
_cell_angle_alpha                 92.680977
_cell_angle_beta                  92.384684
_cell_angle_gamma                 89.346006
_cell_volume                      1504.30787313

loop_
_atom_site_label
_atom_site_type_symbol
_atom_type_description
_atom_site_fract_x
_atom_site_fract_y
_atom_site_fract_z
_atom_type_partial_charge
C1    C     C_R   0.261926 0.496940 0.501426 0.547638
C2    C     C_R   0.821078 0.612151 0.255230 0.033496
C3    C     C_R   0.124962 0.480455 0.703802 0.041849
C4    C     C_R   0.875849 0.504226 0.294495 0.042552
C5    C     C_R   0.126857 0.578888 0.779290 -0.098202
C6    C     C_R   0.887516 0.399556 0.226578 -0.095528
C7    C     C_R   0.166875 0.560943 0.883346 -0.115968
C8    C     C_R   0.847254 0.402209 0.121073 -0.124642
C9    C     C_R   0.205300 0.444514 0.913118 -0.120384
C10   C     C_R   0.795937 0.509646 0.081874 -0.119938
C11   C     C_R   0.938140 0.508694 0.593328 -0.171737
C12   C     C_R   0.738173 0.504012 0.498547 0.551581
C13   C     C_R   0.062571 0.495708 0.406686 -0.156109
C14   C     C_R   0.871878 0.507386 0.496405 0.015906
C15   C     C_R   0.128487 0.495417 0.503489 0.013485
C16   C     C_R   0.498728 0.261950 0.500894 0.549514
C17   C     C_R   0.503845 0.737916 0.498696 0.546967
C18   C     C_R   0.935398 0.502424 0.401519 -0.016986
C19   C     C_R   0.065202 0.498050 0.598303 -0.025297
C20   C     C_2   0.485970 0.454125 0.031656 -0.171901
C21   C     C_2   0.513423 0.545636 0.968330 -0.172542
C22   C     C_1   0.517548 0.529091 0.852681 0.141085
C23   C     C_R   0.510699 0.871598 0.495160 0.014785
C24   C     C_1   0.482178 0.470733 0.147314 0.130120
C25   C     C_R   0.823552 0.265388 0.719158 -0.106353
C26   C     C_R   0.155065 0.756280 0.301421 -0.107538
C27   C     C_R   0.757907 0.203646 0.636089 0.022459
C28   C     C_R   0.230521 0.821991 0.375479 0.016666
C29   C     C_R   0.649592 0.140512 0.657039 0.037337
C30   C     C_R   0.347535 0.860072 0.347470 0.035005
C31   C     C_R   0.605822 0.146578 0.759726 -0.092034
C32   C     C_R   0.388929 0.826697 0.246623 -0.081116
C33   C     C_R   0.669908 0.212642 0.840939 -0.119292
C34   C     C_R   0.498767 0.127902 0.501902 0.009281
C35   C     C_R   0.313596 0.759303 0.173871 -0.113243
C36   C     C_R   0.779041 0.271284 0.820670 -0.119341
C37   C     C_R   0.196616 0.724509 0.201133 -0.117446
C38   C     C_R   0.591752 0.938341 0.566861 -0.015878
C39   C     C_R   0.420582 0.060876 0.428873 -0.020910
C40   C     C_1   0.806513 0.199527 0.531921 0.190461
C41   C     C_1   0.187511 0.849313 0.479803 0.196230
C42   C     C_3   0.684054 0.869674 0.639521 -0.237243
C43   C     C_3   0.815601 0.919915 0.650890 -0.298320
C44   C     C_3   0.907398 0.821904 0.686096 -0.446478
C45   C     C_R   0.429565 0.932101 0.423827 -0.021639
C46   C     C_3   0.317213 0.125303 0.365968 -0.215247
C47   C     C_3   0.350231 0.146539 0.251679 -0.285472
C48   C     C_3   0.256833 0.231709 0.198506 -0.447059
C49   C     C_1   0.166527 0.258976 0.659168 0.176603
C50   C     C_1   0.807603 0.722345 0.321672 0.174456
C51   C     C_R   0.580212 0.067610 0.573061 -0.019485
C52   C     C_R   0.207856 0.346485 0.838236 -0.117958
C53   C     C_R   0.781346 0.613827 0.148886 -0.113383
C54   C     C_R   0.167735 0.363420 0.733538 0.030469
Cu1   Cu    Cu3+1 0.492140 0.492110 0.395880 0.991264
Cu2   Cu    Cu3+1 0.507860 0.507890 0.604120 0.994711
H1    H     H_    0.830086 0.320639 0.883594 0.103870
H2    H     H_    0.466113 0.363334 0.996563 0.112882
H3    H     H_    0.910398 0.307199 0.705983 0.116458
H4    H     H_    0.064298 0.729100 0.321559 0.122889
H5    H     H_    0.522129 0.099934 0.776654 0.109759
H6    H     H_    0.479500 0.853229 0.224560 0.109757
H7    H     H_    0.635840 0.217080 0.919872 0.103794
H8    H     H_    0.345754 0.734296 0.096233 0.102270
H9    H     H_    0.232954 0.430279 0.994441 0.111146
H10   H     H_    0.767556 0.512172 0.999380 0.117284
H11   H     H_    0.239030 0.256865 0.862445 0.101801
H12   H     H_    0.138150 0.672561 0.144720 0.105757
H13   H     H_    0.740461 0.696276 0.117421 0.098935
H14   H     H_    0.871976 0.771197 0.752254 0.137087
H15   H     H_    0.925614 0.756687 0.618794 0.182353
H16   H     H_    0.994799 0.866260 0.713753 0.178282
H17   H     H_    0.844249 0.954593 0.574929 0.215745
H18   H     H_    0.820900 0.993837 0.713634 0.173017
H19   H     H_    0.645708 0.866074 0.719035 0.141506
H20   H     H_    0.696948 0.774072 0.608588 0.187982
H21   H     H_    0.163381 0.191992 0.198257 0.150406
H22   H     H_    0.256243 0.323448 0.240501 0.177625
H23   H     H_    0.095348 0.669093 0.757920 0.115390
H24   H     H_    0.281597 0.243446 0.115665 0.126297
H25   H     H_    0.442996 0.186942 0.249081 0.196735
H26   H     H_    0.351262 0.058139 0.205085 0.154013
H27   H     H_    0.231286 0.071609 0.365177 0.156207
H28   H     H_    0.291117 0.213856 0.406249 0.173120
H29   H     H_    0.930637 0.316589 0.254980 0.132420
H30   H     H_    0.166365 0.637016 0.941296 0.103870
H31   H     H_    0.857849 0.321258 0.069531 0.104248
H32   H     H_    0.890611 0.514179 0.666722 0.131071
H33   H     H_    0.110248 0.492395 0.333314 0.129763
H34   H     H_    0.533540 0.636332 0.003472 0.108416
N1    N     N_1   0.480320 0.480250 0.239400 -0.191975
N2    N     N_1   0.519680 0.519750 0.760600 -0.186192
N3    N     N_1   0.845478 0.195890 0.448443 -0.299673
N4    N     N_1   0.154153 0.871532 0.563834 -0.307344
N5    N     N_1   0.165336 0.175259 0.599590 -0.302755
N6    N     N_1   0.796828 0.810659 0.374907 -0.322867
O1    O     O_R   0.313000 0.493330 0.412070 -0.518911
O2    O     O_R   0.687000 0.506670 0.587930 -0.519624
O3    O     O_R   0.326280 0.506660 0.587930 -0.483691
O4    O     O_R   0.673720 0.493340 0.412070 -0.481291
O5    O     O_R   0.493370 0.312980 0.412070 -0.507853
O6    O     O_R   0.506630 0.687020 0.587930 -0.515628
O7    O     O_R   0.506650 0.326310 0.587930 -0.487958
O8    O     O_R   0.493350 0.673690 0.412070 -0.485642

loop_
_geom_bond_atom_site_label_1
_geom_bond_atom_site_label_2
_ccdc_geom_bond_type
C43   H17   S    
Cu1   Cu2   S    
C23   C45   A    
C27   C29   A    
C31   H5    S    
C30   C45   S    
Cu2   O2    S    
C40   N3    T    
C43   C44   S    
C53   H13   S    
C1    O3    A    
C15   C19   A    
C11   C19   A    
C42   H19   S    
C17   C23   S    
C6    H29   S    
C13   C18   A    
C35   C37   A    
C17   O8    A    
C38   C42   S    
C3    C54   A    
C7    H30   S    
C49   C54   S    
C37   H12   S    
C28   C41   S    
C33   C36   A    
C44   H15   S    
C47   H26   S    
C48   H22   S    
C10   C53   A    
C14   C18   A    
Cu1   N1    S    
C2    C50   S    
C16   C34   S    
C41   N4    T    
Cu1   O4    S    
C31   C33   A    
C3    C19   S    
C35   H8    S    
C1    C15   S    
C5    H23   S    
C27   C40   S    
C12   O2    A    
C39   C45   A    
C4    C18   S    
C43   H18   S    
C21   C22   S    
C9    C52   A    
C52   C54   A    
C21   H34   S    
C10   H10   S    
C34   C39   A    
C32   C35   A    
C20   C24   S    
C4    C6    A    
C36   H1    S    
C1    O1    A    
C5    C7    A    
C6    C8    A    
C38   C51   A    
Cu1   O8    S    
C48   H21   S    
C2    C4    A    
C17   O6    A    
C16   O7    A    
C47   C48   S    
C11   H32   S    
C33   H7    S    
Cu1   O1    S    
C34   C51   A    
C49   N5    T    
C44   H14   S    
C52   H11   S    
C39   C46   S    
C46   H28   S    
C12   C14   S    
C13   C15   A    
C42   C43   S    
C20   H2    S    
C24   N1    T    
C29   C51   S    
C7    C9    A    
C46   C47   S    
C13   H33   S    
C26   C28   A    
Cu2   O7    S    
C3    C5    A    
C2    C53   A    
C26   C37   A    
C25   C27   A    
C23   C38   A    
Cu1   O5    S    
C42   H20   S    
C8    H31   S    
C48   H24   S    
C28   C30   A    
Cu2   O6    S    
C29   C31   A    
C30   C32   A    
C50   N6    T    
C11   C14   A    
C44   H16   S    
C47   H25   S    
C9    H9    S    
C12   O4    A    
C25   C36   A    
C32   H6    S    
C46   H27   S    
C16   O5    A    
Cu2   N2    S    
C20   C21   D    
C8    C10   A    
C22   N2    T    
C25   H3    S    
Cu2   O3    S    
C26   H4    S    
