data_mof_unit_11000.cif
_audit_creation_date              2012-10-26T21:00:43-0400
_audit_creation_method            fapswitch 2.2
_symmetry_space_group_name_H-M    P1
_symmetry_Int_Tables_number       1
_space_group_crystal_system       triclinic
_cell_length_a                    10.820414
_cell_length_b                    9.520979
_cell_length_c                    10.793413
_cell_angle_alpha                 87.29519
_cell_angle_beta                  90.697961
_cell_angle_gamma                 89.953873
_cell_volume                      1110.62522106

loop_
_atom_site_label
_atom_site_type_symbol
_atom_type_description
_atom_site_fract_x
_atom_site_fract_y
_atom_site_fract_z
_atom_type_partial_charge
C1    C     C_R   0.262074 0.500075 0.499122 0.584647
C2    C     C_R   0.506349 0.496237 0.737899 0.583274
C3    C     C_R   0.723457 0.608310 0.114001 0.012427
C4    C     C_R   0.740567 0.475868 0.888450 0.015455
C5    C     C_R   0.837441 0.595948 0.055978 -0.124751
C6    C     C_R   0.846475 0.526303 0.946643 -0.126370
C7    C     C_R   0.622078 0.501198 0.939115 0.002936
C8    C     C_R   0.616062 0.545296 0.061881 -0.000881
C9    C     C_R   0.505151 0.516351 0.127568 0.013216
C10   C     C_R   0.509366 0.485514 0.872748 0.022058
C11   C     C_R   0.395544 0.482153 0.064315 0.084285
C12   C     C_R   0.737874 0.500093 0.498101 0.515617
C13   C     C_R   0.396305 0.475682 0.935221 0.087591
C14   C     C_R   0.063787 0.374245 0.483922 -0.102279
C15   C     C_R   0.935985 0.374410 0.482690 -0.129827
C16   C     C_R   0.871703 0.500480 0.495789 -0.004604
C17   C     C_R   0.128174 0.500305 0.497429 0.051864
C18   C     C_2   0.719402 0.711062 0.211847 0.259377
C19   C     C_2   0.761528 0.372196 0.793831 0.235886
C20   C     C_R   0.936103 0.626607 0.508776 -0.150554
C21   C     C_R   0.063872 0.626578 0.509282 -0.117668
C22   C     C_R   0.409088 0.077707 0.439361 0.034827
C23   C     C_R   0.591717 0.070917 0.559090 0.039111
C24   C     C_R   0.409277 0.928933 0.439084 0.047695
C25   C     C_R   0.591307 0.922254 0.559861 0.035829
C26   C     C_R   0.505322 0.504227 0.262200 0.570140
Cu1   Cu    Cu3+1 0.500000 0.640660 0.500000 1.002184
Cu2   Cu    Cu3+1 0.500000 0.359340 0.500000 1.018903
H1    H     H_    0.920092 0.641514 0.095170 0.139561
H2    H     H_    0.664445 0.863750 0.608122 0.114988
H3    H     H_    0.792177 0.711957 0.281755 0.098402
H4    H     H_    0.840092 0.383353 0.732955 0.105143
H5    H     H_    0.937116 0.509443 0.908390 0.154897
H6    H     H_    0.111922 0.275681 0.474012 0.138080
H7    H     H_    0.887762 0.275922 0.472303 0.137662
H8    H     H_    0.888030 0.725076 0.519386 0.128771
H9    H     H_    0.112031 0.725052 0.519965 0.135727
H10   H     H_    0.336407 0.136267 0.390410 0.128530
H11   H     H_    0.666189 0.123692 0.605049 0.161938
H12   H     H_    0.336796 0.875699 0.389896 0.121334
I1    I     I_    0.227175 0.449175 0.164180 -0.351428
I2    I     I_    0.227632 0.445678 0.833839 -0.333155
N1    N     N_R   0.500000 0.852070 0.500000 -0.218090
N2    N     N_R   0.500000 0.147940 0.500000 -0.229971
O1    O     O_R   0.319640 0.618740 0.499990 -0.510873
O2    O     O_2   0.699226 0.265630 0.792156 -0.496863
O3    O     O_R   0.680360 0.618740 0.500010 -0.528515
O4    O     O_R   0.319620 0.381170 0.499990 -0.502495
O5    O     O_R   0.680380 0.381170 0.500010 -0.512072
O6    O     O_R   0.500000 0.618810 0.319650 -0.452555
O7    O     O_R   0.500000 0.618810 0.680350 -0.500719
O8    O     O_R   0.499970 0.381240 0.319640 -0.487963
O9    O     O_R   0.500030 0.381240 0.680360 -0.437658
O10   O     O_2   0.641648 0.804234 0.207923 -0.463061

loop_
_geom_bond_atom_site_label_1
_geom_bond_atom_site_label_2
_ccdc_geom_bond_type
C14   H6    S    
C7    C10   A    
Cu2   O9    S    
C6    H5    S    
C1    O4    A    
C26   O8    A    
C17   C21   A    
C11   C13   A    
Cu2   O5    S    
C1    C17   S    
Cu1   O6    S    
C16   C20   A    
C25   N1    A    
C26   O6    A    
C12   O5    A    
C19   O2    D    
C7    C8    A    
C10   C13   A    
Cu2   O8    S    
C14   C17   A    
C1    O1    A    
C4    C7    A    
C23   H11   S    
C19   H4    S    
C9    C11   A    
C15   H7    S    
C13   I2    S    
C24   H12   S    
Cu1   O7    S    
C9    C26   S    
C11   I1    S    
C5    H1    S    
C12   O3    A    
C5    C6    A    
C22   C24   A    
Cu1   O1    S    
C18   O10   D    
C15   C16   A    
C22   H10   S    
Cu1   N1    S    
Cu1   Cu2   S    
C23   C25   A    
C21   H9    S    
C20   C21   A    
C3    C18   S    
C4    C6    A    
C3    C8    A    
C2    O7    A    
Cu1   O3    S    
C25   H2    S    
C24   N1    A    
C14   C15   A    
Cu2   O4    S    
C20   H8    S    
C18   H3    S    
C4    C19   S    
Cu2   N2    S    
C22   N2    A    
C23   N2    A    
C12   C16   S    
C8    C9    A    
C3    C5    A    
C2    O9    A    
C2    C10   S    
