data_mof_unit_62828.cif
_audit_creation_date              2012-10-26T17:47:29-0400
_audit_creation_method            fapswitch 2.2
_symmetry_space_group_name_H-M    P1
_symmetry_Int_Tables_number       1
_space_group_crystal_system       triclinic
_cell_length_a                    23.685329
_cell_length_b                    31.035974
_cell_length_c                    19.44468
_cell_angle_alpha                 89.93727
_cell_angle_beta                  126.964789
_cell_angle_gamma                 89.982545
_cell_volume                      11420.7502188

loop_
_atom_site_label
_atom_site_type_symbol
_atom_type_description
_atom_site_fract_x
_atom_site_fract_y
_atom_site_fract_z
_atom_type_partial_charge
C1    C     C_R   0.806012 0.191201 0.117278 0.548886
C2    C     C_R   0.358131 0.749724 0.000032 0.547876
C3    C     C_R   0.269085 0.769553 0.320159 -0.104632
C4    C     C_R   0.339276 0.755777 0.376151 -0.117621
C5    C     C_R   0.362171 0.720203 0.354850 -0.090066
C6    C     C_R   0.773904 0.383130 0.887387 0.061867
C7    C     C_R   0.825165 0.354588 0.899385 -0.069024
C8    C     C_R   0.896908 0.363014 0.962150 -0.108434
C9    C     C_R   0.917942 0.399632 0.013919 -0.105879
C10   C     C_R   0.867155 0.428185 0.002252 -0.113388
C11   C     C_R   0.795306 0.420200 0.938664 -0.083791
C12   C     C_R   0.685027 0.698239 0.723208 0.062361
C13   C     C_R   0.358129 0.250185 0.999980 0.540979
C14   C     C_R   0.755759 0.711823 0.778735 -0.057373
C15   C     C_R   0.778564 0.747293 0.757036 -0.097819
C16   C     C_R   0.731198 0.769174 0.679593 -0.105243
C17   C     C_R   0.661032 0.755479 0.623492 -0.118141
C18   C     C_R   0.638020 0.720003 0.644918 -0.089864
C19   C     C_R   0.236571 0.348257 0.181804 0.041824
C20   C     C_R   0.225369 0.327055 0.236493 -0.095526
C21   C     C_R   0.156737 0.319611 0.209803 -0.110113
C22   C     C_R   0.098946 0.333616 0.128794 -0.108050
C23   C     C_R   0.109595 0.354372 0.073574 -0.119078
C24   C     C_R   0.641780 0.749696 0.999837 0.559586
C25   C     C_R   0.178248 0.361692 0.099886 -0.071988
C26   C     C_R   0.141899 0.750194 0.000024 0.541471
C27   C     C_R   0.858131 0.249725 0.000031 0.547901
C28   C     C_R   0.858129 0.750185 0.999979 0.540992
C29   C     C_R   0.141780 0.249696 0.999837 0.559592
C30   C     C_1   0.581104 0.250444 0.000169 -0.031497
C31   C     C_1   0.418914 0.749125 0.999861 -0.030450
C32   C     C_1   0.418941 0.250432 0.999869 -0.031860
C33   C     C_R   0.193399 0.808590 0.882370 0.552451
C34   C     C_1   0.580676 0.748978 0.999343 -0.007186
C35   C     C_1   0.081104 0.750444 0.000170 -0.031496
C36   C     C_1   0.918914 0.249127 0.999859 -0.030426
C37   C     C_1   0.918941 0.750432 0.999869 -0.031855
C38   C     C_1   0.080676 0.248979 0.999343 -0.007185
C39   C     C_1   0.530008 0.250531 0.000109 -0.049967
C40   C     C_1   0.469787 0.748689 0.999471 -0.057463
C41   C     C_1   0.470045 0.250526 0.999944 -0.050124
C42   C     C_1   0.529513 0.748600 0.999152 -0.041695
C43   C     C_1   0.030008 0.750531 0.000109 -0.049971
C44   C     C_R   0.193924 0.191188 0.882706 0.549146
C45   C     C_1   0.969787 0.248690 0.999470 -0.057463
C46   C     C_1   0.970045 0.750525 0.999945 -0.050130
C47   C     C_1   0.029513 0.248600 0.999152 -0.041702
C48   C     C_2   0.866312 0.123035 0.314972 -0.166570
C49   C     C_2   0.163548 0.905880 0.743109 -0.164577
C50   C     C_2   0.133723 0.122917 0.685276 -0.167268
C51   C     C_2   0.846789 0.891116 0.285541 -0.158329
C52   C     C_2   0.366312 0.623035 0.314972 -0.166569
C53   C     C_2   0.663548 0.405879 0.743109 -0.164570
C54   C     C_2   0.633723 0.622918 0.685277 -0.167264
C55   C     C_R   0.807614 0.808531 0.117216 0.560527
C56   C     C_2   0.346783 0.391120 0.285531 -0.158330
C57   C     C_2   0.914279 0.095809 0.323933 -0.133096
C58   C     C_2   0.093499 0.912190 0.691866 -0.132216
C59   C     C_2   0.085762 0.095679 0.676246 -0.133986
C60   C     C_2   0.907878 0.910019 0.312774 -0.128347
C61   C     C_2   0.414279 0.595809 0.323933 -0.133096
C62   C     C_2   0.593499 0.412190 0.691866 -0.132214
C63   C     C_2   0.585761 0.595680 0.676245 -0.133983
C64   C     C_2   0.407875 0.410021 0.312769 -0.128349
C65   C     C_2   0.839381 0.160218 0.255423 -0.043986
C66   C     C_R   0.306012 0.691201 0.117278 0.548889
C67   C     C_2   0.198131 0.875891 0.817044 -0.044513
C68   C     C_2   0.160544 0.160114 0.744663 -0.043640
C69   C     C_2   0.809416 0.859797 0.214137 -0.043244
C70   C     C_2   0.339381 0.660218 0.255422 -0.043987
C71   C     C_2   0.698129 0.375888 0.817041 -0.044523
C72   C     C_2   0.660545 0.660113 0.744667 -0.043643
C73   C     C_2   0.309410 0.359803 0.214123 -0.043246
C74   C     C_2   0.832556 0.156957 0.181412 -0.116721
C75   C     C_2   0.163147 0.840732 0.814054 -0.113839
C76   C     C_2   0.167245 0.156944 0.818633 -0.116732
C77   C     C_R   0.693398 0.308590 0.882370 0.552470
C78   C     C_2   0.841525 0.841130 0.183417 -0.094653
C79   C     C_2   0.332557 0.656957 0.181412 -0.116721
C80   C     C_2   0.663142 0.340732 0.814055 -0.113836
C81   C     C_2   0.667240 0.656945 0.818632 -0.116728
C82   C     C_2   0.341526 0.341130 0.183419 -0.094659
C83   C     C_R   0.441158 0.441490 0.381800 0.566155
C84   C     C_R   0.557490 0.559855 0.615687 0.559612
C85   C     C_R   0.559550 0.442243 0.619841 0.565184
C86   C     C_R   0.442526 0.559891 0.384369 0.561827
C87   C     C_R   0.941158 0.941490 0.381802 0.566155
C88   C     C_R   0.693923 0.691188 0.882706 0.549154
C89   C     C_R   0.057491 0.059854 0.615687 0.559611
C90   C     C_R   0.059550 0.942243 0.619841 0.565182
C91   C     C_R   0.942526 0.059891 0.384369 0.561827
C92   C     C_R   0.815017 0.198423 0.276790 0.062328
C93   C     C_R   0.744267 0.212090 0.221375 -0.057392
C94   C     C_R   0.721578 0.247656 0.242951 -0.097868
C95   C     C_R   0.769085 0.269552 0.320161 -0.104636
C96   C     C_R   0.839274 0.255774 0.376157 -0.117622
C97   C     C_R   0.862169 0.220200 0.354855 -0.090070
C98   C     C_R   0.273903 0.883140 0.887397 0.061858
C99   C     C_R   0.307615 0.308531 0.117216 0.560531
C100  C     C_R   0.325173 0.854585 0.899456 -0.068957
C101  C     C_R   0.396913 0.863019 0.962224 -0.108412
C102  C     C_R   0.417936 0.899656 0.013935 -0.105892
C103  C     C_R   0.367142 0.928224 0.002205 -0.113398
C104  C     C_R   0.295297 0.920232 0.938614 -0.083836
C105  C     C_R   0.185011 0.198243 0.723192 0.062354
C106  C     C_R   0.255734 0.211843 0.778721 -0.057342
C107  C     C_R   0.278523 0.247317 0.757012 -0.097816
C108  C     C_R   0.231152 0.269185 0.679554 -0.105257
C109  C     C_R   0.160998 0.255472 0.623448 -0.118144
C110  C     C_R   0.641899 0.250194 0.000024 0.541466
C111  C     C_R   0.138000 0.219993 0.644886 -0.089879
C112  C     C_R   0.736583 0.848244 0.181832 0.041824
C113  C     C_R   0.725395 0.827045 0.236536 -0.095522
C114  C     C_R   0.656767 0.819597 0.209861 -0.110110
C115  C     C_R   0.598968 0.833597 0.128852 -0.108039
C116  C     C_R   0.609603 0.854351 0.073619 -0.119082
C117  C     C_R   0.678251 0.861674 0.099915 -0.072002
C118  C     C_R   0.315017 0.698423 0.276789 0.062330
C119  C     C_R   0.244266 0.712088 0.221376 -0.057399
C120  C     C_R   0.221577 0.747654 0.242952 -0.097868
Cu1   Cu    Cu3+1 0.780520 0.280530 0.061040 0.957688
Cu2   Cu    Cu3+1 0.055770 0.000000 0.499980 0.935805
Cu3   Cu    Cu3+1 0.444230 0.500000 0.500020 0.934055
Cu4   Cu    Cu3+1 0.555770 0.500000 0.499980 0.935804
Cu5   Cu    Cu3+1 0.219480 0.719470 0.938960 0.942917
Cu6   Cu    Cu3+1 0.219480 0.280530 0.938960 0.943260
Cu7   Cu    Cu3+1 0.780520 0.719470 0.061040 0.946726
Cu8   Cu    Cu3+1 0.280520 0.780530 0.061040 0.957695
Cu9   Cu    Cu3+1 0.719480 0.219470 0.938960 0.942920
Cu10  Cu    Cu3+1 0.719480 0.780530 0.938960 0.943267
Cu11  Cu    Cu3+1 0.280520 0.219470 0.061040 0.946724
Cu12  Cu    Cu3+1 0.944230 0.000000 0.500020 0.934055
H1    H     H_    0.848604 0.119193 0.354837 0.150356
H2    H     H_    0.060258 0.897146 0.706184 0.104958
H3    H     H_    0.062482 0.101562 0.709371 0.106608
H4    H     H_    0.934138 0.903732 0.283633 0.102513
H5    H     H_    0.437543 0.601752 0.290795 0.106180
H6    H     H_    0.560257 0.397147 0.706184 0.104956
H7    H     H_    0.562479 0.601563 0.709368 0.106606
H8    H     H_    0.434135 0.403734 0.283628 0.102514
H9    H     H_    0.842230 0.126242 0.163469 0.097614
H10   H     H_    0.111411 0.833011 0.755478 0.093567
H11   H     H_    0.157446 0.126281 0.836660 0.095935
H12   H     H_    0.196864 0.924197 0.732584 0.151908
H13   H     H_    0.896506 0.846672 0.211579 0.076750
H14   H     H_    0.342231 0.626242 0.163469 0.097614
H15   H     H_    0.611402 0.333013 0.755483 0.093560
H16   H     H_    0.657435 0.626283 0.836656 0.095931
H17   H     H_    0.396513 0.346663 0.211598 0.076754
H18   H     H_    0.706749 0.195084 0.161843 0.099995
H19   H     H_    0.667117 0.258158 0.199962 0.115557
H20   H     H_    0.751436 0.297070 0.336782 0.111180
H21   H     H_    0.875930 0.272622 0.436146 0.108063
H22   H     H_    0.916672 0.209794 0.398851 0.105467
H23   H     H_    0.151467 0.119113 0.645451 0.150152
H24   H     H_    0.309600 0.826283 0.859267 0.101950
H25   H     H_    0.436130 0.841357 0.970049 0.103288
H26   H     H_    0.473547 0.906080 0.062582 0.110322
H27   H     H_    0.383458 0.956753 0.041865 0.109227
H28   H     H_    0.256393 0.942870 0.929237 0.110500
H29   H     H_    0.293161 0.194853 0.838442 0.099971
H30   H     H_    0.332960 0.257767 0.800086 0.115522
H31   H     H_    0.248880 0.296628 0.662827 0.109993
H32   H     H_    0.124448 0.272295 0.563267 0.106972
H33   H     H_    0.083526 0.209635 0.600796 0.105700
H34   H     H_    0.821601 0.899748 0.315420 0.153424
H35   H     H_    0.769858 0.816830 0.300210 0.109734
H36   H     H_    0.648394 0.803415 0.252377 0.112371
H37   H     H_    0.546017 0.828182 0.109013 0.115094
H38   H     H_    0.564679 0.865045 0.010748 0.107935
H39   H     H_    0.685964 0.878647 0.057466 0.123660
H40   H     H_    0.206746 0.695080 0.161847 0.099993
H41   H     H_    0.167114 0.758154 0.199966 0.115556
H42   H     H_    0.251437 0.797070 0.336779 0.111181
H43   H     H_    0.375934 0.772627 0.436137 0.108061
H44   H     H_    0.416675 0.709799 0.398844 0.105468
H45   H     H_    0.348603 0.619193 0.354837 0.150357
H46   H     H_    0.809583 0.326302 0.859154 0.101959
H47   H     H_    0.936118 0.341362 0.969930 0.103292
H48   H     H_    0.973554 0.406050 0.062564 0.110316
H49   H     H_    0.883479 0.456697 0.041959 0.109214
H50   H     H_    0.756408 0.442827 0.929337 0.110492
H51   H     H_    0.793181 0.694823 0.838444 0.099967
H52   H     H_    0.833009 0.757729 0.800107 0.115518
H53   H     H_    0.748938 0.796614 0.662875 0.109993
H54   H     H_    0.624486 0.772312 0.563323 0.106967
H55   H     H_    0.583538 0.709657 0.600831 0.105697
H56   H     H_    0.696864 0.424195 0.732584 0.151909
H57   H     H_    0.269826 0.316836 0.300168 0.109735
H58   H     H_    0.148352 0.303427 0.252308 0.112376
H59   H     H_    0.045992 0.328203 0.108942 0.115099
H60   H     H_    0.064678 0.365070 0.010703 0.107929
H61   H     H_    0.185972 0.378667 0.057448 0.123656
H62   H     H_    0.651469 0.619113 0.645454 0.150152
H63   H     H_    0.321593 0.399753 0.315407 0.153424
H64   H     H_    0.937543 0.101752 0.290794 0.106180
O1    O     O_R   0.820280 0.231270 0.140580 -0.491577
O2    O     O_R   0.231230 0.820250 0.962470 -0.490623
O3    O     O_R   0.231230 0.179750 0.962470 -0.511590
O4    O     O_R   0.768770 0.820250 0.037530 -0.510946
O5    O     O_R   0.268770 0.679750 0.037530 -0.509630
O6    O     O_R   0.731230 0.320250 0.962470 -0.490630
O7    O     O_R   0.731230 0.679750 0.962470 -0.511591
O8    O     O_R   0.268770 0.320250 0.037530 -0.510941
O9    O     O_R   0.694370 0.275780 0.051550 -0.504042
O10   O     O_R   0.305630 0.724220 0.948450 -0.501936
O11   O     O_R   0.305630 0.275780 0.948450 -0.503650
O12   O     O_R   0.179720 0.768730 0.859420 -0.510337
O13   O     O_R   0.694370 0.724220 0.051550 -0.499913
O14   O     O_R   0.194370 0.775780 0.051550 -0.504036
O15   O     O_R   0.805630 0.224220 0.948450 -0.501939
O16   O     O_R   0.805630 0.775780 0.948450 -0.503635
O17   O     O_R   0.194370 0.224220 0.051550 -0.499914
O18   O     O_R   0.642860 0.224260 0.948500 -0.502514
O19   O     O_R   0.357140 0.775740 0.051500 -0.501627
O20   O     O_R   0.357140 0.224260 0.051500 -0.503849
O21   O     O_R   0.642860 0.775740 0.948500 -0.507632
O22   O     O_R   0.142860 0.724260 0.948500 -0.502514
O23   O     O_R   0.179720 0.231270 0.859420 -0.490463
O24   O     O_R   0.857140 0.275740 0.051500 -0.501616
O25   O     O_R   0.857140 0.724260 0.051500 -0.503853
O26   O     O_R   0.142860 0.275740 0.948500 -0.507626
O27   O     O_R   0.502640 0.455510 0.411000 -0.505111
O28   O     O_R   0.497360 0.544490 0.589000 -0.508586
O29   O     O_R   0.497360 0.455510 0.589000 -0.507175
O30   O     O_R   0.502640 0.544490 0.411000 -0.508559
O31   O     O_R   0.002640 0.955510 0.411000 -0.505110
O32   O     O_R   0.997360 0.044490 0.589000 -0.508585
O33   O     O_R   0.997360 0.955510 0.589000 -0.507175
O34   O     O_R   0.820280 0.768730 0.140580 -0.500354
O35   O     O_R   0.002640 0.044490 0.411000 -0.508558
O36   O     O_R   0.408410 0.455510 0.411000 -0.507256
O37   O     O_R   0.591590 0.544490 0.589000 -0.506521
O38   O     O_R   0.591590 0.455510 0.589000 -0.503737
O39   O     O_R   0.408410 0.544490 0.411000 -0.504163
O40   O     O_R   0.908410 0.955510 0.411000 -0.507257
O41   O     O_R   0.091590 0.044490 0.589000 -0.506522
O42   O     O_R   0.091590 0.955510 0.589000 -0.503737
O43   O     O_R   0.908410 0.044490 0.411000 -0.504162
O44   O     O_R   0.320280 0.731270 0.140580 -0.491574
O45   O     O_R   0.679720 0.268730 0.859420 -0.510336
O46   O     O_R   0.679720 0.731270 0.859420 -0.490461
O47   O     O_R   0.320280 0.268730 0.140580 -0.500357
O48   O     O_R   0.768770 0.179750 0.037530 -0.509631

loop_
_geom_bond_atom_site_label_1
_geom_bond_atom_site_label_2
_ccdc_geom_bond_type
C28   O25   A    
C65   C92   S    
C33   O12   A    
C93   C94   A    
C54   H62   S    
C99   O8    A    
Cu11  O17   S    
C102  C103  A    
C48   C57   D    
C82   C99   S    
Cu5   O10   S    
C13   C32   S    
Cu10  O16   S    
C95   C96   A    
C34   C42   T    
Cu1   O9    S    
C115  H37   S    
C103  H27   S    
C77   O6    A    
C102  H26   S    
C14   H51   S    
C69   C78   D    
Cu3   Cu4   S    
C39   C41   S    
C116  C117  A    
Cu2   O35   S    
C44   O23   A    
Cu5   O5    S    
C101  C102  A    
C30   C110  S    
C77   O45   A    
C1    C74   S    
Cu6   Cu11  S    
C13   O20   A    
C92   C93   A    
C110  O18   A    
C53   H56   S    
Cu1   O6    S    
C16   H53   S    
Cu12  O32   S    
C88   O46   A    
C112  C117  A    
C69   C112  S    
Cu2   O41   S    
C26   O22   A    
C54   C63   D    
C115  C116  A    
C49   H12   S    
C18   H55   S    
C108  C109  A    
C59   C89   S    
C106  H29   S    
Cu9   O18   S    
C44   C76   S    
C52   H45   S    
C23   H60   S    
Cu3   O28   S    
C67   C98   S    
Cu8   O14   S    
C31   C40   T    
C118  C119  A    
C66   O5    A    
C33   C75   S    
C80   H15   S    
Cu3   O36   S    
C55   O4    A    
C28   C37   S    
C16   C17   A    
C4    H43   S    
C29   C38   S    
Cu5   Cu8   S    
C65   C74   D    
C32   C41   T    
C56   C64   D    
C90   O33   A    
C111  H33   S    
C48   C65   S    
Cu9   O15   S    
C35   C43   T    
C9    C10   A    
C17   H54   S    
C72   C81   D    
C78   H13   S    
C119  H40   S    
Cu4   O38   S    
Cu5   O22   S    
C100  H24   S    
C40   C42   S    
C12   C72   S    
C101  H25   S    
C27   O24   A    
C106  C107  A    
C21   C22   A    
C96   C97   A    
C99   O47   A    
C55   O34   A    
Cu7   O7    S    
C93   H18   S    
C29   O26   A    
C11   H50   S    
C104  H28   S    
Cu10  O4    S    
C28   O16   A    
Cu2   Cu12  S    
C71   C80   D    
C108  H31   S    
C60   C87   S    
Cu7   O13   S    
C92   C97   A    
C114  C115  A    
C79   H14   S    
C45   C47   S    
C6    C71   S    
C62   C85   S    
C90   O42   A    
C57   H64   S    
C85   O38   A    
C81   C88   S    
C89   O41   A    
C48   H1    S    
C7    C8    A    
C84   O28   A    
C63   C84   S    
C6    C11   A    
C55   C78   S    
C8    C9    A    
C54   C72   S    
Cu6   O8    S    
C94   H19   S    
Cu7   O34   S    
C24   C34   S    
C87   O40   A    
C7    H46   S    
C91   O35   A    
C2    C31   S    
Cu10  O21   S    
Cu11  O3    S    
C64   C83   S    
C66   C79   S    
C1    O48   A    
C56   H63   S    
C58   C90   S    
C53   C62   D    
C117  H39   S    
C3    H42   S    
C29   O17   A    
C96   H21   S    
C58   H2    S    
Cu4   O27   S    
C19   C73   S    
C50   H23   S    
C119  C120  A    
C81   H16   S    
C15   H52   S    
Cu6   O11   S    
C27   O15   A    
C17   C18   A    
C116  H38   S    
C36   C45   T    
C26   O14   A    
C97   H22   S    
C62   H6    S    
Cu12  O40   S    
Cu1   O1    S    
C38   C47   T    
C13   O11   A    
C2    O10   A    
Cu4   O37   S    
C74   H9    S    
C12   C14   A    
C87   O31   A    
C10   C11   A    
C86   O30   A    
Cu1   O24   S    
Cu3   O39   S    
C51   C60   D    
C67   C75   D    
C68   C105  S    
C50   C59   D    
C89   O32   A    
C12   C18   A    
C3    C4    A    
C53   C71   S    
C73   C82   D    
C20   H57   S    
C25   H61   S    
Cu6   O23   S    
C113  C114  A    
C64   H8    S    
C77   C80   S    
C60   H4    S    
C56   C73   S    
C49   C67   S    
C66   O44   A    
C70   C79   D    
C22   C23   A    
C63   H7    S    
Cu12  O43   S    
C1    O1    A    
Cu1   Cu9   S    
C4    C5    A    
C109  H32   S    
C113  H35   S    
Cu4   O30   S    
C24   O13   A    
Cu12  O33   S    
C114  H36   S    
C6    C7    A    
Cu3   O29   S    
Cu9   O48   S    
C61   C86   S    
C27   C36   S    
C68   C76   D    
C105  C106  A    
Cu11  O20   S    
Cu5   O12   S    
C98   C100  A    
C86   O39   A    
C49   C58   D    
C5    C118  A    
C52   C61   D    
C9    H48   S    
C19   C20   A    
C109  C111  A    
C84   O37   A    
C37   C46   T    
Cu7   Cu10  S    
C83   O27   A    
Cu8   O44   S    
Cu11  O47   S    
C24   O21   A    
C75   H10   S    
Cu10  O46   S    
C8    H47   S    
C61   H5    S    
C21   H58   S    
Cu2   O42   S    
Cu9   O45   S    
C33   O2    A    
C70   C118  S    
C98   C104  A    
Cu2   O31   S    
C59   H3    S    
C100  C101  A    
C5    H44   S    
C30   C39   T    
C110  O9    A    
C112  C113  A    
C23   C25   A    
C88   O7    A    
C105  C111  A    
C94   C95   A    
C19   C25   A    
C43   C46   S    
Cu8   O2    S    
C82   H17   S    
C52   C70   S    
C3    C120  A    
Cu7   O25   S    
Cu8   O19   S    
C76   H11   S    
C26   C35   S    
C2    O19   A    
C85   O29   A    
C20   C21   A    
C44   O3    A    
C83   O36   A    
C107  H30   S    
C91   O43   A    
C103  C104  A    
C10   H49   S    
C57   C91   S    
C14   C15   A    
C51   H34   S    
C95   H20   S    
C51   C69   S    
Cu6   O26   S    
C22   H59   S    
C120  H41   S    
C50   C68   S    
C15   C16   A    
C107  C108  A    
