data_mof_unit_34317.cif
_audit_creation_date              2012-12-10T16:52:14-0500
_audit_creation_method            fapswitch 2.2
_symmetry_space_group_name_H-M    P1
_symmetry_Int_Tables_number       1
_space_group_crystal_system       triclinic
_cell_length_a                    11.172783
_cell_length_b                    10.994099
_cell_length_c                    9.662291
_cell_angle_alpha                 90.250531
_cell_angle_beta                  101.33241
_cell_angle_gamma                 90.950625
_cell_volume                      1163.5295008

loop_
_atom_site_label
_atom_site_type_symbol
_atom_type_description
_atom_site_fract_x
_atom_site_fract_y
_atom_site_fract_z
_atom_type_partial_charge
C1    C     C_R   0.499829 0.265178 0.499032 0.851746
C2    C     C_2   0.495332 0.866698 0.496572 -0.405767
C3    C     C_2   0.495236 0.064744 0.380505 -0.020075
C4    C     C_2   0.511212 0.133646 0.499263 -0.405356
C5    C     C_2   0.416626 0.444430 0.902733 -0.074013
C6    C     C_2   0.416182 0.445092 0.058534 -0.058086
C7    C     C_R   0.264762 0.491974 0.444464 0.813124
C8    C     C_R   0.501889 0.734787 0.500091 0.864799
C9    C     C_R   0.736763 0.498622 0.554662 0.848045
C10   C     C_2   0.136409 0.459735 0.416997 -0.156273
C11   C     C_2   0.065833 0.505600 0.502265 -0.279658
C12   C     C_2   0.870464 0.496599 0.577520 -0.425033
C13   C     C_2   0.932073 0.494649 0.469512 0.033106
C14   C     C_2   0.521747 0.933728 0.388987 -0.024541
Cu1   Cu    Cu3+1 0.500020 0.500020 0.638640 0.916314
Cu2   Cu    Cu3+1 0.499980 0.499980 0.361360 0.951770
H1    H     H_    0.565455 0.550167 0.909071 0.199111
H2    H     H_    0.342766 0.395637 0.093095 0.167405
H3    H     H_    0.569075 0.545279 0.122097 0.219093
H4    H     H_    0.106379 0.563796 0.591117 0.164584
H5    H     H_    0.920897 0.498988 0.685906 0.140347
H6    H     H_    0.459320 0.908955 0.581153 0.145952
H7    H     H_    0.542233 0.093020 0.601962 0.145447
H8    H     H_    0.343840 0.394110 0.834263 0.153852
N1    N     N_2   0.498650 0.498660 0.846590 -0.295540
N2    N     N_2   0.498620 0.498630 0.152710 -0.286904
O1    O     O_R   0.500020 0.321960 0.617050 -0.584338
O2    O     O_R   0.499980 0.321920 0.382890 -0.566133
O3    O     O_R   0.320700 0.500020 0.574050 -0.583866
O4    O     O_R   0.320660 0.499980 0.339890 -0.590529
O5    O     O_R   0.500020 0.678080 0.617110 -0.585451
O6    O     O_R   0.499980 0.678040 0.382950 -0.564281
O7    O     O_R   0.679340 0.500020 0.660110 -0.599080
O8    O     O_R   0.679300 0.499980 0.425950 -0.572180
C15   C     C_R   0.873403 0.495078 0.316452 0.211702
C16   C     C_R   0.897560 0.592437 0.231629 -0.144724
C17   C     C_R   0.863278 0.584242 0.084871 -0.175147
C18   C     C_R   0.803712 0.479610 0.021954 -0.165397
C19   C     C_R   0.776082 0.383856 0.105230 -0.137972
C20   C     C_R   0.810931 0.390983 0.251943 -0.053638
H9    H     H_    0.947732 0.672239 0.279012 0.117712
H10   H     H_    0.885769 0.657678 0.019762 0.125389
H11   H     H_    0.780761 0.471745 0.908645 0.169765
H12   H     H_    0.732122 0.302303 0.055704 0.125113
H13   H     H_    0.794137 0.313781 0.315154 0.111552
C21   C     C_R   0.095332 0.360131 0.312939 0.139214
C22   C     C_R   0.096153 0.376522 0.168996 -0.101598
C23   C     C_R   0.053230 0.283720 0.071623 -0.137793
C24   C     C_R   0.010853 0.173513 0.117376 -0.128483
C25   C     C_R   0.013286 0.155127 0.260869 -0.172564
C26   C     C_R   0.055937 0.247773 0.358602 -0.162279
H14   H     H_    0.126319 0.462265 0.131696 0.125228
H15   H     H_    0.051923 0.297601 0.960511 0.115463
H16   H     H_    0.976915 0.102057 0.041738 0.112840
H17   H     H_    0.981319 0.069438 0.296241 0.121088
H18   H     H_    0.056334 0.232908 0.469424 0.126932
C27   C     C_R   0.572571 0.881306 0.270806 0.180392
C28   C     C_R   0.493631 0.837317 0.148523 -0.068801
C29   C     C_R   0.539937 0.804460 0.029740 -0.171281
C30   C     C_R   0.664885 0.816355 0.031603 -0.121498
C31   C     C_R   0.743907 0.860093 0.152764 -0.145512
C32   C     C_R   0.698100 0.892200 0.272289 -0.173968
H19   H     H_    0.396173 0.831119 0.144579 0.120387
H20   H     H_    0.478733 0.771418 0.935598 0.142558
H21   H     H_    0.700303 0.792260 0.938827 0.125911
H22   H     H_    0.840530 0.870443 0.153487 0.113425
H23   H     H_    0.759619 0.929080 0.364185 0.114700
C33   C     C_R   0.451430 0.112410 0.235863 0.177174
C34   C     C_R   0.536272 0.147018 0.152843 -0.092817
C35   C     C_R   0.498558 0.161511 0.007119 -0.129145
C36   C     C_R   0.376111 0.143049 0.943700 -0.146037
C37   C     C_R   0.290994 0.110888 0.025876 -0.167789
C38   C     C_R   0.328236 0.095686 0.171561 -0.156489
H24   H     H_    0.632297 0.155638 0.199930 0.109690
H25   H     H_    0.564294 0.184452 0.942442 0.130720
H26   H     H_    0.347377 0.152839 0.830671 0.129305
H27   H     H_    0.196854 0.094002 0.975653 0.131801
H28   H     H_    0.262606 0.064487 0.233003 0.137282

loop_
_geom_bond_atom_site_label_1
_geom_bond_atom_site_label_2
_ccdc_geom_bond_type
Cu2   O2    S    
C7    C10   S    
C7    O3    A    
C15   C16   A    
C27   C32   A    
C29   H20   S    
C37   H27   S    
C32   H23   S    
C16   C17   A    
C13   C15   S    
C5    C6    S    
Cu1   N1    S    
Cu2   O4    S    
Cu1   Cu2   S    
C26   H18   S    
C17   H10   S    
H3    N2    S    
Cu2   O8    S    
C31   H22   S    
C3    C33   S    
C33   C34   A    
C10   C21   S    
C1    O2    A    
C38   H28   S    
C35   C36   A    
C20   H13   S    
C29   C30   A    
C7    O4    A    
C9    O7    A    
C16   H9    S    
C31   C32   A    
Cu1   O3    S    
Cu2   N2    S    
C23   H15   S    
C6    H2    S    
C11   H4    S    
C8    O6    A    
C18   C19   A    
C19   C20   A    
C4    H7    S    
C28   C29   A    
C21   C26   A    
C30   C31   A    
C2    H6    S    
C17   C18   A    
Cu1   O1    S    
C22   C23   A    
C25   C26   A    
C34   H24   S    
C22   H14   S    
C3    C14   S    
C5    N1    D    
C23   C24   A    
C30   H21   S    
C9    O8    A    
C3    C4    D    
C36   H26   S    
C28   H19   S    
C14   C27   S    
C21   C22   A    
C8    O5    A    
C2    C8    S    
C37   C38   A    
Cu1   O5    S    
C19   H12   S    
Cu2   O6    S    
C25   H17   S    
C1    C4    S    
H1    N1    S    
C15   C20   A    
C33   C38   A    
C18   H11   S    
C11   C13   S    
C27   C28   A    
C6    N2    D    
C5    H8    S    
C12   H5    S    
C34   C35   A    
C2    C14   D    
C9    C12   S    
C10   C11   D    
C36   C37   A    
C12   C13   D    
C24   C25   A    
C35   H25   S    
C1    O1    A    
Cu1   O7    S    
C24   H16   S    
