data_mof_unit_16254.cif
_audit_creation_date              2013-03-05T16:00:38-0500
_audit_creation_method            fapswitch 2.2
_symmetry_space_group_name_H-M    P1
_symmetry_Int_Tables_number       1
_space_group_crystal_system       triclinic
_cell_length_a                    10.731692
_cell_length_b                    14.667677
_cell_length_c                    14.788198
_cell_angle_alpha                 64.432635
_cell_angle_beta                  103.380819
_cell_angle_gamma                 103.415329
_cell_volume                      2019.56251053

loop_
_atom_site_label
_atom_site_type_symbol
_atom_site_description
_atom_site_fract_x
_atom_site_fract_y
_atom_site_fract_z
_atom_type_partial_charge
O1    O     O_R   0.455060 0.022100 0.338110 -0.594930
O2    O     O_R   0.512640 0.160150 0.379180 -0.582078
C1    C     C_R   0.474258 0.120502 0.312339 0.793124
O3    O     O_R   0.288900 0.930980 0.479450 -0.605508
O4    O     O_R   0.346480 0.069030 0.520520 -0.555897
C2    C     C_R   0.259936 0.000962 0.498967 0.797007
Cu1   Cu    Cu3+1 0.465900 0.918260 0.475680 0.963068
Cu2   Cu    Cu3+1 0.534100 0.081740 0.524320 0.951800
O5    O     O_R   0.487360 0.839850 0.620820 -0.526629
O6    O     O_R   0.544940 0.977900 0.661890 -0.592477
O7    O     O_R   0.653520 0.930970 0.479480 -0.608536
O8    O     O_R   0.711100 0.069020 0.520550 -0.581453
C3    C     C_R   0.517395 0.879095 0.688077 0.804006
C4    C     C_R   0.740017 0.000329 0.499534 0.797613
C5    C     C_3   0.039924 0.008585 0.393830 0.281470
H1    H     H_    0.043304 0.938503 0.382822 0.075556
C6    C     C_3   0.896850 0.011135 0.394489 -0.426182
H2    H     H_    0.865770 0.083692 0.334812 0.217055
H3    H     H_    0.834243 0.947654 0.375874 0.139300
H4    H     H_    0.079595 0.834755 0.570525 0.175455
H5    H     H_    0.867091 0.833672 0.564424 0.105587
C7    C     C_3   0.068498 0.902295 0.582344 -0.522775
C8    C     C_3   0.107182 0.094560 0.519586 0.300465
C9    C     C_3   0.122017 0.002689 0.497719 -0.000186
H6    H     H_    0.162119 0.086109 0.596162 0.089053
C10   C     C_3   0.878225 0.000719 0.499710 -0.028405
C11   C     C_3   0.923570 0.899604 0.582441 0.238656
C12   C     C_3   0.963905 0.093030 0.520294 -0.369944
H7    H     H_    0.931539 0.165687 0.461803 0.195648
H8    H     H_    0.952764 0.088623 0.595157 0.174356
H9    H     H_    0.126014 0.895937 0.657363 0.211833
C13   C     C_R   0.438215 0.189867 0.206603 -0.054557
C14   C     C_R   0.508544 0.810470 0.795719 -0.171514
C15   C     C_R   0.320072 0.219862 0.038109 -0.147074
C16   C     C_R   0.368614 0.152470 0.133909 -0.191103
C17   C     C_R   0.460979 0.295332 0.181763 -0.192852
C18   C     C_R   0.409046 0.364180 0.087209 0.111477
C19   C     C_R   0.339331 0.325210 0.014326 0.067253
C20   C     C_R   0.427897 0.471018 0.061919 -0.056477
C21   C     C_R   0.396007 0.537427 0.959912 -0.046784
C22   C     C_R   0.307053 0.496518 0.894064 0.479398
C23   C     C_R   0.284784 0.391452 0.920148 -0.188301
C24   C     C_R   0.473931 0.513818 0.134763 -0.188392
C25   C     C_R   0.500884 0.619430 0.106648 0.406163
C26   C     C_R   0.491086 0.685373 0.002252 0.022004
C27   C     C_R   0.449984 0.642416 0.928731 -0.064852
C28   C     C_R   0.521526 0.792256 0.968873 -0.194045
C29   C     C_R   0.526735 0.853727 0.866791 -0.224378
C30   C     C_R   0.474567 0.702967 0.827889 0.308134
H10   H     H_    0.221267 0.361414 0.867509 0.168970
H11   H     H_    0.549398 0.935761 0.844155 0.176336
H12   H     H_    0.265350 0.189451 0.983163 0.135267
H13   H     H_    0.348693 0.071160 0.151901 0.147895
H14   H     H_    0.520537 0.322555 0.237239 0.144717
H15   H     H_    0.485881 0.466699 0.215028 0.159326
H16   H     H_    0.540685 0.830137 0.020259 0.148587
N1    N     N_R   0.585360 0.204570 0.560800 -0.179449
N2    N     N_R   0.414550 0.795430 0.439160 -0.180506
C31   C     C_R   0.724907 0.287962 0.661669 -0.246006
C32   C     C_R   0.686416 0.204466 0.635198 0.033628
C33   C     C_R   0.518950 0.285291 0.509923 0.031401
C34   C     C_R   0.553012 0.373224 0.533066 -0.100061
C35   C     C_R   0.658791 0.372995 0.611278 0.116469
C36   C     C_R   0.485701 0.459927 0.482256 0.072099
C37   C     C_R   0.524630 0.544829 0.511454 0.038737
C38   C     C_R   0.630642 0.541012 0.589376 -0.277160
C39   C     C_R   0.697507 0.456835 0.638820 0.419146
C40   C     C_R   0.380398 0.464464 0.403417 -0.192512
C41   C     C_R   0.313372 0.547442 0.356490 -0.131741
C42   C     C_R   0.348505 0.629684 0.385387 0.166474
C43   C     C_R   0.455261 0.630600 0.462177 0.011409
C44   C     C_R   0.277356 0.711456 0.337727 -0.301164
C45   C     C_R   0.311824 0.793786 0.366245 0.077540
C46   C     C_R   0.486763 0.717991 0.486037 0.100368
H17   H     H_    0.567636 0.726999 0.541507 0.136889
H18   H     H_    0.257254 0.857117 0.329576 0.116924
H19   H     H_    0.232669 0.547021 0.296894 0.144364
H20   H     H_    0.806047 0.285405 0.721529 0.195305
H21   H     H_    0.737471 0.139167 0.674004 0.136362
H22   H     H_    0.440062 0.278293 0.452296 0.148954
H23   H     H_    0.664129 0.602614 0.614220 0.152037
H24   H     H_    0.346449 0.404823 0.375739 0.140375
H25   H     H_    0.195453 0.711607 0.278903 0.143321
O9    O     O_3   0.905711 0.885934 0.679087 -0.717222
H26   H     H_    0.814912 0.852712 0.687508 0.322616
N3    N     N_R   0.490990 0.653074 0.767181 0.120033
O10   O     O_R   0.585136 0.599656 0.796942 -0.382474
O11   O     O_R   0.403765 0.648857 0.691074 -0.324420
O12   O     O_3   0.542830 0.653324 0.183985 -0.736210
H27   H     H_    0.606565 0.716155 0.161492 0.316966
O13   O     O_3   0.086957 0.095645 0.312844 -0.661153
H28   H     H_    0.159508 0.078116 0.295176 0.310300
O14   O     O_3   0.229360 0.554645 0.809961 -0.672858
H29   H     H_    0.227851 0.619409 0.815332 0.320687
O15   O     O_3   0.801179 0.454849 0.715068 -0.718443
H30   H     H_    0.816435 0.519163 0.725531 0.347816
O16   O     O_3   0.156717 0.188142 0.446492 -0.676245
H31   H     H_    0.170883 0.240101 0.475500 0.306152

loop_
_geom_bond_atom_site_label_1
_geom_bond_atom_site_label_2
_geom_bond_distance
_ccdc_geom_bond_type
C32   H21   1.081864 S    
O14   H29   0.990864 S    
C16   H13   1.083042 S    
C22   C23   1.392657 A    
C41   H19   1.084330 S    
O15   H30   0.991578 S    
O16   H31   0.993073 S    
Cu1   Cu2   2.689531 S    
C26   C27   1.419168 A    
Cu1   O7    1.968378 S    
C27   C30   1.418605 A    
C10   C11   1.557701 S    
C18   C19   1.417131 A    
C6    C10   1.552123 S    
C36   C40   1.413829 A    
C17   C18   1.402591 A    
C19   C23   1.394611 A    
C41   C42   1.392579 A    
O4    C2    1.291660 A    
O7    C4    1.295918 A    
N3    O11   1.300918 A    
C33   H22   1.074592 S    
C14   C30   1.418334 A    
C5    H1    1.117563 S    
C11   O9    1.407552 S    
C15   C16   1.394330 A    
O5    C3    1.297775 A    
C34   C36   1.433166 A    
C15   H12   1.083763 S    
C29   H11   1.083174 S    
C22   O14   1.379699 S    
C40   C41   1.387968 A    
C8    C9    1.563737 S    
C42   C43   1.416396 A    
Cu1   N2    2.020550 S    
C38   C39   1.401082 A    
H5    C11   1.117698 S    
C31   C32   1.388504 A    
C15   C19   1.403726 A    
C39   O15   1.384242 S    
C33   C34   1.420773 A    
O3    Cu1   1.966849 S    
C31   H20   1.083043 S    
C26   C28   1.406122 A    
C35   C39   1.402742 A    
C46   H17   1.074454 S    
C13   C16   1.400593 A    
O9    H26   0.992939 S    
O3    C2    1.295698 A    
C7    H9    1.113963 S    
O13   H28   0.992776 S    
N3    O10   1.300864 A    
N1    C32   1.354137 A    
C20   C24   1.411404 A    
C37   C43   1.435313 A    
O1    C1    1.301713 A    
C21   C27   1.419992 A    
C24   C25   1.395712 A    
C3    C14   1.482812 S    
C34   C35   1.420252 A    
Cu2   N1    2.020199 S    
C43   C46   1.419836 A    
C28   C29   1.391331 A    
Cu2   O8    1.966850 S    
C2    C9    1.481906 S    
C6    H2    1.113772 S    
C5    C9    1.561465 S    
C8    C12   1.534956 S    
C4    C10   1.481295 S    
C23   H10   1.084347 S    
C24   H15   1.079637 S    
C21   C22   1.424040 A    
C8    O16   1.407773 S    
O8    C4    1.291512 A    
C7    C11   1.546963 S    
C45   H18   1.081923 S    
C7    C9    1.553708 S    
C13   C17   1.401167 A    
C20   C21   1.410297 A    
C25   C26   1.418874 A    
N2    C46   1.360679 A    
C5    C6    1.546917 S    
C12   H7    1.114274 S    
O1    Cu1   1.941729 S    
C31   C35   1.406428 A    
C30   N3    1.439711 S    
O2    Cu2   1.935470 S    
H4    C7    1.113543 S    
C44   C45   1.390360 A    
O6    C3    1.306678 A    
O4    Cu2   1.968378 S    
N1    C33   1.360255 A    
C10   C12   1.555613 S    
C40   H24   1.075954 S    
C36   C37   1.432133 A    
C12   H8    1.113567 S    
O2    C1    1.296717 A    
C18   C20   1.420760 A    
C38   H23   1.074847 S    
C6    H3    1.113343 S    
C8    H6    1.117617 S    
C1    C13   1.469445 S    
C44   H25   1.083803 S    
C17   H14   1.078265 S    
C5    O13   1.407271 S    
Cu1   O5    1.935470 S    
Cu2   O6    1.941729 S    
C37   C38   1.411530 A    
C14   C29   1.403026 A    
C42   C44   1.401613 A    
O12   H27   0.987928 S    
C25   O12   1.380732 S    
N2    C45   1.355919 A    
C28   H16   1.080553 S    
