data_mof_unit_59826.cif
_audit_creation_date              2012-12-10T18:19:10-0500
_audit_creation_method            fapswitch 2.2
_symmetry_space_group_name_H-M    P1
_symmetry_Int_Tables_number       1
_space_group_crystal_system       triclinic
_cell_length_a                    14.950832
_cell_length_b                    14.169228
_cell_length_c                    11.526786
_cell_angle_alpha                 90.058027
_cell_angle_beta                  88.313562
_cell_angle_gamma                 90.091981
_cell_volume                      2440.79252511

loop_
_atom_site_label
_atom_site_type_symbol
_atom_type_description
_atom_site_fract_x
_atom_site_fract_y
_atom_site_fract_z
_atom_type_partial_charge
C1    C     C_R   0.327444 0.499925 0.502130 0.885551
C2    C     C_R   0.672584 0.500058 0.497747 0.886870
C3    C     C_R   0.910373 0.516133 0.389873 0.023058
C4    C     C_R   0.089734 0.482832 0.609729 0.025704
C5    C     C_R   0.943272 0.465563 0.707152 -0.055949
C6    C     C_R   0.056822 0.533517 0.292448 -0.055857
C7    C     C_R   0.036623 0.460928 0.710776 -0.073368
C8    C     C_R   0.963467 0.537854 0.288747 -0.073929
C9    C     C_R   0.553709 0.797509 0.422063 0.035992
C10   C     C_R   0.440663 0.202490 0.570828 0.036837
C11   C     C_R   0.440564 0.797369 0.570741 0.035921
C12   C     C_R   0.553724 0.202589 0.422032 0.035125
C13   C     C_R   0.431837 0.898304 0.564500 -0.067784
C14   C     C_R   0.548830 0.101634 0.410844 -0.067893
C15   C     C_R   0.548764 0.898403 0.410826 -0.068034
C16   C     C_R   0.431866 0.101554 0.564459 -0.067872
C17   C     C_R   0.490864 0.949211 0.488370 0.060625
C18   C     C_R   0.490882 0.050738 0.488353 0.060579
C19   C     C_R   0.364130 0.949958 0.626893 -0.051054
C20   C     C_R   0.596150 0.049936 0.322316 -0.051189
C21   C     C_R   0.596042 0.950103 0.322236 -0.051303
C22   C     C_R   0.364105 0.049814 0.626796 -0.050748
C23   C     C_R   0.500012 0.499963 0.282075 0.907444
C24   C     C_R   0.500129 0.500038 0.717921 0.909372
C25   C     C_1   0.499980 0.499905 0.161587 -0.144920
C26   C     C_1   0.500243 0.500096 0.838407 -0.140457
C27   C     C_1   0.500067 0.499952 0.059345 0.032068
C28   C     C_1   0.500194 0.500050 0.940646 0.032930
C29   C     C_R   0.815904 0.509614 0.388693 -0.064409
C30   C     C_R   0.184209 0.489408 0.610955 -0.067153
C31   C     C_R   0.767971 0.500258 0.493852 -0.086108
C32   C     C_R   0.232100 0.499582 0.505924 -0.087973
C33   C     C_R   0.809406 0.489386 0.598010 -0.242170
C34   C     C_R   0.190701 0.510554 0.401775 -0.241339
C35   C     C_R   0.901957 0.485448 0.601667 0.072889
C36   C     C_R   0.098145 0.513930 0.398007 0.072591
C37   C     C_R   0.953202 0.500104 0.497686 0.029534
C38   C     C_R   0.046903 0.499039 0.501945 0.029939
H1    H     H_    0.767689 0.481471 0.675985 0.146742
H2    H     H_    0.232445 0.518869 0.323888 0.146737
N1    N     N_R   0.500000 0.750030 0.500000 -0.146868
N2    N     N_R   0.500000 0.249970 0.500000 -0.146825
O1    O     O_R   0.367850 0.580280 0.500030 -0.618444
O2    O     O_R   0.632150 0.419720 0.499970 -0.618453
O3    O     O_R   0.632150 0.580280 0.499970 -0.617214
O4    O     O_R   0.367850 0.419720 0.500030 -0.617465
O5    O     O_R   0.500010 0.580270 0.334450 -0.616600
O6    O     O_R   0.499990 0.419730 0.665550 -0.616441
O7    O     O_R   0.499990 0.580270 0.665550 -0.615782
O8    O     O_R   0.500010 0.419730 0.334450 -0.615766
Zn1   Zn    Zn3+2 0.500000 0.607200 0.500000 0.971748
Zn2   Zn    Zn3+2 0.500000 0.392800 0.500000 0.971730
C39   C     C_1   0.766452 0.504007 0.282241 0.201181
N3    N     N_1   0.726507 0.499045 0.197901 -0.169762
C40   C     C_1   0.233756 0.494378 0.717369 0.194619
N4    N     N_1   0.273727 0.498933 0.801707 -0.167483
C41   C     C_1   0.889853 0.447401 0.812637 0.185572
N5    N     N_1   0.847495 0.432945 0.896429 -0.166192
C42   C     C_1   0.110227 0.551588 0.186923 0.184182
N6    N     N_1   0.152568 0.565963 0.103095 -0.167500
C43   C     C_1   0.074903 0.426254 0.817140 0.219565
N7    N     N_1   0.104304 0.398116 0.902215 -0.158474
C44   C     C_1   0.925156 0.572163 0.182220 0.216275
N8    N     N_1   0.895732 0.600008 0.097014 -0.158364
C45   C     C_1   0.618559 0.742256 0.357016 0.275824
N9    N     N_1   0.670984 0.698426 0.304523 -0.186661
C46   C     C_1   0.391915 0.257703 0.656521 0.273119
N10   N     N_1   0.352855 0.301587 0.725915 -0.182106
C47   C     C_1   0.391400 0.741894 0.655837 0.274383
N11   N     N_1   0.351992 0.697673 0.724609 -0.179737
C48   C     C_1   0.618564 0.258069 0.357024 0.276303
N12   N     N_1   0.670963 0.302183 0.304696 -0.182900
C49   C     C_1   0.288162 0.902933 0.683851 0.177077
N13   N     N_1   0.227003 0.866815 0.729087 -0.164945
C50   C     C_1   0.639365 0.096832 0.223236 0.176423
N14   N     N_1   0.673703 0.132797 0.143475 -0.164441
C51   C     C_1   0.638910 0.903191 0.222896 0.176685
N15   N     N_1   0.672964 0.867209 0.142934 -0.164292
C52   C     C_1   0.287985 0.096753 0.683330 0.177470
N16   N     N_1   0.226724 0.132832 0.728210 -0.166443

loop_
_geom_bond_atom_site_label_1
_geom_bond_atom_site_label_2
_ccdc_geom_bond_type
C40   N4    T    
C10   N2    A    
C49   N13   T    
C14   C18   A    
C51   N15   T    
C33   H1    S    
C34   H2    S    
C35   C37   A    
C24   C26   S    
C22   C52   S    
C1    O4    A    
O3    Zn1   S    
O4    Zn2   S    
C3    C29   A    
C7    C43   S    
C12   N2    A    
C1    O1    A    
C2    O2    A    
O7    Zn1   S    
O8    Zn2   S    
C31   C33   A    
O2    Zn2   S    
C42   N6    T    
C47   N11   T    
C4    C7    A    
C2    O3    A    
C10   C46   S    
C23   O5    A    
C13   C19   A    
C46   N10   T    
C24   O6    A    
C14   C20   A    
C19   C49   S    
C19   C22   A    
C3    C8    A    
C5    C7    A    
C23   O8    A    
C6    C8    A    
C39   N3    T    
C1    C32   S    
C44   N8    T    
C20   C50   S    
C2    C31   S    
C32   C34   A    
C50   N14   T    
C37   C38   A    
O6    Zn2   S    
C17   C18   A    
C12   C48   S    
C12   C14   A    
C24   O7    A    
C15   C17   A    
C16   C22   A    
C9    N1    A    
C6    C42   S    
C4    C38   A    
O5    Zn1   S    
C11   C47   S    
C5    C41   S    
C25   C27   T    
C30   C40   S    
C26   C28   T    
C13   C17   A    
C36   C38   A    
C9    C15   A    
C48   N12   T    
C29   C31   A    
C10   C16   A    
C30   C32   A    
C11   C13   A    
O1    Zn1   S    
C41   N5    T    
C29   C39   S    
C5    C35   A    
C33   C35   A    
C6    C36   A    
C11   N1    A    
C34   C36   A    
C23   C25   S    
C43   N7    T    
C9    C45   S    
C8    C44   S    
C52   N16   T    
C15   C21   A    
C20   C21   A    
C3    C37   A    
C16   C18   A    
C45   N9    T    
C21   C51   S    
C27   C28   S    
N1    Zn1   S    
C4    C30   A    
N2    Zn2   S    
