data_mof_unit_67593.cif
_audit_creation_date              2012-12-10T17:55:04-0500
_audit_creation_method            fapswitch 2.2
_symmetry_space_group_name_H-M    P1
_symmetry_Int_Tables_number       1
_space_group_crystal_system       triclinic
_cell_length_a                    8.744946
_cell_length_b                    10.797287
_cell_length_c                    9.561193
_cell_angle_alpha                 90.493252
_cell_angle_beta                  97.254652
_cell_angle_gamma                 92.705924
_cell_volume                      894.461699419

loop_
_atom_site_label
_atom_site_type_symbol
_atom_type_description
_atom_site_fract_x
_atom_site_fract_y
_atom_site_fract_z
_atom_type_partial_charge
C1    C     C_R   0.494638 0.262204 0.498595 0.835298
C2    C     C_R   0.505378 0.737792 0.501406 0.835400
C3    C     C_R   0.204407 0.495098 0.464725 0.846033
C4    C     C_R   0.795593 0.504860 0.535275 0.846043
C5    C     C_2   0.039421 0.475460 0.450278 -0.205537
C6    C     C_2   0.960572 0.524503 0.549724 -0.205390
C7    C     C_R   0.403862 0.055827 0.392220 0.158753
C8    C     C_R   0.596194 0.944155 0.607746 0.158709
C9    C     C_R   0.410963 0.928037 0.395218 -0.227270
C10   C     C_R   0.589065 0.071949 0.604786 -0.227183
C11   C     C_R   0.505690 0.871666 0.502378 -0.104774
C12   C     C_R   0.494334 0.128325 0.497622 -0.104725
C13   C     C_R   0.396666 0.426559 0.062966 -0.081291
C14   C     C_R   0.603299 0.573474 0.937029 -0.081383
C15   C     C_R   0.397072 0.424618 0.915248 0.262539
C16   C     C_R   0.602897 0.575411 0.084749 0.262491
Cu1   Cu    Cu3+1 0.500000 0.500020 0.640660 0.988807
Cu2   Cu    Cu3+1 0.500000 0.499980 0.359340 0.988827
H1    H     H_    0.339431 0.872167 0.315205 0.177365
H2    H     H_    0.660613 0.127816 0.684788 0.177340
H3    H     H_    0.313009 0.369304 0.109605 0.184179
H4    H     H_    0.686906 0.630778 0.890388 0.184180
N1    N     N_R   0.500040 0.500030 0.852080 -0.191223
N2    N     N_R   0.499960 0.499970 0.147920 -0.191215
O1    O     O_R   0.499990 0.319660 0.618740 -0.562385
O2    O     O_R   0.500010 0.680340 0.381260 -0.562367
O3    O     O_R   0.499990 0.319630 0.381170 -0.562472
O4    O     O_R   0.500010 0.680370 0.618830 -0.562514
O5    O     O_R   0.274840 0.500010 0.591370 -0.549952
O6    O     O_R   0.725160 0.499990 0.408630 -0.549963
O7    O     O_R   0.274830 0.499980 0.353800 -0.596571
O8    O     O_R   0.725170 0.500020 0.646200 -0.596554
C17   C     C_R   0.969159 0.381816 0.341990 0.147705
C18   C     C_R   0.965120 0.406535 0.197541 -0.089094
C19   C     C_R   0.890368 0.322110 0.096693 -0.133380
C20   C     C_R   0.820321 0.212080 0.139113 -0.043011
C21   C     C_R   0.826111 0.185630 0.282450 -0.080283
C22   C     C_R   0.900742 0.269737 0.383643 -0.119972
H5    H     H_    0.016823 0.492145 0.163171 0.134358
H6    H     H_    0.885917 0.342210 0.985637 0.140609
H7    H     H_    0.762118 0.147077 0.060889 0.159147
H8    H     H_    0.772336 0.100164 0.315200 0.155099
H9    H     H_    0.903244 0.248580 0.494420 0.127252
C23   C     C_R   0.030787 0.618240 0.657924 0.147755
C24   C     C_R   0.099334 0.730226 0.616119 -0.119878
C25   C     C_R   0.174095 0.814326 0.717232 -0.080222
C26   C     C_R   0.179860 0.787989 0.860641 -0.042944
C27   C     C_R   0.109686 0.678063 0.903202 -0.133371
C28   C     C_R   0.034824 0.593626 0.802420 -0.089037
H10   H     H_    0.096912 0.751257 0.505279 0.127150
H11   H     H_    0.228024 0.899684 0.684346 0.154989
H12   H     H_    0.238164 0.852978 0.938812 0.159153
H13   H     H_    0.114196 0.658019 0.014301 0.140587
H14   H     H_    0.983049 0.508083 0.836882 0.134338
I1    I     I_    0.244075 0.127150 0.231956 -0.392502
I2    I     I_    0.756143 0.872786 0.767753 -0.392537
I3    I     I_    0.235332 0.294031 0.805037 -0.377532
I4    I     I_    0.764513 0.706094 0.194953 -0.377571

loop_
_geom_bond_atom_site_label_1
_geom_bond_atom_site_label_2
_ccdc_geom_bond_type
C23   C28   A    
C14   N1    A    
C3    O7    A    
C26   H12   S    
Cu2   O6    S    
C4    O8    A    
Cu1   O5    S    
C19   C20   A    
Cu2   O2    S    
C7    I1    S    
Cu1   O1    S    
C14   H4    S    
C15   N1    A    
C17   C18   A    
C13   H3    S    
C22   H9    S    
C16   N2    A    
C16   I4    S    
C24   C25   A    
C1    O1    A    
C9    C11   A    
C8    I2    S    
C20   H7    S    
C21   C22   A    
C1    C12   S    
C10   C12   A    
Cu1   N1    S    
C8    C11   A    
C15   I3    S    
C5    C6    D    
C24   H10   S    
C4    C6    S    
C20   C21   A    
Cu1   Cu2   S    
C14   C16   A    
C13   C15   A    
C27   H13   S    
Cu2   N2    S    
C7    C12   A    
C2    O4    A    
C2    C11   S    
C19   H6    S    
C28   H14   S    
C26   C27   A    
C7    C9    A    
C3    O5    A    
C23   C24   A    
C2    O2    A    
C18   C19   A    
C21   H8    S    
C1    O3    A    
Cu1   O8    S    
C25   C26   A    
C27   C28   A    
C17   C22   A    
C6    C23   S    
Cu2   O7    S    
Cu1   O4    S    
C25   H11   S    
C9    H1    S    
C8    C10   A    
C4    O6    A    
Cu2   O3    S    
C18   H5    S    
C13   N2    A    
C10   H2    S    
C3    C5    S    
C5    C17   S    
