data_mof_unit_58112.cif
_audit_creation_date              2012-12-10T19:14:24-0500
_audit_creation_method            fapswitch 2.2
_symmetry_space_group_name_H-M    P1
_symmetry_Int_Tables_number       1
_space_group_crystal_system       triclinic
_cell_length_a                    11.475538
_cell_length_b                    10.331226
_cell_length_c                    18.811086
_cell_angle_alpha                 87.018666
_cell_angle_beta                  90.385914
_cell_angle_gamma                 88.91151
_cell_volume                      2226.68721204

loop_
_atom_site_label
_atom_site_type_symbol
_atom_type_description
_atom_site_fract_x
_atom_site_fract_y
_atom_site_fract_z
_atom_type_partial_charge
C1    C     C_R   0.259444 0.498837 0.501210 0.977846
C2    C     C_R   0.378854 0.435517 0.069519 0.423504
C3    C     C_R   0.371724 0.561577 0.816466 -0.315321
C4    C     C_R   0.440017 0.340823 0.817220 -0.256642
C5    C     C_R   0.431983 0.588954 0.752870 0.405629
C6    C     C_R   0.506088 0.370525 0.755738 0.600364
C7    C     C_R   0.482759 0.487251 0.715501 -0.229785
C8    C     C_R   0.376883 0.437625 0.849756 -0.043165
C9    C     C_3   0.079100 0.569039 0.570537 0.160492
C10   C     C_3   0.071985 0.348515 0.518649 0.166440
C11   C     C_3   0.942676 0.601848 0.563202 0.754444
C12   C     C_3   0.941637 0.361525 0.548502 0.613433
C13   C     C_3   0.065815 0.544223 0.431653 0.620994
C14   C     C_3   0.123212 0.492464 0.504585 -0.389535
C15   C     C_3   0.883126 0.496689 0.513590 -0.413098
C16   C     C_R   0.496870 0.502815 0.365093 1.025086
C17   C     C_3   0.928851 0.521179 0.433726 0.489881
C18   C     C_3   0.380612 0.088085 0.482775 0.445656
C19   C     C_3   0.385061 0.931954 0.469731 0.460738
C20   C     C_3   0.573083 0.081869 0.438128 0.518172
C21   C     C_3   0.589016 0.925367 0.447925 0.459701
C22   C     C_3   0.542979 0.068838 0.569295 0.580953
C23   C     C_3   0.514972 0.915062 0.572653 0.613902
C24   C     C_R   0.742107 0.498441 0.508080 0.937683
C25   C     C_R   0.500454 0.496896 0.635593 0.776875
C26   C     C_R   0.405666 0.593150 0.247896 0.387103
C27   C     C_R   0.535180 0.404763 0.248770 0.422464
C28   C     C_R   0.390310 0.579202 0.173406 0.308580
C29   C     C_R   0.490689 0.370758 0.182607 0.409883
C30   C     C_R   0.416100 0.459131 0.143816 -0.268250
C31   C     C_R   0.481924 0.504792 0.285917 -0.349886
C32   C     C_R   0.352552 0.421258 0.926569 0.314078
H1    H     H_    0.330211 0.640758 0.842806 0.185243
H2    H     H_    0.449127 0.246309 0.844389 0.173004
H3    H     H_    0.095800 0.500021 0.615954 0.132967
H4    H     H_    0.124965 0.300566 0.561878 0.204415
N1    N     N_R   0.421483 0.332245 0.035797 -0.142581
N2    N     N_R   0.312983 0.524984 0.031067 -0.099718
N3    N     N_R   0.408985 0.325343 0.965877 -0.198172
N4    N     N_R   0.300834 0.518807 0.960999 -0.181589
N5    N     N_3   0.499750 0.138610 0.498490 -0.271356
N6    N     N_3   0.499750 0.861390 0.498490 -0.291594
O1    O     O_R   0.314910 0.616040 0.499990 -0.502105
O2    O     O_R   0.314910 0.383960 0.499990 -0.538608
O3    O     O_R   0.500100 0.616080 0.398110 -0.514154
O4    O     O_R   0.500100 0.383920 0.398110 -0.518542
O5    O     O_R   0.685320 0.616040 0.499960 -0.558904
O6    O     O_R   0.685320 0.383960 0.499960 -0.498855
O7    O     O_R   0.500130 0.616000 0.601840 -0.556312
O8    O     O_R   0.500130 0.384000 0.601840 -0.544123
Zn1   Zn    Zn3+2 0.500150 0.654960 0.499970 1.144762
Zn2   Zn    Zn3+2 0.500150 0.345040 0.499970 1.166888
O9    O     O_3   0.354044 0.693306 0.284124 -0.535159
C33   C     C_3   0.247609 0.740343 0.252892 0.109257
H5    H     H_    0.193197 0.661991 0.232523 0.150410
H6    H     H_    0.263792 0.818407 0.211665 0.174397
H7    H     H_    0.195437 0.788781 0.292858 0.231297
O10   O     O_3   0.637980 0.347800 0.273734 -0.510564
C34   C     C_3   0.729808 0.424663 0.246357 -0.141553
H8    H     H_    0.740049 0.510956 0.278333 0.226093
H9    H     H_    0.717672 0.458232 0.189470 0.061085
H10   H     H_    0.811500 0.365687 0.248602 0.244127
Cl1   Cl    Cl    0.850574 0.649987 0.384351 -0.404004
Cl2   Cl    Cl    0.889212 0.385861 0.383770 -0.463644
Cl3   Cl    Cl    0.312037 0.182781 0.410075 -0.380258
Cl4   Cl    Cl    0.353877 0.902150 0.378985 -0.386863
Cl5   Cl    Cl    0.280379 0.128730 0.550977 -0.499253
Cl6   Cl    Cl    0.251262 0.868020 0.499211 -0.329610
Cl7   Cl    Cl    0.527774 0.123662 0.347286 -0.325765
Cl8   Cl    Cl    0.602787 0.848012 0.364380 -0.319537
O11   O     O_3   0.665799 0.080346 0.573760 -0.565776
C35   C     C_3   0.710697 0.081539 0.644063 -0.120197
H11   H     H_    0.804368 0.053139 0.645215 0.170709
H12   H     H_    0.666077 0.017593 0.683927 0.155320
H13   H     H_    0.702116 0.179907 0.659880 0.245620
O12   O     O_3   0.578129 0.835826 0.624264 -0.560010
C36   C     C_3   0.695479 0.800305 0.623425 -0.050992
H14   H     H_    0.755010 0.868679 0.598896 0.230110
H15   H     H_    0.704144 0.702691 0.605479 0.245883
H16   H     H_    0.723899 0.792454 0.679677 0.099823
Cl9   Cl    Cl    0.475221 0.142537 0.646498 -0.479507
Cl10  Cl    Cl    0.385494 0.892346 0.624010 -0.439953
Cl11  Cl    Cl    0.704117 0.163384 0.423409 -0.265555
Cl12  Cl    Cl    0.730553 0.891080 0.471511 -0.384563
O13   O     O_3   0.350851 0.682557 0.129563 -0.605210
C37   C     C_3   0.446619 0.761384 0.112098 -0.257956
H17   H     H_    0.484273 0.803505 0.160259 0.209915
H18   H     H_    0.415875 0.843110 0.075747 0.201403
H19   H     H_    0.514979 0.706694 0.083683 0.143884
O14   O     O_3   0.512857 0.247566 0.159213 -0.528161
C38   C     C_3   0.622989 0.241256 0.126400 -0.159984
H20   H     H_    0.645475 0.332377 0.095603 0.099024
H21   H     H_    0.621478 0.163236 0.088074 0.172055
H22   H     H_    0.691629 0.213647 0.166410 0.213134
O15   O     O_3   0.449877 0.715864 0.730992 -0.519712
C39   C     C_3   0.523174 0.773756 0.780653 -0.133929
H23   H     H_    0.606381 0.717638 0.789184 0.108198
H24   H     H_    0.478763 0.786345 0.832192 0.123066
H25   H     H_    0.545114 0.872345 0.759539 0.214292
O16   O     O_3   0.603426 0.297421 0.738580 -0.609282
C40   C     C_3   0.661083 0.239384 0.799490 -0.419107
H26   H     H_    0.668896 0.307449 0.843235 0.176321
H27   H     H_    0.750804 0.210533 0.785430 0.162573
H28   H     H_    0.617306 0.148776 0.817767 0.192628
O17   O     O_3   0.142680 0.681960 0.582706 -0.493219
C41   C     C_3   0.207601 0.674405 0.647371 -0.048284
H29   H     H_    0.184150 0.599183 0.688617 0.033549
H30   H     H_    0.198148 0.768105 0.672992 0.229444
H31   H     H_    0.298963 0.654852 0.634584 0.229986
O18   O     O_3   0.083649 0.276445 0.455550 -0.526915
C42   C     C_3   0.057572 0.141964 0.461334 0.286910
H32   H     H_    0.117514 0.084178 0.429827 0.206863
H33   H     H_    0.973415 0.125324 0.434362 0.224543
H34   H     H_    0.059019 0.099208 0.516744 0.178576
O19   O     O_3   0.882619 0.597408 0.629312 -0.665706
C43   C     C_3   0.938201 0.657954 0.685761 -0.337593
H35   H     H_    0.976738 0.752470 0.669458 0.228292
H36   H     H_    0.001573 0.590074 0.712830 0.181899
H37   H     H_    0.872731 0.676629 0.727121 0.155865
O20   O     O_3   0.958947 0.362139 0.624298 -0.676046
C44   C     C_3   0.861830 0.344855 0.668558 -0.080782
H38   H     H_    0.777964 0.371827 0.641395 0.190106
H39   H     H_    0.870331 0.405727 0.714975 0.180387
H40   H     H_    0.867825 0.244745 0.691656 0.144734
Cl13  Cl    Cl    0.934458 0.764838 0.529435 -0.429457
Cl14  Cl    Cl    0.863551 0.220740 0.536810 -0.528728
Cl15  Cl    Cl    0.098869 0.708846 0.411047 -0.390309
Cl16  Cl    Cl    0.135272 0.472419 0.356662 -0.457520

loop_
_geom_bond_atom_site_label_1
_geom_bond_atom_site_label_2
_ccdc_geom_bond_type
C40   H26   S    
C23   Cl10  S    
C27   C29   A    
C42   H32   S    
C23   O12   S    
C4    C8    A    
C20   N5    S    
O9    C33   S    
C18   Cl3   S    
C23   N6    S    
C11   Cl13  S    
C17   Cl2   S    
C37   H18   S    
C22   N5    S    
C12   Cl14  S    
C41   H29   S    
C3    H1    S    
C9    O17   S    
O19   C43   S    
C39   H25   S    
O4    Zn2   S    
C43   H35   S    
C19   Cl4   S    
C18   C19   S    
C32   N3    A    
C25   O8    A    
C44   H40   S    
C12   O20   S    
C13   Cl16  S    
C11   C15   S    
C1    O1    A    
O15   C39   S    
O7    Zn1   S    
C39   H24   S    
O8    Zn2   S    
C21   Cl12  S    
C11   O19   S    
N5    Zn2   S    
C19   N6    S    
C36   H14   S    
N6    Zn1   S    
O2    Zn2   S    
C34   H8    S    
C40   H27   S    
C13   C14   S    
C35   H13   S    
C29   O14   S    
C5    O15   S    
C33   H6    S    
C36   H15   S    
C4    H2    S    
C34   H9    S    
C27   C31   A    
C24   O6    A    
C22   Cl9   S    
O12   C36   S    
C35   H12   S    
C3    C8    A    
C10   C14   S    
C18   N5    S    
C16   O4    A    
C38   H20   S    
C5    C7    A    
C37   H17   S    
O5    Zn1   S    
C18   Cl5   S    
O13   C37   S    
C37   H19   S    
O18   C42   S    
C16   C31   S    
C6    O16   S    
C9    C14   S    
C29   C30   A    
C38   H21   S    
C2    N2    A    
C1    O2    A    
C12   C15   S    
C39   H23   S    
C19   Cl6   S    
C42   H33   S    
C9    C11   S    
C44   H38   S    
C10   C12   S    
C4    C6    A    
C15   C24   S    
C40   H28   S    
C20   Cl7   S    
C26   O9    S    
C22   O11   S    
O20   C44   S    
C36   H16   S    
C15   C17   S    
C33   H5    S    
C34   H10   S    
C24   O5    A    
C26   C31   A    
C35   H11   S    
C3    C5    A    
C27   O10   S    
C16   O3    A    
C6    C7    A    
O17   C41   S    
C26   C28   A    
C7    C25   S    
C43   H37   S    
C13   C17   S    
C21   Cl8   S    
C2    C30   S    
C28   C30   A    
O10   C34   S    
O11   C35   S    
N1    N3    A    
C17   Cl1   S    
C38   H22   S    
N2    N4    A    
C2    N1    A    
O1    Zn1   S    
O14   C38   S    
C8    C32   S    
C41   H30   S    
O16   C40   S    
C43   H36   S    
C10   O18   S    
C42   H34   S    
C32   N4    A    
C25   O7    A    
C44   H39   S    
C21   N6    S    
C13   Cl15  S    
O6    Zn2   S    
C20   C21   S    
C20   Cl11  S    
C28   O13   S    
C9    H3    S    
O3    Zn1   S    
C22   C23   S    
C10   H4    S    
C1    C14   S    
C41   H31   S    
C33   H7    S    
