data_mof_unit_33451.cif
_audit_creation_date              2012-12-11T15:08:42-0500
_audit_creation_method            fapswitch 2.2
_symmetry_space_group_name_H-M    P1
_symmetry_Int_Tables_number       1
_space_group_crystal_system       triclinic
_cell_length_a                    26.81134
_cell_length_b                    7.108393
_cell_length_c                    11.835572
_cell_angle_alpha                 90.034475
_cell_angle_beta                  102.887041
_cell_angle_gamma                 90.621621
_cell_volume                      2198.73187448

loop_
_atom_site_label
_atom_site_type_symbol
_atom_type_description
_atom_site_fract_x
_atom_site_fract_y
_atom_site_fract_z
_atom_type_partial_charge
O1    O     O_R   0.437360 0.505910 0.042120 -0.539730
O2    O     O_R   0.562640 0.005910 0.957880 -0.533149
O3    O     O_R   0.542480 0.176660 0.157100 -0.533326
O4    O     O_R   0.457520 0.676660 0.842900 -0.539774
C1    C     C_R   0.556476 0.345216 0.198229 0.720303
C2    C     C_R   0.443208 0.843556 0.801995 0.720208
O5    O     O_R   0.436520 0.176250 0.054800 -0.535810
O6    O     O_R   0.563480 0.676250 0.945200 -0.540564
O7    O     O_R   0.455920 0.005040 0.854840 -0.533071
O8    O     O_R   0.544080 0.505040 0.145160 -0.541240
C3    C     C_R   0.417467 0.343750 0.064029 0.751337
C4    C     C_R   0.582585 0.845753 0.936252 0.752070
O9    O     O_3   0.506490 0.338900 0.934520 -0.371166
O10   O     O_3   0.493510 0.838900 0.065480 -0.374831
V1    V     V_3+5 0.498800 0.064400 0.012150 1.499528
V2    V     V_3+5 0.501200 0.564400 0.987850 1.479337
C5    C     C_R   0.682522 0.913577 0.759122 -0.188116
C6    C     C_R   0.317405 0.332087 0.243960 -0.185910
H1    H     H_    0.776390 0.936440 0.722865 0.156852
H2    H     H_    0.223487 0.335060 0.280727 0.162098
H3    H     H_    0.684029 0.940681 0.669782 0.164645
H4    H     H_    0.315777 0.321611 0.334462 0.166110
C7    C     C_R   0.632145 0.858627 0.902473 -0.090228
C8    C     C_R   0.367974 0.348218 0.098273 -0.089989
C9    C     C_R   0.866716 0.826886 0.214007 0.295335
C10   C     C_R   0.133634 0.370625 0.784864 0.321038
C11   C     C_R   0.820159 0.824626 0.248913 0.326923
C12   C     C_R   0.180158 0.359530 0.750397 0.322870
C13   C     C_R   0.774189 0.841871 0.167249 -0.298368
C14   C     C_R   0.226091 0.356593 0.832969 -0.317984
C15   C     C_R   0.772991 0.857648 0.047680 0.039990
C16   C     C_R   0.227198 0.357415 0.952926 0.039813
C17   C     C_R   0.820546 0.870116 0.012819 0.001942
C18   C     C_R   0.179579 0.357573 0.987978 -0.000167
C19   C     C_R   0.726069 0.865746 0.961931 0.101650
C20   C     C_R   0.274080 0.353940 0.039056 0.105423
C21   C     C_R   0.727860 0.897287 0.844426 0.078017
C22   C     C_R   0.272156 0.343105 0.157817 0.077347
C23   C     C_R   0.774837 0.913023 0.812555 -0.180763
C24   C     C_R   0.225131 0.342280 0.190114 -0.184136
C25   C     C_R   0.820408 0.897400 0.894907 -0.189252
C26   C     C_R   0.179629 0.351017 0.106903 -0.183400
C27   C     C_R   0.677301 0.842603 0.988342 -0.289369
C28   C     C_R   0.322960 0.360389 0.011724 -0.289746
C29   C     C_R   0.634956 0.897076 0.787740 0.231836
C30   C     C_R   0.365010 0.331903 0.214751 0.231120
C31   C     C_R   0.867402 0.855906 0.096688 -0.211452
C32   C     C_R   0.132773 0.364920 0.903332 -0.230239
H5    H     H_    0.672903 0.811917 0.074771 0.115245
H6    H     H_    0.327629 0.373837 0.924011 0.115555
H7    H     H_    0.740008 0.842453 0.200694 0.155985
H8    H     H_    0.260237 0.348780 0.799756 0.159752
H9    H     H_    0.855666 0.908796 0.865109 0.127201
H10   H     H_    0.144344 0.350940 0.136956 0.128479
C33   C     C_R   0.091588 0.863319 0.312893 -0.101067
C34   C     C_R   0.908241 0.355345 0.687653 -0.099448
C35   C     C_R   0.408177 0.847560 0.687453 -0.057383
C36   C     C_R   0.591393 0.356486 0.312622 -0.056553
C37   C     C_R   0.103883 0.873656 0.521780 0.397962
C38   C     C_R   0.896130 0.310100 0.480562 0.397424
C39   C     C_R   0.072137 0.883548 0.411401 -0.123848
C40   C     C_R   0.927994 0.326954 0.590399 -0.127749
C41   C     C_R   0.144128 0.846047 0.323696 -0.189578
C42   C     C_R   0.855547 0.365809 0.676224 -0.187756
C43   C     C_R   0.178586 0.847835 0.433844 0.025151
C44   C     C_R   0.821143 0.349546 0.566422 0.024962
C45   C     C_R   0.157757 0.850596 0.535390 0.022149
C46   C     C_R   0.841859 0.316762 0.466443 0.018189
C47   C     C_R   0.232877 0.845807 0.445133 0.094651
C48   C     C_R   0.766944 0.364729 0.554091 0.093747
C49   C     C_R   0.265855 0.836780 0.557357 0.037528
C50   C     C_R   0.733492 0.331920 0.443937 0.031502
C51   C     C_R   0.243844 0.814585 0.653769 -0.274522
C52   C     C_R   0.755113 0.284748 0.349953 -0.275306
C53   C     C_R   0.190833 0.827787 0.646046 0.494801
C54   C     C_R   0.808067 0.290189 0.356955 0.493558
C55   C     C_R   0.255447 0.853459 0.347740 -0.175133
C56   C     C_R   0.745045 0.413706 0.648381 -0.168498
C57   C     C_R   0.308081 0.846618 0.359807 -0.188876
C58   C     C_R   0.692563 0.428488 0.635621 -0.189749
C59   C     C_R   0.340665 0.840970 0.469167 0.119758
C60   C     C_R   0.659535 0.399174 0.528307 0.120692
C61   C     C_R   0.320246 0.842227 0.569838 0.110463
C62   C     C_R   0.679246 0.349976 0.430599 0.110412
C63   C     C_R   0.393744 0.835815 0.478620 -0.081513
C64   C     C_R   0.606831 0.424668 0.517406 -0.085783
C65   C     C_R   0.427163 0.835706 0.587114 -0.108980
C66   C     C_R   0.573111 0.405595 0.409986 -0.110523
C67   C     C_R   0.355287 0.852468 0.679077 -0.216958
C68   C     C_R   0.643758 0.328303 0.322598 -0.213058
H11   H     H_    0.342924 0.866505 0.759333 0.096061
H12   H     H_    0.655231 0.296007 0.243274 0.095088
H13   H     H_    0.467838 0.827622 0.592646 0.174788
H14   H     H_    0.532846 0.431208 0.402653 0.172177
H15   H     H_    0.323470 0.849384 0.282492 0.141970
H16   H     H_    0.677752 0.467679 0.710363 0.142125
H17   H     H_    0.031698 0.906142 0.402471 0.202530
H18   H     H_    0.968755 0.316025 0.599983 0.201318
H19   H     H_    0.156570 0.831413 0.243747 0.100968
H20   H     H_    0.842910 0.381478 0.755857 0.098696
H21   H     H_    0.267618 0.777027 0.735914 0.109060
H22   H     H_    0.731485 0.240975 0.268555 0.113533
H23   H     H_    0.233731 0.865568 0.259978 0.126124
H24   H     H_    0.767275 0.446677 0.733645 0.128612
H25   H     H_    0.409424 0.831110 0.401811 0.157489
H26   H     H_    0.591789 0.463484 0.591833 0.157017
O11   O     O_R   0.955980 0.206520 0.854760 -0.539761
O12   O     O_R   0.044020 0.706520 0.145240 -0.533607
O13   O     O_R   0.063490 0.536770 0.945200 -0.531363
O14   O     O_R   0.936510 0.036770 0.054800 -0.531946
C69   C     C_R   0.082983 0.369581 0.937672 0.751862
C70   C     C_R   0.917105 0.867481 0.062434 0.753004
O15   O     O_R   0.957530 0.536190 0.842880 -0.528164
O16   O     O_R   0.042470 0.036190 0.157120 -0.534534
O17   O     O_R   0.937350 0.707210 0.042130 -0.541821
O18   O     O_R   0.062650 0.207210 0.957870 -0.540931
C71   C     C_R   0.942733 0.367067 0.802768 0.731845
C72   C     C_R   0.057160 0.868702 0.197470 0.733867
O19   O     O_3   0.993540 0.373870 0.065440 -0.365812
O20   O     O_3   0.006460 0.873870 0.934560 -0.364881
V3    V     V_3+5 0.001200 0.648440 0.987860 1.546531
V4    V     V_3+5 0.998800 0.148440 0.012140 1.535429
Br1   Br    Br    0.574919 0.929377 0.667211 -0.618075
Br2   Br    Br    0.424944 0.308999 0.336859 -0.619711
Br3   Br    Br    0.068740 0.904339 0.645906 -0.400419
Br4   Br    Br    0.932482 0.281630 0.358324 -0.396481
Br5   Br    Br    0.929154 0.784445 0.326731 -0.443936
Br6   Br    Br    0.071611 0.400570 0.669226 -0.432155
Br7   Br    Br    0.817215 0.799794 0.408852 -0.561352
Br8   Br    Br    0.183094 0.346271 0.589819 -0.565010
O21   O     O_3   0.169655 0.792644 0.741773 -0.526950
C73   C     C_3   0.200813 0.853180 0.848690 0.105111
H27   H     H_    0.220606 0.988315 0.839998 0.120789
H28   H     H_    0.229684 0.745036 0.883529 0.123508
C74   C     C_3   0.167843 0.879886 0.936533 -0.626081
H29   H     H_    0.151261 0.743617 0.955700 0.219910
H30   H     H_    0.191416 0.938498 0.018434 0.155524
H31   H     H_    0.136131 0.976977 0.901657 0.248767
O22   O     O_3   0.827489 0.248969 0.260005 -0.529847
C75   C     C_3   0.799908 0.335700 0.157534 0.107804
H32   H     H_    0.782947 0.471245 0.175072 0.116917
H33   H     H_    0.768689 0.240652 0.112230 0.124831
C76   C     C_3   0.835591 0.374104 0.076490 -0.623869
H34   H     H_    0.849934 0.240718 0.048442 0.223999
H35   H     H_    0.814845 0.450282 0.998460 0.152413
H36   H     H_    0.868868 0.459937 0.121468 0.250145

loop_
_geom_bond_atom_site_label_1
_geom_bond_atom_site_label_2
_ccdc_geom_bond_type
C76   H36   S    
C44   C46   A    
C41   C43   A    
C7    C29   A    
C11   C13   A    
C34   C71   S    
C47   C55   A    
O1    C3    A    
C75   C76   S    
O12   V3    S    
O2    C4    A    
C2    O7    A    
C74   H29   S    
C23   C25   A    
C29   Br1   S    
O5    C3    A    
C4    C7    S    
C35   C67   A    
C1    C36   S    
O17   V3    S    
C16   C20   A    
C19   C21   A    
C5    C29   A    
O13   C69   A    
C43   C47   A    
H2    C24   S    
C64   C66   A    
O19   V4    S    
C48   C56   A    
C17   C31   A    
C31   C70   S    
C76   H35   S    
C3    C8    S    
C7    C27   A    
C38   C40   A    
C33   C39   A    
C47   C49   A    
C41   H19   S    
C37   C45   A    
C40   H18   S    
C53   O21   S    
C73   H27   S    
C43   C45   A    
C18   C26   A    
C15   C17   A    
C69   O18   A    
C58   H16   S    
C19   C27   A    
C9    C31   A    
C10   C32   A    
C52   H22   S    
O19   V3    S    
C51   H21   S    
O6    V2    S    
C22   C24   A    
C13   C15   A    
C51   C53   A    
C2    C35   S    
C30   Br2   S    
C64   H26   S    
C62   C68   A    
C63   H25   S    
C6    C30   A    
C59   C61   A    
O20   V4    S    
C59   C63   A    
C49   C61   A    
C63   C65   A    
C61   C67   A    
C66   H14   S    
C37   C39   A    
C9    Br5   S    
C56   H24   S    
O12   C72   A    
C55   C57   A    
C75   H32   S    
C58   C60   A    
C49   C51   A    
C27   H5    S    
C5    C21   A    
C60   C64   A    
C5    H3    S    
C35   C65   A    
C33   C41   A    
C42   C44   A    
O4    V2    S    
C57   H15   S    
C68   H12   S    
O16   C72   A    
C42   H20   S    
O6    C4    A    
C34   C42   A    
C56   C58   A    
O1    V2    S    
C10   Br6   S    
O2    V1    S    
C36   C68   A    
C25   H9    S    
C50   C62   A    
C74   H31   S    
O18   V4    S    
C73   H28   S    
O15   C71   A    
C50   C52   A    
C60   C62   A    
C9    C11   A    
C8    C28   A    
C34   C40   A    
C20   C28   A    
O4    C2    A    
C45   C53   A    
C52   C54   A    
O21   C73   S    
O3    V1    S    
O20   V3    S    
C57   C59   A    
C13   H7    S    
C54   O22   S    
C28   H6    S    
C74   H30   S    
C14   H8    S    
C6    H4    S    
C39   H17   S    
C75   H33   S    
C24   C26   A    
O3    C1    A    
C36   C66   A    
O22   C75   S    
C46   C54   A    
C18   C32   A    
C10   C12   A    
C8    C30   A    
C38   Br4   S    
O7    V1    S    
C17   C25   A    
C12   C14   A    
C21   C23   A    
O8    V2    S    
C37   Br3   S    
O14   V4    S    
C20   C22   A    
C14   C16   A    
O13   V3    S    
C44   C48   A    
C73   C74   S    
C11   Br7   S    
C65   H13   S    
C15   C19   A    
O5    V1    S    
C12   Br8   S    
C6    C22   A    
O14   C70   A    
C55   H23   S    
O16   V4    S    
C1    O8    A    
C32   C69   S    
O15   V3    S    
C38   C46   A    
H1    C23   S    
C67   H11   S    
O9    V2    S    
O10   V1    S    
C48   C50   A    
O11   V4    S    
O11   C71   A    
C70   O17   A    
C26   H10   S    
C76   H34   S    
C16   C18   A    
C33   C72   S    
