data_mof_unit_47694.cif
_audit_creation_date              2012-12-11T20:10:12-0500
_audit_creation_method            fapswitch 2.2
_symmetry_space_group_name_H-M    P1
_symmetry_Int_Tables_number       1
_space_group_crystal_system       triclinic
_cell_length_a                    8.218218
_cell_length_b                    16.307245
_cell_length_c                    18.716563
_cell_angle_alpha                 111.959607
_cell_angle_beta                  91.119341
_cell_angle_gamma                 84.02723
_cell_volume                      2313.20401836

loop_
_atom_site_label
_atom_site_type_symbol
_atom_type_description
_atom_site_fract_x
_atom_site_fract_y
_atom_site_fract_z
_atom_type_partial_charge
Ba1   Ba    Ba6+2 0.333520 0.539550 0.472180 1.671180
Ba2   Ba    Ba6+2 0.856270 0.460520 0.527840 1.655271
C1    C     C_3   0.059909 0.856332 0.351386 -0.348091
C2    C     C_3   0.051882 0.765471 0.356069 0.383851
C3    C     C_3   0.050918 0.316377 0.281545 0.311143
C4    C     C_3   0.041380 0.286905 0.194448 -0.388205
C5    C     C_3   0.651893 0.273646 0.695062 0.390985
C6    C     C_3   0.698203 0.259731 0.769644 -0.188618
C7    C     C_3   0.170636 0.235839 0.658062 0.354038
C8    C     C_3   0.244828 0.174399 0.696974 -0.365987
C9    C     C_R   0.518787 0.453030 0.038435 -0.005227
C10   C     C_R   0.438471 0.409767 0.077987 0.030853
C11   C     C_R   0.295196 0.370902 0.047601 -0.079682
C12   C     C_3   0.568541 0.764035 0.315893 0.360525
C13   C     C_R   0.232231 0.374799 0.978835 -0.089912
C14   C     C_R   0.312589 0.416482 0.938335 0.033086
C15   C     C_R   0.456422 0.455799 0.968023 0.015102
C16   C     C_R   0.251852 0.418384 0.868347 -0.121131
C17   C     C_R   0.335114 0.456791 0.825384 -0.044879
C18   C     C_R   0.477583 0.498653 0.855919 0.001275
C19   C     C_R   0.537129 0.498173 0.927645 -0.005589
C20   C     C_R   0.282220 0.453159 0.752069 -0.013168
C21   C     C_R   0.373778 0.487445 0.709313 -0.290727
C22   C     C_R   0.508215 0.534283 0.739930 0.040962
C23   C     C_3   0.642918 0.849232 0.323663 -0.404671
C24   C     C_R   0.560310 0.541188 0.815193 -0.049404
C25   C     C_R   0.660762 0.493630 0.069283 -0.004276
C26   C     C_R   0.718687 0.494670 0.141691 0.027771
C27   C     C_R   0.634039 0.453834 0.183242 -0.006195
C28   C     C_R   0.499751 0.407522 0.148027 -0.034147
C29   C     C_R   0.694383 0.587243 0.850585 -0.037580
C30   C     C_R   0.758058 0.583063 0.919563 0.038158
C31   C     C_R   0.679114 0.538685 0.958486 0.011715
C32   C     C_R   0.741543 0.535883 0.028847 0.028736
C33   C     C_R   0.901831 0.621505 0.949693 -0.066134
C34   C     C_3   0.627054 0.736583 0.665209 0.339583
C35   C     C_R   0.965057 0.617460 0.018310 -0.085830
C36   C     C_R   0.884520 0.575957 0.058867 0.041136
C37   C     C_R   0.859519 0.537955 0.172819 -0.047821
C38   C     C_R   0.943678 0.575515 0.129488 -0.111146
C39   C     C_R   0.909961 0.543940 0.247074 -0.022382
C40   C     C_R   0.819179 0.509239 0.289684 -0.276565
C41   C     C_R   0.684102 0.463033 0.259238 0.062584
C42   C     C_2   0.400887 0.241173 0.483253 -0.270853
C43   C     C_R   0.805715 0.753104 0.515659 -0.297942
C44   C     C_2   0.236382 0.119446 0.413491 -0.117801
C45   C     C_3   0.635229 0.836156 0.705751 -0.371038
C46   C     C_2   0.259103 0.205672 0.436454 0.039398
C47   C     C_2   0.508182 0.189094 0.506493 -0.012936
C48   C     C_3   0.460027 0.100460 0.502260 -0.039047
C49   C     C_3   0.359274 0.055115 0.431022 0.010837
C50   C     C_2   0.599508 0.037275 0.507808 -0.099149
C51   C     C_2   0.568650 0.968014 0.524938 -0.095223
C52   C     C_R   0.841229 0.933747 0.569443 -0.005025
C53   C     C_R   0.700575 0.902802 0.530115 -0.055020
C54   C     C_R   0.961159 0.876792 0.585926 -0.106618
C55   C     C_R   0.939875 0.785228 0.561065 0.009227
C56   C     C_3   0.570959 0.263960 0.336882 0.303388
C57   C     C_R   0.683219 0.811491 0.501967 -0.008681
C58   C     C_3   0.591293 0.162890 0.300474 -0.377476
C59   C     C_3   0.145973 0.668693 0.713105 0.295762
C60   C     C_3   0.187331 0.702827 0.798973 -0.199391
H1    H     H_    0.121288 0.764069 0.407081 0.096118
H2    H     H_    0.745950 0.848661 0.741653 0.149878
H3    H     H_    0.639980 0.868043 0.663164 0.052376
H4    H     H_    0.525083 0.866854 0.743329 0.135367
H5    H     H_    0.444883 0.287168 0.359565 -0.001873
H6    H     H_    0.658579 0.285203 0.384477 0.077275
H7    H     H_    0.497766 0.139416 0.255785 0.133684
H8    H     H_    0.577050 0.134095 0.344769 0.059663
H9    H     H_    0.715250 0.139213 0.273511 0.131004
H10   H     H_    0.259751 0.636798 0.678994 -0.022315
H11   H     H_    0.057743 0.618572 0.701770 0.063113
H12   H     H_    0.996002 0.908867 0.402304 0.069448
H13   H     H_    0.309808 0.727820 0.806445 0.081717
H14   H     H_    0.193743 0.647064 0.819650 -0.042114
H15   H     H_    0.922373 0.756852 0.364022 -0.090662
H16   H     H_    0.001991 0.858512 0.298072 0.115620
H17   H     H_    0.924909 0.336176 0.306429 0.009728
H18   H     H_    0.123223 0.374406 0.303066 0.057636
H19   H     H_    0.963028 0.231582 0.171475 0.134923
H20   H     H_    0.988266 0.343113 0.178707 0.043791
H21   H     H_    0.165904 0.264087 0.168019 0.122901
H22   H     H_    0.188286 0.870792 0.350398 0.158690
H23   H     H_    0.732880 0.835413 0.276134 0.107983
H24   H     H_    0.658121 0.344958 0.705361 0.029022
H25   H     H_    0.525026 0.257124 0.681227 -0.081766
H26   H     H_    0.817297 0.285826 0.789728 0.140984
H27   H     H_    0.604145 0.298048 0.814908 0.058552
H28   H     H_    0.271601 0.260766 0.635971 -0.074243
H29   H     H_    0.100064 0.197120 0.607713 0.104030
H30   H     H_    0.312361 0.212734 0.748642 0.092664
H31   H     H_    0.330695 0.120916 0.656471 0.115943
H32   H     H_    0.146503 0.144370 0.715476 0.159871
H33   H     H_    0.230565 0.338229 0.077469 0.064402
H34   H     H_    0.120930 0.344605 0.957034 0.071173
H35   H     H_    0.334641 0.481297 0.652189 0.068726
H36   H     H_    0.140631 0.388186 0.847498 0.104778
H37   H     H_    0.437964 0.371408 0.175423 0.091367
H38   H     H_    0.754482 0.624287 0.823790 0.151702
H39   H     H_    0.966546 0.654129 0.919894 0.094959
H40   H     H_    0.076205 0.647808 0.040154 0.087194
H41   H     H_    0.054026 0.606509 0.150660 0.111865
H42   H     H_    0.665328 0.714835 0.323093 -0.102933
H43   H     H_    0.858274 0.515369 0.346830 0.063761
H44   H     H_    0.136233 0.093493 0.375925 0.082976
H45   H     H_    0.424557 0.308645 0.492816 0.059724
H46   H     H_    0.790606 0.682969 0.495572 0.070919
H47   H     H_    0.723411 0.043831 0.493116 0.108715
H48   H     H_    0.442968 0.958951 0.534114 0.151734
H49   H     H_    0.545944 0.900935 0.321400 0.141179
H50   H     H_    0.706673 0.875390 0.378737 0.085427
H51   H     H_    0.746368 0.705207 0.636675 -0.005098
H52   H     H_    0.529985 0.725263 0.621619 0.061555
O1    O     O_2   0.402610 0.439360 0.314250 -0.463234
O2    O     O_3   0.077421 0.739594 0.693597 -0.587547
O3    O     O_3   0.437966 0.785419 0.369663 -0.605182
O4    O     O_2   0.787080 0.560670 0.685800 -0.461268
O5    O     O_3   0.541120 0.553770 0.595290 -0.503349
O6    O     O_3   0.080800 0.396070 0.612520 -0.464938
O7    O     O_3   0.591000 0.702311 0.720459 -0.621101
O8    O     O_3   0.164600 0.390590 0.443970 -0.484011
O9    O     O_3   0.682580 0.347920 0.567870 -0.479555
O10   O     O_2   0.845300 0.190281 0.493648 -0.484180
O11   O     O_3   0.759999 0.219295 0.634859 -0.578363
O12   O     O_3   0.648560 0.446300 0.404730 -0.500868
O13   O     O_3   0.025080 0.609480 0.556050 -0.499527
O14   O     O_2   0.948320 0.280590 0.426090 -0.457517
O15   O     O_3   0.126131 0.245594 0.299825 -0.637244
O16   O     O_2   0.940234 0.466953 0.750622 -0.490113
O17   O     O_3   0.063348 0.302840 0.711061 -0.594721
O18   O     O_3   0.108870 0.604000 0.387500 -0.493883
O19   O     O_2   0.248811 0.534117 0.249976 -0.439624
O20   O     O_3   0.600332 0.297546 0.280368 -0.644246
O21   O     O_3   0.119807 0.698580 0.288314 -0.570848
O22   O     O_2   0.241370 0.719440 0.573960 -0.447899
O23   O     O_3   0.507090 0.652150 0.432150 -0.458976
O24   O     O_2   0.348769 0.808253 0.508066 -0.485956
P1    P     P_3+3 0.582960 0.413890 0.320860 0.975924
P2    P     P_3+3 0.071690 0.707860 0.593450 1.029591
P3    P     P_3+3 0.497477 0.765780 0.452940 0.968298
P4    P     P_3+3 0.606720 0.586180 0.679160 0.985938
P5    P     P_3+3 0.698954 0.234703 0.550285 0.960270
P6    P     P_3+3 0.095803 0.594631 0.292127 0.983623
P7    P     P_3+3 0.128991 0.278699 0.400170 0.949875
P8    P     P_3+3 0.092465 0.406157 0.708122 0.957212
C61   C     C_2   0.062628 0.775659 0.847597 0.931932
O25   O     O_2   0.106284 0.847033 0.889721 -0.591324
O26   O     O_R   0.897195 0.761974 0.843644 -0.776776
H53   H     H_    0.825205 0.815877 0.878590 0.311727
C62   C     C_3   0.709920 0.161840 0.759570 -0.369118
H54   H     H_    0.812140 0.123089 0.719152 0.164615
H55   H     H_    0.733586 0.155839 0.816106 0.118318
H56   H     H_    0.594059 0.133250 0.737089 0.120768
C63   C     C_2   0.501496 0.721686 0.236175 0.885851
O27   O     O_2   0.501267 0.757660 0.189275 -0.631339
O28   O     O_R   0.437819 0.640413 0.216187 -0.712822
H57   H     H_    0.390632 0.619746 0.162637 0.305512
C64   C     C_2   0.100989 0.918146 0.631057 0.897994
O29   O     O_2   0.158972 0.976691 0.617070 -0.649876
O30   O     O_R   0.162901 0.894148 0.691260 -0.726127
H58   H     H_    0.255574 0.929512 0.718314 0.297948

loop_
_geom_bond_atom_site_label_1
_geom_bond_atom_site_label_2
_ccdc_geom_bond_type
C42   C47   D    
O18   P6    S    
O6    P8    S    
O28   H57   S    
C4    H20   S    
C53   C57   A    
C12   C63   S    
C63   O28   S    
C39   C40   A    
C51   C53   S    
C17   C18   A    
C61   O25   D    
O22   P2    D    
Ba1   O18   S    
C34   H52   S    
C7    H29   S    
O30   H58   S    
Ba2   O4    S    
C5    C6    S    
C37   C39   A    
Ba2   O9    S    
C56   O20   S    
C10   C11   A    
C2    H1    S    
C43   C55   A    
C35   C36   A    
C11   H33   S    
C58   H7    S    
C26   C27   A    
C61   O26   S    
C22   C24   A    
Ba1   Ba2   S    
C54   C64   S    
C64   O29   D    
C35   H40   S    
O14   P7    D    
C62   H56   S    
C5    H24   S    
C19   C31   A    
C8    H32   S    
C56   C58   S    
C13   C14   A    
C47   P5    S    
C54   C55   A    
C34   C45   S    
C16   C17   A    
Ba1   O5    S    
O8    P7    S    
C44   C49   S    
C1    H12   S    
Ba1   O8    S    
C23   H50   S    
C51   H48   S    
C5    H25   S    
C20   P8    S    
C22   P4    S    
C14   C15   A    
C48   C50   S    
C21   C22   A    
C64   O30   S    
O10   P5    D    
C41   P1    S    
C58   H8    S    
C3    H17   S    
Ba1   O22   S    
C7    C8    S    
C45   H4    S    
O15   P7    S    
Ba1   P1    S    
C43   H46   S    
C10   C28   A    
Ba2   O13   S    
C3    O15   S    
C8    H30   S    
C24   C29   A    
C4    H19   S    
C27   C41   A    
C60   H14   S    
C34   H51   S    
C48   C49   S    
C52   C54   A    
Ba2   O8    S    
C25   C32   A    
C44   C46   D    
O12   P1    S    
C30   C33   A    
C6    C62   S    
Ba1   O12   S    
C39   P6    S    
O20   P1    S    
Ba2   O6    S    
C1    H22   S    
C8    H31   S    
O4    P4    D    
C28   H37   S    
C15   C19   A    
C55   P2    S    
C6    H26   S    
O3    P3    S    
C27   C28   A    
C12   H42   S    
C29   C30   A    
C9    C25   A    
C62   H54   S    
C12   O3    S    
C46   P7    S    
C17   C20   A    
C59   O2    S    
C23   H23   S    
C31   C32   A    
C29   H38   S    
C5    O11   S    
C3    H18   S    
Ba1   P2    S    
C2    O21   S    
Ba2   O12   S    
C59   H10   S    
C56   H6    S    
O21   P6    S    
C21   H35   S    
O1    P1    D    
C60   C61   S    
C11   C13   A    
Ba2   P4    S    
C13   H34   S    
C60   H13   S    
C40   C41   A    
C1    C2    S    
C63   O27   D    
Ba1   O23   S    
C50   C51   D    
C42   H45   S    
O23   P3    S    
C52   C53   A    
C43   C57   A    
O19   P6    D    
C4    H21   S    
C33   C35   A    
C32   C36   A    
O7    P4    S    
Ba1   O13   S    
C33   H39   S    
O24   P3    D    
C9    C15   A    
C7    H28   S    
Ba2   O5    S    
C45   H2    S    
O17   P8    S    
Ba1   O1    S    
C26   C37   A    
C58   H9    S    
C59   H11   S    
C30   C31   A    
C34   O7    S    
C2    H15   S    
O26   H53   S    
O16   P8    D    
C36   C38   A    
C3    C4    S    
C18   C24   A    
C50   H47   S    
O11   P5    S    
C7    O17   S    
C44   H44   S    
C62   H55   S    
C12   C23   S    
C59   C60   S    
C40   H43   S    
C23   H49   S    
C37   C38   A    
C56   H5    S    
C18   C19   A    
C57   P3    S    
C14   C16   A    
C47   C48   S    
O13   P2    S    
O9    P5    S    
C25   C26   A    
O5    P4    S    
C20   C21   A    
C6    H27   S    
C16   H36   S    
O2    P2    S    
C1    H16   S    
C45   H3    S    
C42   C46   S    
C9    C10   A    
C38   H41   S    
Ba2   O14   S    
