data_mof_unit_65559.cif
_audit_creation_date              2012-12-11T17:02:59-0500
_audit_creation_method            fapswitch 2.2
_symmetry_space_group_name_H-M    P1
_symmetry_Int_Tables_number       1
_space_group_crystal_system       triclinic
_cell_length_a                    8.189994
_cell_length_b                    14.921333
_cell_length_c                    16.421269
_cell_angle_alpha                 97.456817
_cell_angle_beta                  93.130877
_cell_angle_gamma                 97.726223
_cell_volume                      1966.42567682

loop_
_atom_site_label
_atom_site_type_symbol
_atom_type_description
_atom_site_fract_x
_atom_site_fract_y
_atom_site_fract_z
_atom_type_partial_charge
Ba1   Ba    Ba6+2 0.163630 0.544320 0.462600 1.643785
Ba2   Ba    Ba6+2 0.646550 0.455670 0.537340 1.658958
C1    C     C_3   0.421618 0.771849 0.161156 -0.351632
C2    C     C_R   0.886200 0.792805 0.521521 0.052711
C3    C     C_R   0.072692 0.234191 0.522290 -0.293806
C4    C     C_3   0.965953 0.793145 0.292489 0.360567
C5    C     C_R   0.166566 0.172479 0.551503 0.014204
C6    C     C_R   0.104396 0.079810 0.543187 -0.149094
C7    C     C_R   0.946457 0.046008 0.503061 0.007570
C8    C     C_R   0.857119 0.109253 0.467124 -0.020959
C9    C     C_R   0.876250 0.951309 0.495977 0.007205
C10   C     C_R   0.717578 0.921866 0.453398 -0.021267
C11   C     C_R   0.636497 0.985035 0.416643 -0.102763
C12   C     C_3   0.434631 0.742880 0.246382 0.340578
C13   C     C_R   0.706292 0.075854 0.421718 -0.045358
C14   C     C_R   0.956690 0.884919 0.531043 -0.132814
C15   C     C_R   0.732516 0.765831 0.479294 -0.294063
C16   C     C_3   0.998380 0.888864 0.268908 -0.363643
C17   C     C_R   0.921720 0.204320 0.477512 0.038932
C18   C     C_R   0.626218 0.537447 0.268585 -0.293791
C19   C     C_R   0.471043 0.489449 0.241142 0.034319
C20   C     C_R   0.415714 0.481428 0.157741 -0.127058
C21   C     C_R   0.517758 0.520914 0.101139 0.245168
C22   C     C_R   0.677601 0.564774 0.129541 -0.167762
C23   C     C_3   0.553863 0.734012 0.661605 0.337316
C24   C     C_R   0.732297 0.571725 0.212843 -0.013659
C25   C     C_R   0.381656 0.517713 0.853761 -0.126903
C26   C     C_R   0.330917 0.511934 0.770340 -0.014889
C27   C     C_R   0.276545 0.475984 0.908086 0.251839
C28   C     C_3   0.769708 0.345226 0.286838 0.307218
C29   C     C_R   0.178087 0.463466 0.739743 -0.295613
C30   C     C_R   0.068477 0.426629 0.792628 -0.006505
C31   C     C_R   0.118000 0.431788 0.876698 -0.152027
C32   C     C_3   0.744858 0.320781 0.193712 -0.387034
C33   C     C_3   0.033575 0.654939 0.713775 0.382347
C34   C     C_3   0.589788 0.837087 0.685457 -0.368445
C35   C     C_3   0.050960 0.678702 0.807136 0.505759
C36   C     C_3   0.255414 0.268190 0.352840 0.313619
C37   C     C_3   0.228814 0.165098 0.327878 -0.394577
C38   C     C_3   0.840543 0.205135 0.705156 0.353053
C39   C     C_3   0.806573 0.108591 0.726696 -0.358807
C40   C     C_3   0.370872 0.255740 0.753109 0.351596
C41   C     C_3   0.382863 0.226526 0.838268 -0.358915
C42   C     C_R   0.644824 0.829178 0.447637 0.000152
F1    F     F_    0.908999 0.709534 0.834599 -0.684356
H1    H     H_    0.350880 0.677685 0.245552 0.093403
H2    H     H_    0.344850 0.284992 0.407734 0.067411
H3    H     H_    0.292911 0.782548 0.144937 0.156072
H4    H     H_    0.135597 0.146078 0.274583 0.126613
H5    H     H_    0.184325 0.129942 0.379543 0.062312
H6    H     H_    0.346939 0.141656 0.310607 0.121019
H7    H     H_    0.564083 0.732031 0.260191 -0.056474
H8    H     H_    0.456541 0.717996 0.114866 0.089951
H9    H     H_    0.670830 0.708386 0.646041 0.021340
H10   H     H_    0.464114 0.719193 0.606726 0.046601
H11   H     H_    0.682784 0.854357 0.738951 0.158349
H12   H     H_    0.635469 0.267557 0.177050 0.127537
H13   H     H_    0.638921 0.869701 0.633126 0.049045
H14   H     H_    0.474555 0.864497 0.701895 0.121017
H15   H     H_    0.506089 0.836359 0.159840 0.112514
H16   H     H_    0.968606 0.939367 0.319744 0.070608
H17   H     H_    0.766709 0.207939 0.647067 0.094205
H18   H     H_    0.973871 0.220128 0.695494 -0.062109
H19   H     H_    0.673533 0.090913 0.736180 0.151747
H20   H     H_    0.839862 0.059290 0.675822 0.071970
H21   H     H_    0.881358 0.103127 0.783855 0.116130
H22   H     H_    0.241846 0.267170 0.739123 -0.063432
H23   H     H_    0.725060 0.381734 0.164636 0.062978
H24   H     H_    0.455118 0.320767 0.754210 0.092675
H25   H     H_    0.348595 0.280568 0.884586 0.080546
H26   H     H_    0.511161 0.215173 0.854568 0.151917
H27   H     H_    0.043322 0.791504 0.349777 0.093365
H28   H     H_    0.297400 0.162335 0.839429 0.113947
H29   H     H_    0.677496 0.695084 0.474333 0.073800
H30   H     H_    0.517724 0.965110 0.382680 0.105523
H31   H     H_    0.073387 0.902316 0.566803 0.087182
H32   H     H_    0.122734 0.305901 0.529932 0.071722
H33   H     H_    0.183769 0.036158 0.567462 0.082353
H34   H     H_    0.855955 0.294593 0.169463 0.127964
H35   H     H_    0.637960 0.119502 0.389993 0.103480
H36   H     H_    0.501186 0.555886 0.875829 0.131536
H37   H     H_    0.759779 0.592471 0.086631 0.109028
H38   H     H_    0.295117 0.443520 0.137425 0.113001
H39   H     H_    0.833562 0.778781 0.304355 -0.066984
H40   H     H_    0.033290 0.402353 0.917661 0.090383
H41   H     H_    0.668781 0.542758 0.332810 0.077203
H42   H     H_    0.139993 0.459699 0.675087 0.075828
H43   H     H_    0.130412 0.905818 0.257084 0.147703
H44   H     H_    0.920001 0.893236 0.212605 0.118103
H45   H     H_    0.147887 0.631564 0.692371 -0.144265
H46   H     H_    0.656280 0.367732 0.310474 0.010296
H47   H     H_    0.874726 0.401309 0.301742 0.068911
H48   H     H_    0.928453 0.599395 0.696789 0.046828
H49   H     H_    0.158343 0.732725 0.825919 0.023147
H50   H     H_    0.070575 0.617719 0.836242 -0.073699
H51   H     H_    0.136316 0.290738 0.367876 0.007240
N1    N     N_2   0.468070 0.516362 0.015649 -0.227318
N2    N     N_2   0.323215 0.479239 0.993938 -0.231364
O1    O     O_2   0.162570 0.722330 0.548140 -0.457105
O2    O     O_2   0.729820 0.434368 0.787975 -0.473514
O3    O     O_3   0.795503 0.266838 0.769343 -0.599471
O4    O     O_3   0.890730 0.608900 0.545420 -0.498430
O5    O     O_3   0.431610 0.453580 0.401830 -0.489419
O6    O     O_2   0.628250 0.544210 0.698290 -0.440927
O7    O     O_3   0.488825 0.694388 0.728075 -0.619717
O8    O     O_2   0.505370 0.173190 0.544104 -0.491292
O9    O     O_3   0.417070 0.187479 0.695261 -0.598695
O10   O     O_3   0.394120 0.666550 0.400060 -0.487336
O11   O     O_2   0.304006 0.826734 0.456081 -0.491488
O12   O     O_3   0.315265 0.309455 0.286557 -0.633507
O13   O     O_3   0.007766 0.733157 0.679296 -0.630758
O14   O     O_3   0.387973 0.811043 0.304131 -0.609092
O15   O     O_2   0.182040 0.455740 0.301680 -0.465297
O16   O     O_3   0.971530 0.620720 0.357690 -0.492097
O17   O     O_2   0.069692 0.561571 0.210747 -0.483267
O18   O     O_3   0.006978 0.729977 0.228332 -0.592719
O19   O     O_2   0.647720 0.277620 0.451840 -0.469456
O20   O     O_3   0.919570 0.391090 0.454510 -0.496412
O21   O     O_3   0.416180 0.333440 0.599870 -0.487095
O22   O     O_3   0.801737 0.267592 0.320600 -0.640279
O23   O     O_3   0.378690 0.546410 0.598100 -0.478365
O24   O     O_3   0.838770 0.379270 0.642240 -0.491070
P1    P     P_3+3 0.987060 0.708150 0.571770 0.992150
P2    P     P_3+3 0.349540 0.428350 0.313090 0.984997
P3    P     P_3+3 0.945181 0.619601 0.251176 0.956506
P4    P     P_3+3 0.823240 0.291840 0.428170 0.969662
P5    P     P_3+3 0.858319 0.378124 0.749020 0.960029
P6    P     P_3+3 0.432586 0.784889 0.403089 0.938035
P7    P     P_3+3 0.453761 0.575589 0.701147 0.988792
P8    P     P_3+3 0.376610 0.215297 0.596576 0.946627

loop_
_geom_bond_atom_site_label_1
_geom_bond_atom_site_label_2
_ccdc_geom_bond_type
C41   H28   S    
C37   H6    S    
C25   C27   A    
O2    P5    D    
C34   H14   S    
Ba1   O1    S    
N1    N2    D    
Ba2   O20   S    
C23   O7    S    
C5    C6    A    
C12   H1    S    
C4    H27   S    
C10   C11   A    
C38   H18   S    
C28   O22   S    
C27   N2    S    
C30   P5    S    
C33   C35   S    
C22   C24   A    
C26   P7    S    
C34   H13   S    
C8    C13   A    
C36   C37   S    
O22   P4    S    
Ba2   O4    S    
C27   C31   A    
C1    H3    S    
O21   P8    S    
C38   H17   S    
C35   H50   S    
Ba1   Ba2   S    
O24   P5    S    
C22   H37   S    
C5    P8    S    
C31   H40   S    
O12   P2    S    
C38   O3    S    
C12   H7    S    
C13   H35   S    
C6    C7    A    
C18   H41   S    
C32   H12   S    
C21   C22   A    
C36   O12   S    
C7    C8    A    
Ba1   O5    S    
C1    H15   S    
C33   H48   S    
C19   C20   A    
C6    H33   S    
Ba1   O15   S    
O9    P8    S    
O5    P2    S    
Ba2   O19   S    
Ba2   O24   S    
C4    C16   S    
C29   H42   S    
C28   C32   S    
O13   P1    S    
C11   H30   S    
C25   H36   S    
C4    H39   S    
C23   H9    S    
C28   H47   S    
C32   H23   S    
C3    C5    A    
O16   P3    S    
O7    P7    S    
Ba1   O10   S    
C40   H24   S    
C16   H43   S    
C2    P1    S    
C24   P3    S    
C2    C14   A    
C12   O14   S    
Ba1   P1    S    
C34   H11   S    
C32   H34   S    
Ba1   P2    S    
C9    C14   A    
O11   P6    D    
C29   C30   A    
Ba2   O6    S    
C8    C17   A    
C9    C10   A    
O10   P6    S    
C7    C9    A    
C4    O18   S    
C36   H2    S    
C1    C12   S    
C2    C15   A    
Ba2   P4    S    
C38   C39   S    
C37   H4    S    
C41   H25   S    
O6    P7    D    
C11   C13   A    
C15   H29   S    
C40   C41   S    
C35   F1    S    
O4    P1    S    
C33   O13   S    
O1    P1    D    
C40   O9    S    
Ba2   O23   S    
O8    P8    D    
C42   P6    S    
C41   H26   S    
C21   N1    S    
C14   H31   S    
C16   H44   S    
C26   C29   A    
C23   H10   S    
O23   P7    S    
C28   H46   S    
C39   H20   S    
Ba2   O21   S    
C16   H16   S    
C39   H21   S    
C3    C17   A    
C17   P4    S    
O17   P3    D    
O18   P3    S    
C20   H38   S    
C19   P2    S    
C15   C42   A    
C10   C42   A    
C30   C31   A    
C1    H8    S    
C40   H22   S    
O15   P2    D    
C18   C24   A    
Ba2   O5    S    
O3    P5    S    
C35   H49   S    
Ba1   O20   S    
Ba1   O23   S    
O14   P6    S    
C23   C34   S    
C33   H45   S    
C37   H5    S    
C18   C19   A    
Ba1   O16   S    
C36   H51   S    
C25   C26   A    
C20   C21   A    
O19   P4    D    
O20   P4    S    
C39   H19   S    
C3    H32   S    
Ba1   O4    S    
