data_mof_unit_40540.cif
_audit_creation_date              2013-03-05T15:49:32-0500
_audit_creation_method            fapswitch 2.2
_symmetry_space_group_name_H-M    P1
_symmetry_Int_Tables_number       1
_space_group_crystal_system       triclinic
_cell_length_a                    25.085248
_cell_length_b                    7.271119
_cell_length_c                    21.918139
_cell_angle_alpha                 90.165107
_cell_angle_beta                  110.437705
_cell_angle_gamma                 89.889934
_cell_volume                      3746.15027707

loop_
_atom_site_label
_atom_site_type_symbol
_atom_site_description
_atom_site_fract_x
_atom_site_fract_y
_atom_site_fract_z
_atom_type_partial_charge
O1    O     O_R   0.554350 0.505270 0.581390 -0.576630
O2    O     O_R   0.445650 0.005270 0.418610 -0.582939
O3    O     O_R   0.553380 0.177580 0.454800 -0.554643
O4    O     O_R   0.446620 0.677580 0.545200 -0.537220
C1    C     C_R   0.565919 0.344207 0.438489 0.954304
C2    C     C_R   0.434031 0.844301 0.561720 0.972250
O5    O     O_R   0.560970 0.175640 0.583140 -0.579350
O6    O     O_R   0.439030 0.675640 0.416860 -0.584561
O7    O     O_R   0.453290 0.004120 0.547860 -0.586315
O8    O     O_R   0.546710 0.504120 0.452140 -0.583657
C3    C     C_R   0.576069 0.344136 0.607564 0.932311
C4    C     C_R   0.423954 0.843932 0.392411 0.902134
O9    O     O_3   0.464660 0.338800 0.488280 -0.262572
O10   O     O_3   0.535340 0.838800 0.511720 -0.263921
V1    V     V_3+5 0.506560 0.064420 0.502170 1.251254
V2    V     V_3+5 0.493440 0.564420 0.497830 1.256098
C5    C     C_R   0.149447 0.007020 0.289498 -0.235259
C6    C     C_R   0.850825 0.501587 0.710266 -0.227404
H1    H     H_    0.235762 0.001630 0.401427 0.158386
H2    H     H_    0.764664 0.491476 0.598172 0.160040
H3    H     H_    0.138471 0.039481 0.331971 0.184836
H4    H     H_    0.861868 0.531959 0.667750 0.184160
C7    C     C_R   0.119815 0.944259 0.173722 -0.272478
C8    C     C_R   0.880279 0.443340 0.826225 -0.273006
C9    C     C_R   0.396886 0.824913 0.273412 -0.183689
C10   C     C_R   0.603051 0.330001 0.726579 -0.168920
C11   C     C_R   0.359407 0.854856 0.210487 -0.086490
C12   C     C_R   0.640560 0.361538 0.789411 -0.099022
C13   C     C_R   0.302801 0.904829 0.198467 0.169124
C14   C     C_R   0.697274 0.409277 0.801309 0.175153
C15   C     C_R   0.281035 0.908141 0.250631 0.021718
C16   C     C_R   0.719090 0.408516 0.749177 0.024089
C17   C     C_R   0.321556 0.895152 0.315802 0.071792
C18   C     C_R   0.678601 0.393539 0.684034 0.059140
C19   C     C_R   0.221764 0.931214 0.241751 0.129260
C20   C     C_R   0.778389 0.429795 0.758047 0.128493
C21   C     C_R   0.206376 0.972392 0.296746 0.097689
C22   C     C_R   0.793881 0.467630 0.702979 0.087181
C23   C     C_R   0.247513 0.972923 0.359219 -0.142476
C24   C     C_R   0.752825 0.465693 0.640449 -0.114361
C25   C     C_R   0.303704 0.928733 0.368835 -0.164601
C26   C     C_R   0.696583 0.422950 0.630918 -0.140523
C27   C     C_R   0.176802 0.904817 0.181355 -0.239552
C28   C     C_R   0.823269 0.404839 0.818560 -0.236237
C29   C     C_R   0.106057 0.995495 0.228534 0.350352
C30   C     C_R   0.894132 0.492354 0.771360 0.348992
C31   C     C_R   0.379555 0.852616 0.326649 -0.165188
C32   C     C_R   0.620497 0.353524 0.673290 -0.173532
H5    H     H_    0.184710 0.847297 0.140066 0.163520
H6    H     H_    0.815255 0.349180 0.859936 0.162671
H7    H     H_    0.440854 0.791677 0.280841 0.146941
H8    H     H_    0.558997 0.298833 0.719223 0.166353
H9    H     H_    0.375670 0.849291 0.170798 0.169762
H10   H     H_    0.624248 0.359145 0.829082 0.167125
H11   H     H_    0.333370 0.923944 0.418453 0.115653
H12   H     H_    0.666969 0.416210 0.581296 0.115773
C33   C     C_R   0.104192 0.776879 0.862946 -0.193418
C34   C     C_R   0.898385 0.283931 0.140333 -0.190307
H13   H     H_    0.076512 0.663255 0.863105 0.219751
H14   H     H_    0.927332 0.172424 0.141681 0.219140
C35   C     C_R   0.137776 0.765627 0.823327 0.362515
C36   C     C_R   0.865641 0.275339 0.180907 0.363600
C37   C     C_R   0.174094 0.914148 0.822692 -0.080964
C38   C     C_R   0.827363 0.420468 0.179900 -0.078183
C39   C     C_R   0.173679 0.072475 0.859498 -0.061930
C40   C     C_R   0.825654 0.574256 0.140257 -0.061075
H15   H     H_    0.201170 0.187465 0.859799 0.158723
H16   H     H_    0.797009 0.687546 0.138266 0.156694
C41   C     C_R   0.138613 0.083974 0.896967 -0.036966
C42   C     C_R   0.860242 0.583966 0.102086 -0.045344
H17   H     H_    0.139439 0.208314 0.924603 0.153575
H18   H     H_    0.857783 0.704940 0.072510 0.151977
C43   C     C_R   0.103656 0.935810 0.899462 -0.203602
C44   C     C_R   0.896731 0.438137 0.101237 -0.201446
N1    N     N_R   0.219488 0.054373 0.750815 -0.016894
N2    N     N_R   0.767558 0.570265 0.235270 -0.036002
N3    N     N_R   0.254374 0.047560 0.716870 0.005429
N4    N     N_R   0.732580 0.564135 0.269197 -0.008889
C45   C     C_R   0.285349 0.894002 0.716646 0.232336
C46   C     C_R   0.716296 0.400899 0.287136 0.205178
N5    N     N_R   0.279298 0.746385 0.751696 -0.037146
N6    N     N_R   0.736333 0.243789 0.269099 -0.028343
N7    N     N_R   0.244173 0.752527 0.785423 -0.035105
N8    N     N_R   0.771065 0.249803 0.234910 -0.025117
C47   C     C_R   0.213395 0.906543 0.785460 0.190683
C48   C     C_R   0.788062 0.413135 0.217834 0.182172
C49   C     C_R   0.342752 0.713664 0.664032 -0.220935
C50   C     C_R   0.682834 0.240791 0.368015 -0.162560
H19   H     H_    0.329727 0.592043 0.682560 0.239051
H20   H     H_    0.714988 0.136753 0.372657 0.199125
C51   C     C_R   0.376703 0.696177 0.625263 0.430947
C52   C     C_R   0.646898 0.220997 0.404446 0.374957
C53   C     C_R   0.394856 0.853711 0.600317 -0.372458
C54   C     C_R   0.604714 0.354920 0.400010 -0.357485
C55   C     C_R   0.376121 0.025136 0.614274 -0.259157
C56   C     C_R   0.600201 0.506284 0.358614 -0.196850
H21   H     H_    0.389059 0.146794 0.595828 0.250353
H22   H     H_    0.567993 0.610273 0.353840 0.189081
C57   C     C_R   0.341540 0.042360 0.652411 0.434605
C58   C     C_R   0.636451 0.527092 0.322635 0.404885
C59   C     C_R   0.324059 0.884944 0.677803 -0.135679
C60   C     C_R   0.678270 0.392086 0.326576 -0.135217
O11   O     O_R   0.953220 0.285790 0.047790 -0.590088
O12   O     O_R   0.046780 0.785790 0.952210 -0.590914
O13   O     O_R   0.939020 0.617570 0.916840 -0.584584
O14   O     O_R   0.060980 0.117570 0.083160 -0.585697
C61   C     C_R   0.924118 0.448664 0.892314 1.006013
C62   C     C_R   0.075900 0.948860 0.107673 1.004788
O15   O     O_R   0.946600 0.615450 0.045180 -0.575436
O16   O     O_R   0.053400 0.115450 0.954820 -0.576484
O17   O     O_R   0.054370 0.786770 0.081410 -0.568228
O18   O     O_R   0.945630 0.286770 0.918590 -0.568517
C63   C     C_R   0.934495 0.447300 0.061727 0.955231
C64   C     C_R   0.065528 0.946744 0.938388 0.957639
O19   O     O_3   0.035300 0.454160 0.011680 -0.285247
O20   O     O_3   0.964700 0.954160 0.988320 -0.284576
V3    V     V_3+5 0.993450 0.728620 0.997830 1.236131
V4    V     V_3+5 0.006550 0.228620 0.002170 1.235033
N9    N     N_R   0.048105 0.027715 0.223699 0.229586
O21   O     O_R   0.036838 0.141492 0.263533 -0.343976
O22   O     O_R   0.007245 0.926411 0.185540 -0.392958
N10   N     N_R   0.952067 0.525014 0.776289 0.230894
O23   O     O_R   0.963160 0.636838 0.736027 -0.343433
O24   O     O_R   0.993214 0.426522 0.815276 -0.391991
N11   N     N_R   0.131777 0.608033 0.781547 0.247147
O25   O     O_R   0.131385 0.628260 0.722412 -0.322071
O26   O     O_R   0.116722 0.450144 0.798119 -0.364292
N12   N     N_R   0.874715 0.124208 0.225455 0.247654
O27   O     O_R   0.885046 0.156041 0.286978 -0.315735
O28   O     O_R   0.884023 0.960159 0.207495 -0.361028
N13   N     N_R   0.390615 0.516322 0.610057 0.242476
O29   O     O_R   0.436188 0.435736 0.648745 -0.430051
O30   O     O_R   0.363734 0.448745 0.552444 -0.393856
N14   N     N_R   0.655352 0.066996 0.447232 0.239437
O31   O     O_R   0.623829 0.921390 0.428072 -0.370804
O32   O     O_R   0.701524 0.056796 0.498198 -0.396047
N15   N     N_R   0.326141 0.221584 0.666589 0.231863
O33   O     O_R   0.284861 0.308248 0.622981 -0.372509
O34   O     O_R   0.346182 0.282934 0.726125 -0.407316
N16   N     N_R   0.628756 0.683788 0.281080 0.237695
O35   O     O_R   0.663930 0.821178 0.299411 -0.377895
O36   O     O_R   0.580064 0.708675 0.234672 -0.379592
I1    I     I_    0.263555 0.025372 0.104438 -0.431113
I2    I     I_    0.736710 0.533076 0.894938 -0.432860

loop_
_geom_bond_atom_site_label_1
_geom_bond_atom_site_label_2
_geom_bond_distance
_ccdc_geom_bond_type
C34   C36   1.407157 A    
C40   H16   1.082990 S    
C37   C39   1.405925 A    
C7    C29   1.409849 A    
C49   C51   1.402820 A    
C11   C13   1.398252 A    
C61   O18   1.339029 A    
O1    C3    1.334842 A    
O2    C4    1.335079 A    
N12   O27   1.301338 A    
O16   V4    1.994635 S    
C2    O7    1.335207 A    
C1    C54   1.496118 S    
O15   V3    1.998960 S    
C23   C25   1.387703 A    
O5    C3    1.336948 A    
O13   C61   1.339644 A    
C16   C20   1.439878 A    
O11   C63   1.337569 A    
N8    C48   1.359489 A    
H2    C24   1.084153 S    
N4    C46   1.359011 A    
C33   H13   1.081025 S    
C51   N13   1.421287 S    
C34   H14   1.080932 S    
C13   I1    2.138945 S    
C14   I2    2.138997 S    
O20   V3    1.773523 S    
C35   C37   1.417438 A    
O6    V2    1.994712 S    
C33   C43   1.406530 A    
C41   H17   1.082992 S    
C25   H11   1.082895 S    
C36   C38   1.420399 A    
C58   N16   1.430850 S    
C26   H12   1.082933 S    
C49   C59   1.398724 A    
N1    C47   1.357114 A    
C50   C52   1.405272 A    
C18   C26   1.404690 A    
C39   H15   1.083370 S    
C56   H22   1.083726 S    
C42   C44   1.403781 A    
C8    C61   1.482065 S    
C15   C17   1.438366 A    
C41   C43   1.403582 A    
C19   C27   1.420556 A    
C9    C31   1.394166 A    
C10   C32   1.394065 A    
O19   V4    1.774974 S    
C24   C26   1.387877 A    
C53   C55   1.401446 A    
C22   C24   1.397646 A    
O14   V4    1.994681 S    
O13   V3    1.992662 S    
C3    C32   1.483403 S    
C4    C31   1.483643 S    
C6    C30   1.400752 A    
C38   C48   1.496315 S    
N5    N7    1.333935 A    
N9    O22   1.301283 A    
C52   N14   1.429866 S    
C42   H18   1.083007 S    
N2    N4    1.334491 A    
N16   O35   1.300548 A    
C46   N6    1.359371 A    
C57   N15   1.422530 S    
C45   N5    1.360915 A    
C12   H10   1.082770 S    
C27   H5    1.075236 S    
N14   O32   1.300557 A    
N13   O30   1.301437 A    
C44   C63   1.491743 S    
C51   C53   1.413469 A    
C5    H3    1.084255 S    
C43   C64   1.489382 S    
C46   C60   1.495899 S    
C16   C18   1.438351 A    
O4    V2    1.994341 S    
C9    H7    1.084064 S    
C10   H8    1.083929 S    
O18   V4    1.979123 S    
N15   O34   1.301506 A    
O6    C4    1.337165 A    
C2    C53   1.505342 S    
C58   C60   1.415927 A    
N3    C45   1.360059 A    
O1    V2    1.980298 S    
C5    C21   1.403025 A    
C54   C56   1.407442 A    
O2    V1    1.979281 S    
N1    N3    1.332717 A    
H1    C23   1.084159 S    
O12   C64   1.336511 A    
O4    C2    1.332760 A    
N7    C47   1.359160 A    
C50   H20   1.083513 S    
N6    N8    1.333755 A    
C49   H19   1.072167 S    
N11   O25   1.301475 A    
C8    C28   1.408990 A    
C15   C19   1.440092 A    
C20   C28   1.420329 A    
O11   V4    1.972809 S    
C18   C32   1.423427 A    
N10   O24   1.301212 A    
N13   O29   1.300991 A    
N2    C48   1.359576 A    
O3    V1    1.998667 S    
C34   C44   1.404906 A    
O12   V3    1.975105 S    
C28   H6    1.075375 S    
C39   C41   1.399653 A    
O16   C64   1.341474 A    
C55   H21   1.070559 S    
C19   C21   1.419161 A    
C36   N12   1.436226 S    
C6    H4    1.084238 S    
C7    C27   1.409059 A    
C30   N10   1.439349 S    
C5    C29   1.400429 A    
O3    C1    1.333086 A    
N12   O28   1.301046 A    
C50   C60   1.407437 A    
N9    O21   1.301473 A    
C11   H9    1.082780 S    
C33   C35   1.407390 A    
N14   O31   1.300497 A    
N16   O36   1.300705 A    
O15   C63   1.341442 A    
C9    C11   1.388843 A    
N15   O33   1.301039 A    
C10   C12   1.388728 A    
C62   O17   1.339219 A    
O17   V3    1.978120 S    
C8    C30   1.410189 A    
C12   C14   1.398151 A    
C6    C22   1.403124 A    
C17   C25   1.404562 A    
C1    O8    1.330492 A    
C21   C23   1.397502 A    
O8    V2    1.977523 S    
C20   C22   1.418964 A    
C14   C16   1.428900 A    
C29   N9    1.439021 S    
C52   C54   1.414999 A    
C40   C42   1.401873 A    
O14   C62   1.339845 A    
C17   C31   1.423412 A    
C7    C62   1.482152 S    
C56   C58   1.404884 A    
O5    V1    1.992690 S    
C55   C57   1.404373 A    
O7    V1    1.979938 S    
C13   C15   1.428857 A    
O9    V2    1.775763 S    
N11   O26   1.300928 A    
O10   V1    1.774314 S    
C45   C59   1.499634 S    
C35   N11   1.439676 S    
N10   O23   1.301442 A    
C57   C59   1.410035 A    
C37   C47   1.484037 S    
C38   C40   1.409487 A    
