data_mof_unit_18736.cif
_audit_creation_date              2012-12-11T21:05:47-0500
_audit_creation_method            fapswitch 2.2
_symmetry_space_group_name_H-M    P1
_symmetry_Int_Tables_number       1
_space_group_crystal_system       triclinic
_cell_length_a                    36.348362
_cell_length_b                    39.513604
_cell_length_c                    8.391555
_cell_angle_alpha                 90.0
_cell_angle_beta                  93.568435
_cell_angle_gamma                 90.056364
_cell_volume                      12029.0375681

loop_
_atom_site_label
_atom_site_type_symbol
_atom_type_description
_atom_site_fract_x
_atom_site_fract_y
_atom_site_fract_z
_atom_type_partial_charge
Ba1   Ba    Ba6+2 0.000060 0.523150 0.844950 1.669227
Ba2   Ba    Ba6+2 0.000060 0.476850 0.344950 1.670082
Ba3   Ba    Ba6+2 0.500060 0.023150 0.844950 1.669114
Ba4   Ba    Ba6+2 0.500060 0.976850 0.344950 1.670448
C1    C     C_3   0.987974 0.691325 0.651352 -0.326332
C2    C     C_2   0.908422 0.634552 0.292701 -0.082999
C3    C     C_R   0.631202 0.815593 0.678350 0.595119
C4    C     C_2   0.092532 0.634298 0.395802 -0.087893
C5    C     C_2   0.090790 0.364935 0.893632 -0.086617
C6    C     C_2   0.592523 0.134303 0.395772 -0.088328
C7    C     C_2   0.590801 0.864948 0.893683 -0.086137
C8    C     C_3   0.058435 0.612908 0.415906 -0.113012
C9    C     C_3   0.057419 0.386992 0.914740 -0.078844
C10   C     C_3   0.558412 0.112928 0.415873 -0.112621
C11   C     C_3   0.557438 0.887013 0.914788 -0.079785
C12   C     C_1   0.081111 0.575185 0.210121 0.035395
C13   C     C_2   0.408332 0.865332 0.794589 -0.084361
C14   C     C_1   0.081183 0.424837 0.711364 0.036504
C15   C     C_1   0.581093 0.075187 0.210125 0.034806
C16   C     C_1   0.581192 0.924842 0.711373 0.036671
C17   C     C_2   0.107505 0.596754 0.175809 -0.094154
C18   C     C_2   0.107607 0.403150 0.678700 -0.088446
C19   C     C_2   0.607499 0.096743 0.175846 -0.094814
C20   C     C_2   0.607594 0.903139 0.678620 -0.088202
C21   C     C_2   0.114688 0.627621 0.275939 0.236385
C22   C     C_2   0.113510 0.371540 0.775565 0.230684
C23   C     C_2   0.614689 0.127610 0.275958 0.236176
C24   C     C_2   0.408418 0.134561 0.292722 -0.083267
C25   C     C_2   0.613503 0.871534 0.775527 0.230662
C26   C     C_R   0.742850 0.272864 0.961939 -0.047603
C27   C     C_R   0.739718 0.715755 0.568446 -0.050912
C28   C     C_R   0.242817 0.772914 0.962162 -0.047628
C29   C     C_R   0.239701 0.215781 0.568017 -0.050899
C30   C     C_R   0.776303 0.275128 0.059485 0.003214
C31   C     C_R   0.777369 0.725573 0.567994 0.000892
C32   C     C_R   0.276277 0.775169 0.059598 0.003243
C33   C     C_R   0.277367 0.225573 0.568013 0.000910
C34   C     C_R   0.782759 0.253068 0.192275 0.035180
C35   C     C_3   0.942195 0.386981 0.773974 -0.106988
C36   C     C_R   0.788019 0.759467 0.605395 0.038247
C37   C     C_R   0.282740 0.753097 0.192294 0.035132
C38   C     C_R   0.288033 0.259443 0.605854 0.038242
C39   C     C_3   0.895869 0.522531 0.142700 0.297897
C40   C     C_3   0.895948 0.477451 0.643900 0.292835
C41   C     C_3   0.395880 0.022539 0.142645 0.297811
C42   C     C_3   0.395954 0.977445 0.643863 0.292889
C43   C     C_R   0.739834 0.292955 0.819675 0.382907
C44   C     C_R   0.731380 0.680489 0.555757 0.378109
C45   C     C_R   0.239799 0.792982 0.819853 0.382973
C46   C     C_3   0.942049 0.612754 0.272978 -0.085140
C47   C     C_R   0.231335 0.180526 0.554900 0.378108
C48   C     C_R   0.840304 0.283397 0.262907 -0.053387
C49   C     C_R   0.851764 0.744635 0.556697 -0.064329
C50   C     C_R   0.340292 0.783412 0.262771 -0.053469
C51   C     C_R   0.351794 0.244591 0.557559 -0.064314
C52   C     C_R   0.264837 0.700762 0.333691 -0.120800
C53   C     C_R   0.270490 0.315976 0.709120 -0.103064
C54   C     C_R   0.764837 0.200766 0.333898 -0.120754
C55   C     C_R   0.770476 0.816035 0.708232 -0.103078
C56   C     C_R   0.238988 0.675841 0.363627 -0.066715
C57   C     C_3   0.442212 0.886969 0.774037 -0.109189
C58   C     C_R   0.243639 0.339459 0.745339 -0.057946
C59   C     C_R   0.738979 0.175860 0.363906 -0.066713
C60   C     C_R   0.743625 0.839518 0.744448 -0.057954
C61   C     C_R   0.814634 0.258497 0.294606 -0.105398
C62   C     C_R   0.825529 0.768352 0.596082 -0.099104
C63   C     C_R   0.314624 0.758511 0.294499 -0.105406
C64   C     C_R   0.325560 0.268307 0.596966 -0.099081
C65   C     C_3   0.862151 0.545371 0.133329 -0.344896
C66   C     C_3   0.862225 0.454558 0.635479 -0.338130
C67   C     C_3   0.362164 0.045381 0.133291 -0.344944
C68   C     C_3   0.442040 0.112759 0.272976 -0.082764
C69   C     C_3   0.362232 0.954551 0.635455 -0.338231
C70   C     C_3   0.103817 0.476899 0.048490 0.293357
C71   C     C_3   0.104068 0.522957 0.546744 0.291099
C72   C     C_3   0.603842 0.976914 0.048413 0.293445
C73   C     C_3   0.604056 0.022962 0.546738 0.291022
C74   C     C_3   0.137295 0.453767 0.059591 -0.339807
C75   C     C_3   0.137640 0.546033 0.557933 -0.334206
C76   C     C_3   0.637319 0.953780 0.059675 -0.339856
C77   C     C_3   0.637630 0.046035 0.557819 -0.334111
C78   C     C_3   0.004535 0.658963 0.589202 0.327845
C79   C     C_1   0.919395 0.424470 0.980154 0.028103
C80   C     C_3   0.992073 0.349745 0.096316 0.387424
C81   C     C_3   0.504763 0.159128 0.589297 0.326412
C82   C     C_3   0.492405 0.849424 0.095007 0.384981
C83   C     C_R   0.826615 0.343955 0.852633 0.610743
C84   C     C_R   0.822263 0.643502 0.462596 0.607711
C85   C     C_R   0.326591 0.843973 0.852644 0.610718
C86   C     C_R   0.322240 0.143518 0.462227 0.607721
C87   C     C_3   0.715841 0.264478 0.601658 0.249123
C88   C     C_3   0.680918 0.260102 0.494053 -0.304851
C89   C     C_3   0.697061 0.662757 0.756511 0.255577
C90   C     C_1   0.919100 0.575529 0.479560 0.036762
C91   C     C_3   0.659056 0.650529 0.796642 -0.313088
C92   C     C_3   0.215885 0.764372 0.602051 0.249295
C93   C     C_3   0.180842 0.759589 0.495880 -0.305296
C94   C     C_3   0.196887 0.162729 0.755101 0.255585
C95   C     C_3   0.158843 0.150511 0.794720 -0.313111
C96   C     C_1   0.419392 0.924474 0.980120 0.028601
C97   C     C_3   0.977606 0.314237 0.123834 -0.328252
C98   C     C_1   0.419092 0.075529 0.479553 0.036817
C99   C     C_2   0.893479 0.402543 0.015924 -0.096481
C100  C     C_2   0.893457 0.597751 0.515528 -0.086436
C101  C     C_2   0.393457 0.902561 0.015824 -0.095808
C102  C     C_2   0.393434 0.097742 0.515467 -0.086344
C103  C     C_2   0.886387 0.371650 0.915658 0.221241
C104  C     C_2   0.886665 0.628849 0.415365 0.218660
C105  C     C_2   0.386370 0.871665 0.915585 0.221719
C106  C     C_2   0.386653 0.128847 0.415348 0.218719
C107  C     C_R   0.803644 0.299704 0.024488 -0.085195
C108  C     C_3   0.488050 0.191373 0.651987 -0.326154
C109  C     C_R   0.804728 0.701226 0.531291 -0.086949
C110  C     C_R   0.303618 0.799736 0.024538 -0.085184
C111  C     C_R   0.304725 0.201224 0.531312 -0.086929
C112  C     C_R   0.799050 0.320191 0.887474 -0.100180
C113  C     C_R   0.794976 0.667194 0.501587 -0.096496
C114  C     C_R   0.299020 0.820218 0.887541 -0.100135
C115  C     C_R   0.294953 0.167212 0.501197 -0.096488
C116  C     C_R   0.767271 0.316278 0.786618 -0.087642
C117  C     C_R   0.758373 0.657263 0.516253 -0.093580
C118  C     C_R   0.267237 0.816300 0.786729 -0.087786
C119  C     C_3   0.477638 0.814134 0.125099 -0.327239
C120  C     C_R   0.258329 0.157299 0.515432 -0.093567
C121  C     C_R   0.835620 0.303826 0.126833 -0.014635
C122  C     C_R   0.841912 0.710910 0.524958 -0.013278
C123  C     C_R   0.335600 0.803850 0.126779 -0.014665
C124  C     C_R   0.341925 0.210886 0.525389 -0.013347
C125  C     C_3   0.003417 0.653864 0.098559 0.360892
C126  C     C_3   0.995836 0.341018 0.593963 0.325726
C127  C     C_3   0.503973 0.153412 0.097773 0.366124
C128  C     C_3   0.495560 0.840829 0.594618 0.325245
C129  C     C_2   0.942160 0.419774 0.864960 -0.273260
C130  C     C_R   0.862283 0.328351 0.091161 0.586557
C131  C     C_2   0.941529 0.579880 0.362814 -0.274286
C132  C     C_2   0.442169 0.919768 0.864979 -0.273018
C133  C     C_2   0.441532 0.079890 0.362855 -0.274784
C134  C     C_2   0.058115 0.580176 0.324273 -0.272174
C135  C     C_2   0.058104 0.419991 0.825460 -0.274614
C136  C     C_2   0.558080 0.080196 0.324205 -0.272283
C137  C     C_2   0.558141 0.920017 0.825589 -0.274280
C138  C     C_R   0.214556 0.750166 0.008776 0.025855
C139  C     C_R   0.212282 0.241292 0.585994 0.024846
C140  C     C_R   0.714591 0.250097 0.008457 0.025765
C141  C     C_R   0.868613 0.686693 0.487170 0.589625
C142  C     C_R   0.712286 0.741255 0.586426 0.024844
C143  C     C_R   0.257219 0.726546 0.219294 0.015171
C144  C     C_R   0.261010 0.283317 0.650314 0.021191
C145  C     C_R   0.757235 0.226521 0.219288 0.015256
C146  C     C_R   0.760999 0.783343 0.649855 0.021191
C147  C     C_R   0.222875 0.725589 0.129474 0.046355
C148  C     C_R   0.223113 0.274453 0.635134 0.046897
C149  C     C_R   0.722903 0.225538 0.129293 0.046265
C150  C     C_R   0.723108 0.774446 0.635119 0.046885
C151  C     C_R   0.177804 0.751524 0.943057 -0.096802
C152  C     C_R   0.362264 0.828370 0.091058 0.586713
C153  C     C_R   0.174300 0.235312 0.550347 -0.090083
C154  C     C_R   0.677845 0.251412 0.942496 -0.097002
C155  C     C_R   0.674297 0.735232 0.551210 -0.090092
C156  C     C_R   0.151978 0.726866 0.976259 -0.089757
C157  C     C_R   0.147788 0.259500 0.580799 -0.089370
C158  C     C_R   0.652028 0.226747 0.975666 -0.089607
C159  C     C_R   0.647781 0.759415 0.581669 -0.089392
C160  C     C_R   0.160919 0.700677 0.083988 -0.023502
C161  C     C_R   0.157993 0.291265 0.643232 -0.024857
C162  C     C_R   0.660958 0.200599 0.083655 -0.023345
C163  C     C_R   0.368624 0.186669 0.487569 0.589752
C164  C     C_R   0.657985 0.791217 0.643666 -0.024862
C165  C     C_R   0.196167 0.700344 0.163673 -0.084651
C166  C     C_R   0.195725 0.299093 0.667800 -0.080950
C167  C     C_R   0.696190 0.200299 0.163540 -0.084745
C168  C     C_R   0.695718 0.799083 0.667785 -0.080950
C169  C     C_R   0.204287 0.675482 0.281326 -0.038592
C170  C     C_R   0.206070 0.331603 0.723813 -0.034392
C171  C     C_R   0.704287 0.175479 0.281449 -0.038554
C172  C     C_R   0.706058 0.831627 0.723353 -0.034356
C173  C     C_3   0.017751 0.688612 0.055487 -0.312931
C174  C     C_2   0.908329 0.365334 0.794572 -0.084421
C175  C     C_3   0.010462 0.307907 0.530810 -0.319690
C176  C     C_3   0.517991 0.188418 0.057161 -0.313652
C177  C     C_3   0.510526 0.807917 0.530792 -0.318557
C178  C     C_R   0.177214 0.651244 0.316434 0.592755
C179  C     C_R   0.178604 0.355478 0.758241 0.591802
C180  C     C_R   0.677209 0.151248 0.316594 0.592904
C181  C     C_R   0.678592 0.855500 0.757780 0.591724
C182  C     C_R   0.134733 0.675740 0.119216 0.592447
C183  C     C_R   0.131211 0.315642 0.677918 0.595191
C184  C     C_R   0.634769 0.175672 0.118944 0.592202
H1    H     H_    0.981616 0.641699 0.548733 0.015310
H2    H     H_    0.869744 0.429043 0.681639 0.092014
H3    H     H_    0.335529 0.293759 0.616018 0.067436
H4    H     H_    0.964837 0.437052 0.848975 0.075490
H5    H     H_    0.963690 0.562201 0.344665 0.072975
H6    H     H_    0.464847 0.937046 0.849003 0.075422
H7    H     H_    0.463703 0.062220 0.344756 0.072977
H8    H     H_    0.035110 0.563207 0.339135 0.075259
H9    H     H_    0.035963 0.437682 0.843647 0.074213
H10   H     H_    0.535064 0.063238 0.339005 0.075415
H11   H     H_    0.536027 0.937730 0.843912 0.074016
H12   H     H_    0.026558 0.635463 0.098646 0.053262
H13   H     H_    0.369679 0.070974 0.178689 0.076439
H14   H     H_    0.019629 0.357874 0.627368 0.028216
H15   H     H_    0.527108 0.135064 0.093716 0.056570
H16   H     H_    0.519219 0.857667 0.630408 0.026176
H17   H     H_    0.993638 0.656104 0.220890 -0.084845
H18   H     H_    0.980988 0.334437 0.701467 -0.042159
H19   H     H_    0.494849 0.155014 0.221483 -0.090533
H20   H     H_    0.480323 0.833968 0.700694 -0.041723
H21   H     H_    0.033037 0.687083 0.945670 0.177103
H22   H     H_    0.027875 0.312660 0.429254 0.169968
H23   H     H_    0.532937 0.187436 0.946247 0.175291
H24   H     H_    0.369757 0.929033 0.681550 0.091957
H25   H     H_    0.528221 0.812967 0.430478 0.170657
H26   H     H_    0.994525 0.706728 0.037290 0.097755
H27   H     H_    0.987226 0.290919 0.492494 0.089644
H28   H     H_    0.494641 0.206495 0.041952 0.098082
H29   H     H_    0.487466 0.790905 0.490482 0.089279
H30   H     H_    0.905891 0.519864 0.269059 0.006634
H31   H     H_    0.906076 0.480240 0.770052 0.005867
H32   H     H_    0.405913 0.019881 0.268994 0.006566
H33   H     H_    0.406091 0.980229 0.770008 0.005730
H34   H     H_    0.917462 0.534466 0.073427 0.077464
H35   H     H_    0.851093 0.547673 0.007392 0.132552
H36   H     H_    0.917506 0.465521 0.574658 0.078366
H37   H     H_    0.417466 0.034468 0.073316 0.077399
H38   H     H_    0.417508 0.965519 0.574579 0.078347
H39   H     H_    0.721636 0.240050 0.664855 0.040634
H40   H     H_    0.739114 0.270632 0.526312 0.047202
H41   H     H_    0.676356 0.282716 0.416890 0.126783
H42   H     H_    0.683371 0.237556 0.418215 0.066736
H43   H     H_    0.656771 0.256513 0.566990 0.119406
H44   H     H_    0.702897 0.686863 0.822400 0.037973
H45   H     H_    0.717704 0.643333 0.797943 0.047836
H46   H     H_    0.851106 0.452076 0.509702 0.140665
H47   H     H_    0.652488 0.626218 0.734751 0.131663
H48   H     H_    0.658411 0.646620 0.927496 0.071935
H49   H     H_    0.637942 0.669652 0.758261 0.119838
H50   H     H_    0.222062 0.740058 0.665516 0.040178
H51   H     H_    0.238917 0.770642 0.525631 0.047698
H52   H     H_    0.175922 0.782027 0.418081 0.126642
H53   H     H_    0.183331 0.736951 0.420583 0.066724
H54   H     H_    0.156944 0.755942 0.569994 0.119701
H55   H     H_    0.202713 0.186801 0.821286 0.037992
H56   H     H_    0.217491 0.143271 0.796532 0.047842
H57   H     H_    0.351092 0.047670 0.007370 0.132534
H58   H     H_    0.152282 0.126233 0.732519 0.131650
H59   H     H_    0.158125 0.146542 0.925508 0.071923
H60   H     H_    0.137765 0.169667 0.756334 0.119831
H61   H     H_    0.351103 0.952081 0.509688 0.140656
H62   H     H_    0.093987 0.479465 0.921894 0.004974
H63   H     H_    0.094475 0.520132 0.419991 0.004370
H64   H     H_    0.594061 0.979500 0.921766 0.005063
H65   H     H_    0.970142 0.368291 0.121227 0.070963
H66   H     H_    0.594440 0.020138 0.420011 0.004488
H67   H     H_    0.082002 0.465274 0.117565 0.078315
H68   H     H_    0.082125 0.534725 0.614372 0.078273
H69   H     H_    0.581999 0.965280 0.117300 0.078126
H70   H     H_    0.582126 0.034729 0.614443 0.078430
H71   H     H_    0.159082 0.464029 0.985985 0.136413
H72   H     H_    0.159601 0.535469 0.486282 0.127597
H73   H     H_    0.659139 0.964057 0.986286 0.136403
H74   H     H_    0.659575 0.035472 0.486070 0.127563
H75   H     H_    0.129542 0.428120 0.015692 0.081084
H76   H     H_    0.481914 0.141912 0.547402 0.014869
H77   H     H_    0.130131 0.571541 0.511792 0.091166
H78   H     H_    0.629582 0.928142 0.015613 0.081008
H79   H     H_    0.630114 0.071544 0.511729 0.091312
H80   H     H_    0.148266 0.451722 0.185749 0.133013
H81   H     H_    0.148280 0.548464 0.684394 0.138260
H82   H     H_    0.648239 0.951713 0.185895 0.133012
H83   H     H_    0.648296 0.048461 0.684248 0.138277
H84   H     H_    0.020624 0.666377 0.486431 -0.041770
H85   H     H_    0.997984 0.351158 0.968122 -0.109632
H86   H     H_    0.521061 0.166721 0.487418 -0.039364
H87   H     H_    0.470440 0.868172 0.116366 0.067674
H88   H     H_    0.498860 0.850201 0.967361 -0.107483
H89   H     H_    0.971840 0.704207 0.552521 0.126817
H90   H     H_    0.955747 0.308031 0.029871 0.083448
H91   H     H_    0.471898 0.204289 0.553311 0.126696
H92   H     H_    0.456140 0.807573 0.030149 0.082216
H93   H     H_    0.969348 0.685562 0.747507 0.164586
H94   H     H_    0.965376 0.312664 0.241183 0.168050
H95   H     H_    0.469416 0.185458 0.747924 0.165198
H96   H     H_    0.464866 0.813206 0.241397 0.170099
H97   H     H_    0.036908 0.698069 0.153868 0.092194
H98   H     H_    0.840514 0.534684 0.206512 0.136455
H99   H     H_    0.027388 0.294971 0.627107 0.121847
H100  H     H_    0.537386 0.197552 0.155470 0.092739
H101  H     H_    0.527254 0.794857 0.627336 0.121273
H102  H     H_    0.876681 0.407135 0.116302 0.102181
H103  H     H_    0.877394 0.593715 0.618741 0.105523
H104  H     H_    0.376645 0.907164 0.116142 0.101862
H105  H     H_    0.377352 0.093692 0.618606 0.105370
H106  H     H_    0.763437 0.331351 0.678943 0.143078
H107  H     H_    0.750547 0.630895 0.502715 0.141657
H108  H     H_    0.263407 0.831355 0.679023 0.143054
H109  H     H_    0.840629 0.465314 0.708548 0.124557
H110  H     H_    0.250484 0.130943 0.501564 0.141645
H111  H     H_    0.096598 0.657234 0.465963 0.074260
H112  H     H_    0.094118 0.341815 0.962934 0.086253
H113  H     H_    0.596595 0.157242 0.465905 0.074186
H114  H     H_    0.594134 0.841837 0.963050 0.086255
H115  H     H_    0.124462 0.728946 0.919695 0.116393
H116  H     H_    0.119052 0.253244 0.553482 0.118166
H117  H     H_    0.624520 0.228795 0.918893 0.116434
H118  H     H_    0.619041 0.753127 0.554696 0.118158
H119  H     H_    0.167452 0.772326 0.870994 0.146487
H120  H     H_    0.340535 0.034705 0.206551 0.136503
H121  H     H_    0.164247 0.212562 0.491823 0.143182
H122  H     H_    0.667471 0.272186 0.870289 0.146632
H123  H     H_    0.664236 0.712448 0.493018 0.143187
H124  H     H_    0.904254 0.342544 0.723354 0.081844
H125  H     H_    0.904381 0.656973 0.218920 0.096418
H126  H     H_    0.404261 0.842537 0.723408 0.081662
H127  H     H_    0.404386 0.156994 0.219009 0.096368
H128  H     H_    0.864202 0.286380 0.345567 0.116588
H129  H     H_    0.880070 0.752961 0.551097 0.116158
H130  H     H_    0.364199 0.786382 0.345305 0.116504
H131  H     H_    0.340644 0.965300 0.708585 0.124542
H132  H     H_    0.380114 0.252900 0.552287 0.116133
H133  H     H_    0.291050 0.698683 0.400205 0.071275
H134  H     H_    0.298650 0.324000 0.732274 0.069732
H135  H     H_    0.791042 0.198702 0.400566 0.071232
H136  H     H_    0.798636 0.824090 0.731045 0.069735
H137  H     H_    0.010157 0.708799 0.696579 0.092852
H138  H     H_    0.000236 0.295466 0.118519 0.098835
H139  H     H_    0.510147 0.208885 0.697658 0.092528
H140  H     H_    0.500223 0.795230 0.123742 0.098988
H141  H     H_    0.246277 0.656887 0.453326 0.123126
H142  H     H_    0.869659 0.570959 0.178807 0.076558
H143  H     H_    0.252551 0.364035 0.790242 0.122557
H144  H     H_    0.746256 0.156931 0.453790 0.123081
H145  H     H_    0.752535 0.864121 0.789007 0.122568
H146  H     H_    0.124271 0.592127 0.075365 0.092437
H147  H     H_    0.125053 0.408037 0.580773 0.095425
H148  H     H_    0.624269 0.092109 0.075422 0.092680
H149  H     H_    0.625021 0.908012 0.580615 0.095474
H150  H     H_    0.820100 0.244382 0.403379 0.061172
H151  H     H_    0.835482 0.793819 0.614780 0.067440
H152  H     H_    0.320098 0.744379 0.403166 0.061208
N1    N     N_R   0.857819 0.347734 0.954018 -0.427954
N2    N     N_R   0.858653 0.653407 0.454698 -0.423018
N3    N     N_R   0.357798 0.847751 0.953956 -0.427937
N4    N     N_R   0.358645 0.153404 0.454706 -0.423019
N5    N     N_R   0.142888 0.651694 0.235741 -0.428925
N6    N     N_R   0.141637 0.347195 0.736773 -0.426040
N7    N     N_R   0.642896 0.151671 0.235737 -0.428896
N8    N     N_R   0.641627 0.847183 0.736749 -0.426067
O1    O     O_2   0.072110 0.546320 0.923350 -0.454059
O2    O     O_3   0.971872 0.356523 0.477371 -0.559936
O3    O     O_3   0.474763 0.143891 0.988303 -0.572219
O4    O     O_3   0.471932 0.856537 0.477385 -0.559180
O5    O     O_3   0.958050 0.483830 0.034350 -0.495687
O6    O     O_3   0.958050 0.516170 0.534350 -0.496847
O7    O     O_3   0.458050 0.983830 0.034350 -0.495744
O8    O     O_3   0.458050 0.016170 0.534350 -0.496841
O9    O     O_2   0.822758 0.361409 0.732483 -0.587405
O10   O     O_2   0.813528 0.614134 0.434247 -0.597565
O11   O     O_2   0.322738 0.861421 0.732515 -0.587461
O12   O     O_2   0.072110 0.453680 0.423350 -0.457608
O13   O     O_2   0.313494 0.114165 0.433562 -0.597549
O14   O     O_2   0.104535 0.675540 0.046742 -0.606155
O15   O     O_2   0.098522 0.308839 0.654912 -0.619020
O16   O     O_2   0.604592 0.175440 0.046281 -0.606309
O17   O     O_2   0.598512 0.808755 0.655747 -0.619004
O18   O     O_2   0.889682 0.332207 0.181401 -0.594777
O19   O     O_2   0.900892 0.695209 0.484812 -0.622871
O20   O     O_2   0.389665 0.832223 0.181223 -0.595002
O21   O     O_2   0.400915 0.195165 0.485525 -0.622699
O22   O     O_2   0.184121 0.629862 0.419164 -0.590983
O23   O     O_2   0.572110 0.046320 0.923350 -0.454212
O24   O     O_2   0.187601 0.383504 0.808596 -0.595361
O25   O     O_2   0.684099 0.129894 0.419480 -0.590922
O26   O     O_2   0.687588 0.883555 0.807756 -0.595409
O27   O     O_3   0.042000 0.516250 0.155330 -0.495689
O28   O     O_3   0.042000 0.483750 0.655330 -0.495513
O29   O     O_3   0.542000 0.016250 0.155330 -0.495616
O30   O     O_3   0.542000 0.983750 0.655330 -0.495585
O31   O     O_3   0.012540 0.574900 0.645500 -0.469526
O32   O     O_3   0.012540 0.425100 0.145500 -0.477863
O33   O     O_3   0.512540 0.074900 0.645500 -0.469412
O34   O     O_2   0.572110 0.953680 0.423350 -0.457488
O35   O     O_3   0.512540 0.925100 0.145500 -0.477242
O36   O     O_2   0.079521 0.597617 0.740516 -0.465038
O37   O     O_2   0.078040 0.399811 0.245308 -0.478731
O38   O     O_2   0.579535 0.097590 0.740376 -0.465243
O39   O     O_2   0.578028 0.899822 0.245298 -0.478742
O40   O     O_3   0.114052 0.508671 0.110150 -0.631002
O41   O     O_3   0.114088 0.491334 0.610413 -0.627662
O42   O     O_3   0.614057 0.008679 0.110221 -0.630938
O43   O     O_3   0.614085 0.991338 0.610376 -0.627691
O44   O     O_3   0.027571 0.643531 0.709435 -0.555855
O45   O     O_3   0.885936 0.509120 0.580537 -0.625840
O46   O     O_3   0.023916 0.355996 0.196974 -0.576112
O47   O     O_3   0.527598 0.143525 0.709730 -0.556107
O48   O     O_3   0.523919 0.855991 0.197132 -0.575177
O49   O     O_2   0.928110 0.546600 0.766510 -0.455854
O50   O     O_2   0.928110 0.453400 0.266510 -0.454514
O51   O     O_2   0.428110 0.046600 0.766510 -0.455908
O52   O     O_2   0.428110 0.953400 0.266510 -0.454419
O53   O     O_3   0.987780 0.574950 0.044470 -0.471916
O54   O     O_3   0.987780 0.425050 0.544470 -0.472400
O55   O     O_3   0.487780 0.074950 0.044470 -0.472749
O56   O     O_3   0.885898 0.490772 0.080020 -0.631489
O57   O     O_3   0.487780 0.925050 0.544470 -0.471855
O58   O     O_2   0.921632 0.599003 0.945187 -0.482588
O59   O     O_2   0.920392 0.402933 0.451836 -0.456354
O60   O     O_2   0.421660 0.099072 0.944958 -0.482575
O61   O     O_2   0.420410 0.902908 0.451820 -0.456108
O62   O     O_3   0.710100 0.290995 0.709739 -0.654482
O63   O     O_3   0.697471 0.667486 0.589792 -0.655618
O64   O     O_3   0.210090 0.790950 0.709800 -0.654394
O65   O     O_3   0.197390 0.167533 0.588461 -0.655629
O66   O     O_3   0.385937 0.009118 0.580549 -0.625866
O67   O     O_3   0.385901 0.990776 0.080029 -0.631550
O68   O     O_3   0.974687 0.643884 0.987778 -0.571249
P1    P     P_3+3 0.075650 0.535480 0.098240 0.989690
P2    P     P_3+3 0.954519 0.393270 0.561851 0.989754
P3    P     P_3+3 0.455176 0.107063 0.061890 0.965244
P4    P     P_3+3 0.454534 0.893259 0.561890 0.990615
P5    P     P_3+3 0.044584 0.392614 0.126672 0.966329
P6    P     P_3+3 0.045661 0.606790 0.627844 0.985053
P7    P     P_3+3 0.544573 0.892604 0.126691 0.966544
P8    P     P_3+3 0.545660 0.106796 0.627858 0.984754
P9    P     P_3+3 0.075650 0.464520 0.598240 0.994000
P10   P     P_3+3 0.575650 0.035480 0.098240 0.989505
P11   P     P_3+3 0.575650 0.964520 0.598240 0.994036
P12   P     P_3+3 0.924520 0.535770 0.591580 0.994130
P13   P     P_3+3 0.924520 0.464230 0.091580 0.986491
P14   P     P_3+3 0.424520 0.035770 0.591580 0.994158
P15   P     P_3+3 0.424520 0.964230 0.091580 0.986659
P16   P     P_3+3 0.955172 0.607065 0.061859 0.965341

loop_
_geom_bond_atom_site_label_1
_geom_bond_atom_site_label_2
_ccdc_geom_bond_type
O58   P16   D    
C3    C164  A    
Ba1   O31   S    
C80   C97   S    
C69   H24   S    
C133  H7    S    
C61   H150  S    
C37   C63   A    
C35   P2    S    
C161  C183  A    
C97   H94   S    
C162  C184  A    
C9    C135  S    
C160  C182  A    
O42   P10   S    
C81   H86   S    
C14   P9    S    
C33   C38   A    
C5    C9    S    
C127  O3    S    
C13   C57   S    
C7    C11   S    
C107  C121  A    
C74   H71   S    
C71   O41   S    
Ba3   P10   S    
C40   C66   S    
C12   P1    S    
Ba1   P12   S    
C21   N5    S    
C126  H14   S    
Ba4   O34   S    
C65   H98   S    
C90   C100  D    
Ba3   O23   S    
C154  H122  S    
C130  N1    Am   
C5    C22   D    
C179  N6    Am   
C19   C23   S    
Ba1   O49   S    
C179  O24   D    
O61   P4    D    
C97   H90   S    
C65   H142  S    
C39   H34   S    
Ba4   O7    S    
C125  O68   S    
C138  C147  A    
C17   H146  S    
C15   C19   D    
C94   H56   S    
C128  C177  S    
C148  C166  A    
C142  C150  A    
C36   C146  A    
C41   H37   S    
C95   H58   S    
C151  H119  S    
C18   H147  S    
C27   C44   A    
C92   H51   S    
C67   H57   S    
C72   H64   S    
C178  O22   D    
C126  O2    S    
C35   C174  S    
C66   H2    S    
C46   P16   S    
C166  C170  A    
C1    H137  S    
C62   H151  S    
C12   C134  D    
C13   C105  D    
C123  C152  A    
C142  C155  A    
C19   H148  S    
C81   O47   S    
O56   P13   S    
Ba3   O30   S    
C82   O48   S    
C46   C131  S    
C82   H87   S    
C152  N3    Am   
C79   P13   S    
C31   C36   A    
C116  H106  S    
C63   H152  S    
C1    C78   S    
C2    H125  S    
C173  H97   S    
C145  C149  A    
O52   P15   D    
C175  H99   S    
C31   C109  A    
C25   N8    S    
O47   P8    S    
C156  H115  S    
C80   O46   S    
C87   O62   S    
C94   C95   S    
Ba1   O5    S    
C99   C103  S    
C50   H130  S    
C163  O21   D    
C71   C75   S    
C157  C161  A    
C48   C61   A    
O12   P9    D    
C6    C23   D    
C12   C17   D    
C55   H136  S    
C41   C67   S    
C9    P5    S    
C81   C108  S    
C127  H19   S    
C75   H81   S    
C79   C99   D    
C76   H78   S    
C28   C32   A    
C182  N5    Am   
C119  H140  S    
C91   H49   S    
C24   H127  S    
C5    H112  S    
O41   P9    S    
O34   P11   D    
C93   H54   S    
C20   C25   S    
C181  O26   D    
C37   C143  A    
Ba2   O27   S    
C15   P10   S    
C181  N8    Am   
Ba2   O54   S    
C180  O25   D    
O2    P2    S    
C89   C91   S    
C11   C137  S    
C152  O20   D    
O36   P6    D    
C69   H131  S    
C122  C141  A    
Ba4   O29   S    
C69   H61   S    
O5    P13   S    
C26   C30   A    
C16   P11   S    
Ba2   O6    S    
O1    P1    D    
C6    C10   S    
C44   C117  A    
C109  C122  A    
C73   O43   S    
C64   H3    S    
C24   C106  D    
O49   P12   D    
C111  C124  A    
C112  C116  A    
C65   H35   S    
C98   C133  D    
C143  C147  A    
C132  H6    S    
C40   O45   S    
C126  H18   S    
C70   O40   S    
C45   O64   S    
C184  O16   D    
C34   C61   A    
C89   O63   S    
C4    C8    S    
C90   C131  D    
C2    C46   S    
Ba4   O57   S    
C18   C22   S    
C109  C113  A    
C141  O19   D    
C43   C116  A    
C10   C136  S    
C111  C115  A    
C78   H1    S    
C177  H29   S    
C117  H107  S    
C8    C134  S    
C53   C144  A    
C39   H30   S    
C118  H108  S    
C91   H48   S    
C95   H59   S    
Ba3   Ba4   S    
C102  H105  S    
C120  H110  S    
C17   C21   S    
C97   H138  S    
C90   P12   S    
C14   C18   D    
C28   C138  A    
C16   C137  D    
C183  O15   D    
C72   C76   S    
C127  C176  S    
C134  H8    S    
C137  H11   S    
C72   H69   S    
C147  C165  A    
C52   C143  A    
C86   N4    Am   
C159  C164  A    
Ba2   P13   S    
C8    P6    S    
C88   H41   S    
C66   H109  S    
C28   C45   A    
C67   H120  S    
Ba3   O51   S    
C57   C132  S    
O35   P7    S    
C175  H27   S    
C80   H65   S    
C77   H79   S    
C41   H32   S    
C165  C169  A    
C158  H117  S    
C177  H25   S    
C47   O65   S    
C42   C69   S    
C3    O17   D    
C105  N3    S    
Ba1   O28   S    
C121  C130  A    
C4    C21   D    
O68   P16   S    
Ba2   O12   S    
C38   C144  A    
C51   H132  S    
O27   P1    S    
C96   P15   S    
C51   C64   A    
C172  C181  A    
C29   C139  A    
C175  H22   S    
O46   P5    S    
C156  C160  A    
C119  H96   S    
Ba4   O8    S    
C87   H40   S    
C26   C140  A    
O40   P1    S    
C101  C105  S    
C158  C162  A    
O66   P14   S    
C124  C163  A    
C107  C112  A    
C40   H36   S    
C22   N6    S    
C127  H15   S    
C34   C145  A    
C70   H67   S    
O6    P12   S    
C100  H103  S    
O29   P10   S    
C32   C110  A    
C36   C62   A    
C80   H85   S    
C56   C169  A    
C177  H101  S    
C32   C37   A    
C24   C68   S    
C84   N2    Am   
O23   P10   D    
C71   H63   S    
Ba3   O8    S    
O50   P13   D    
C78   O44   S    
C174  H124  S    
C128  H16   S    
C73   H66   S    
Ba2   P9    S    
C144  C148  A    
C54   H135  S    
C176  H28   S    
O33   P8    S    
Ba1   O1    S    
C119  H92   S    
C7    H114  S    
C88   H43   S    
C89   H45   S    
C125  C173  S    
Ba4   P15   S    
C180  N7    Am   
C29   C33   A    
C52   C56   A    
C82   H88   S    
Ba3   O55   S    
Ba4   P11   S    
O3    P3    S    
C125  H17   S    
C60   H145  S    
C108  H139  S    
Ba1   O53   S    
C73   C77   S    
C85   N3    Am   
C96   C101  D    
C83   C112  A    
C163  N4    Am   
C89   H44   S    
C139  C148  A    
C27   C31   A    
C59   H144  S    
C81   H76   S    
C141  N2    Am   
C153  C157  A    
C100  C104  S    
C178  N5    Am   
C35   C129  S    
C55   C146  A    
C161  C166  A    
C48   H128  S    
C87   H39   S    
C49   H129  S    
C173  H26   S    
C170  C179  A    
C106  N4    S    
C23   N7    S    
C33   C111  A    
C29   C47   A    
C13   H126  S    
C159  H118  S    
C60   C172  A    
C83   N1    Am   
C110  C123  A    
O28   P9    S    
C108  H91   S    
O60   P3    D    
C93   H53   S    
O32   P5    S    
O4    P4    S    
C164  C168  A    
O7    P15   S    
O30   P11   S    
C70   C74   S    
C184  N7    Am   
C87   C88   S    
C129  H4    S    
C171  C180  A    
C20   H149  S    
C74   H75   S    
Ba3   P14   S    
C94   O65   S    
C92   H50   S    
C6    H113  S    
C53   C58   A    
C115  C120  A    
O54   P2    S    
C55   C60   A    
C42   H33   S    
C153  H121  S    
C1    H93   S    
C75   H72   S    
C44   O63   S    
C114  C118  A    
Ba2   O50   S    
C58   H143  S    
C10   P8    S    
C58   C170  A    
C77   H83   S    
C78   H84   S    
Ba1   Ba2   S    
C66   H46   S    
C173  H21   S    
C140  C149  A    
C157  H116  S    
C113  C117  A    
O45   P12   S    
Ba4   O35   S    
C155  H123  S    
C27   C142  A    
C16   C20   D    
C86   O13   D    
C15   C136  D    
Ba1   O6    S    
Ba4   O52   S    
C84   O10   D    
Ba2   O32   S    
C138  C151  A    
C47   C120  A    
C103  N1    S    
C54   C145  A    
C136  H10   S    
O48   P7    S    
O39   P7    D    
C77   H74   S    
C38   C64   A    
C30   C107  A    
O31   P6    S    
C160  C165  A    
C92   O64   S    
C40   H31   S    
C91   H47   S    
C3    N8    Am   
C70   H62   S    
C68   P3    S    
C139  C153  A    
C4    H111  S    
Ba3   O7    S    
C26   C43   A    
C1    H89   S    
C71   H68   S    
C49   C122  A    
C99   H102  S    
C50   C63   A    
C128  O4    S    
C167  C171  A    
C108  H95   S    
C74   H80   S    
C176  H100  S    
C176  H23   S    
O38   P8    D    
C131  H5    S    
C57   P4    S    
C41   O67   S    
O53   P16   S    
C88   H42   S    
C53   H134  S    
O59   P2    D    
C92   C93   S    
C149  C167  A    
Ba3   O33   S    
C42   H38   S    
C150  C168  A    
O57   P4    S    
C85   C114  A    
C49   C62   A    
C130  O18   D    
C110  C114  A    
C68   C133  S    
C43   O62   S    
C128  H20   S    
O43   P11   S    
C73   H70   S    
C103  C174  D    
O8    P14   S    
C155  C159  A    
C98   P14   S    
C140  C154  A    
C42   O66   S    
C56   H141  S    
C102  C106  S    
C54   C59   A    
C67   H13   S    
C93   H52   S    
C2    C104  D    
C39   O56   S    
C151  C156  A    
C30   C34   A    
C104  N2    S    
C76   H73   S    
Ba2   O5    S    
C182  O14   D    
C183  N6    Am   
C169  C178  A    
C48   C121  A    
C135  H9    S    
C59   C171  A    
C94   H55   S    
C50   C123  A    
O37   P5    D    
O67   P15   S    
C86   C115  A    
C84   C113  A    
C101  H104  S    
Ba1   P1    S    
O55   P3    S    
C85   O11   D    
C11   P7    S    
O44   P6    S    
C45   C118  A    
C75   H77   S    
C98   C102  D    
C76   H82   S    
C14   C135  D    
C79   C129  D    
C125  H12   S    
C126  C175  S    
C154  C158  A    
C96   C132  D    
C168  C172  A    
C162  C167  A    
C51   C124  A    
C7    C25   D    
C39   C65   S    
C146  C150  A    
C82   C119  S    
C72   O42   S    
O51   P14   D    
C95   H60   S    
C52   H133  S    
C83   O9    D    
