data_mof_unit_19213.cif
_audit_creation_date              2013-03-05T16:43:31-0500
_audit_creation_method            fapswitch 2.2
_symmetry_space_group_name_H-M    P1
_symmetry_Int_Tables_number       1
_space_group_crystal_system       triclinic
_cell_length_a                    10.489294
_cell_length_b                    10.635699
_cell_length_c                    9.868731
_cell_angle_alpha                 91.033721
_cell_angle_beta                  90.137926
_cell_angle_gamma                 89.166928
_cell_volume                      1100.6671697

loop_
_atom_site_label
_atom_site_type_symbol
_atom_site_description
_atom_site_fract_x
_atom_site_fract_y
_atom_site_fract_z
_atom_type_partial_charge
O1    O     O_R   0.500020 0.316790 0.614690 -0.628889
O2    O     O_R   0.500000 0.316760 0.385350 -0.649242
C1    C     C_R   0.501662 0.259759 0.498935 0.906976
O3    O     O_R   0.313960 0.499990 0.614650 -0.594525
O4    O     O_R   0.313940 0.499950 0.385310 -0.628159
C2    C     C_R   0.257474 0.504157 0.499792 0.937298
Zn1   Zn    Zn3+2 0.500010 0.500020 0.653130 0.977239
Zn2   Zn    Zn3+2 0.499990 0.499980 0.346870 0.992960
O5    O     O_R   0.500000 0.683240 0.614650 -0.597647
O6    O     O_R   0.499980 0.683210 0.385310 -0.594886
O7    O     O_R   0.686060 0.500050 0.614690 -0.634929
O8    O     O_R   0.686040 0.500010 0.385350 -0.574593
C3    C     C_R   0.489121 0.739330 0.501384 0.933879
C4    C     C_R   0.742564 0.501710 0.500246 0.886263
C5    C     C_3   0.044882 0.398883 0.549248 -0.201897
C6    C     C_3   0.960351 0.411193 0.421820 -0.153207
H1    H     H_    0.923797 0.335188 0.355078 0.158221
H2    H     H_    0.086000 0.310015 0.588920 0.156636
C7    C     C_3   0.877286 0.505884 0.500741 0.007498
C8    C     C_3   0.959316 0.494091 0.628478 -0.201432
C9    C     C_3   0.038531 0.603754 0.576915 0.015040
C10   C     C_3   0.953673 0.616993 0.450464 -0.222303
C11   C     C_3   0.039960 0.521860 0.371869 -0.102348
C12   C     C_3   0.122582 0.509326 0.499297 -0.000887
H3    H     H_    0.922971 0.483211 0.733159 0.164101
H4    H     H_    0.911724 0.705496 0.410735 0.136661
H5    H     H_    0.076471 0.533147 0.267330 0.171872
C13   C     C_R   0.532089 0.062998 0.611447 0.007810
C14   C     C_R   0.490933 0.127471 0.498367 -0.063033
C15   C     C_R   0.418433 0.066477 0.398496 -0.350486
H6    H     H_    0.374317 0.119373 0.317861 0.148718
C16   C     C_R   0.403037 0.936829 0.403037 -0.028865
C17   C     C_R   0.465863 0.871009 0.508047 -0.075410
C18   C     C_R   0.515647 0.936525 0.619286 0.070823
C19   C     C_3   0.637726 0.915677 0.695833 -0.607457
C20   C     C_3   0.660505 0.056528 0.678580 0.341807
H7    H     H_    0.618349 0.891445 0.802865 0.191128
H8    H     H_    0.703914 0.847658 0.645288 0.171443
H9    H     H_    0.660519 0.109170 0.776909 0.106800
C21   C     C_R   0.406551 0.439596 0.069668 0.046727
N1    N     N_R   0.499140 0.499140 0.142800 -0.152328
C22   C     C_R   0.582515 0.573145 0.074297 0.539154
C23   C     C_R   0.583723 0.570634 0.929262 -0.238658
H10   H     H_    0.653808 0.623588 0.875003 0.160446
N2    N     N_R   0.499140 0.499180 0.857150 -0.122591
C24   C     C_R   0.406951 0.439524 0.927279 0.195111
C25   C     C_3   0.377406 0.303058 0.917588 -0.435604
C26   C     C_3   0.376443 0.302753 0.072474 -0.236544
H11   H     H_    0.283808 0.287394 0.867512 0.233494
H12   H     H_    0.457374 0.246235 0.873479 0.181576
H13   H     H_    0.454821 0.245421 0.117231 0.147253
O9    O     O_3   0.762316 0.095518 0.593310 -0.588830
C27   C     C_3   0.796609 0.008852 0.488202 0.131266
H14   H     H_    0.712487 0.965517 0.438344 0.132046
H15   H     H_    0.860807 0.934573 0.529157 0.141273
C28   C     C_3   0.869346 0.076273 0.379200 -0.822798
H16   H     H_    0.955551 0.120393 0.423626 0.259573
H17   H     H_    0.899574 0.007935 0.298714 0.219482
H18   H     H_    0.806786 0.149094 0.333214 0.247025
O10   O     O_3   0.672775 0.639736 0.147419 -0.581438
C29   C     C_3   0.665238 0.769961 0.119739 0.088303
H19   H     H_    0.645983 0.821671 0.216489 0.163401
H20   H     H_    0.587633 0.797899 0.048190 0.106685
C30   C     C_3   0.792665 0.813598 0.065578 -0.866967
H21   H     H_    0.814959 0.764933 0.967859 0.245477
H22   H     H_    0.788489 0.916582 0.049001 0.222082
H23   H     H_    0.869686 0.792740 0.139659 0.268985
C31   C     C_2   0.248406 0.280387 0.136080 0.420149
H24   H     H_    0.231382 0.310727 0.239987 0.077455
O11   O     O_2   0.164368 0.225248 0.074366 -0.576512
C32   C     C_2   0.078663 0.713821 0.662933 0.401120
H25   H     H_    0.006847 0.770176 0.715824 0.047642
O12   O     O_2   0.190802 0.741274 0.673438 -0.543636
C33   C     C_2   0.322067 0.876358 0.297831 0.408376
H26   H     H_    0.304279 0.923677 0.202920 0.069976
O13   O     O_2   0.269135 0.777030 0.318190 -0.561149

loop_
_geom_bond_atom_site_label_1
_geom_bond_atom_site_label_2
_geom_bond_distance
_ccdc_geom_bond_type
C5    H2    1.110561 S    
N1    C22   1.372389 A    
C7    C8    1.530536 S    
C25   H11   1.111449 S    
C27   H14   1.111166 S    
C21   C24   1.405208 A    
C33   O13   1.220620 D    
C9    C32   1.498315 S    
Zn1   N2    2.013644 S    
C13   C14   1.385140 A    
C19   H7    1.111673 S    
C16   C33   1.483405 S    
C15   H6    1.081983 S    
O7    C4    1.277267 A    
C8    H3    1.110608 S    
C5    C6    1.543361 S    
C28   H16   1.110431 S    
C29   H20   1.116810 S    
C18   C19   1.500905 S    
C1    C14   1.413001 S    
C21   C26   1.494530 S    
O5    C3    1.280557 A    
C26   H13   1.111844 S    
C19   C20   1.532980 S    
C31   H24   1.083874 S    
C11   C12   1.532226 S    
C11   H5    1.110463 S    
C20   O9    1.431906 S    
C13   C18   1.362225 A    
C9    C10   1.538417 S    
O3    Zn1   1.987243 S    
C25   H12   1.111680 S    
C27   H15   1.111607 S    
C5    C8    1.546175 S    
C33   H26   1.085750 S    
C30   H23   1.110944 S    
C19   H8    1.108252 S    
Zn2   N1    2.013769 S    
O3    C2    1.278933 A    
C22   O10   1.384369 S    
C32   O12   1.219794 D    
C6    H1    1.105842 S    
N2    C24   1.361442 A    
O10   C29   1.417580 S    
O1    C1    1.283735 A    
C30   H22   1.110592 S    
C29   C30   1.522516 S    
Zn1   O7    1.988963 S    
C23   H10   1.081281 S    
C3    C17   1.418467 S    
C14   C15   1.399365 A    
C25   C26   1.528648 S    
Zn2   O8    1.987244 S    
C2    C12   1.415195 S    
C7    C10   1.528151 S    
C17   C18   1.394130 A    
C26   C31   1.507654 S    
C23   N2    1.366825 A    
Zn2   O6    1.978628 S    
C5    C12   1.528949 S    
O8    C4    1.278231 A    
C6    C11   1.541811 S    
C22   C23   1.431158 A    
O9    C27   1.418677 S    
C27   C28   1.516955 S    
Zn1   O5    1.992040 S    
C24   C25   1.489871 S    
C21   N1    1.364979 A    
O1    Zn1   1.978628 S    
C4    C7    1.414477 S    
C20   H9    1.111537 S    
O2    Zn2   1.992040 S    
O6    C3    1.286621 A    
O4    Zn2   1.988963 S    
C28   H18   1.110349 S    
C30   H21   1.110016 S    
O2    C1    1.283931 A    
C32   H25   1.084725 S    
C16   C17   1.416961 A    
C15   C16   1.392182 A    
O4    C2    1.276659 A    
C6    C7    1.526264 S    
C28   H17   1.110582 S    
C29   H19   1.110707 S    
C8    C9    1.536670 S    
C13   C20   1.500907 S    
C31   O11   1.221250 D    
C10   H4    1.110775 S    
C9    C12   1.523943 S    
C10   C11   1.546923 S    
