data_mof_unit_21719.cif
_audit_creation_date              2012-12-10T18:23:11-0500
_audit_creation_method            fapswitch 2.2
_symmetry_space_group_name_H-M    P1
_symmetry_Int_Tables_number       1
_space_group_crystal_system       triclinic
_cell_length_a                    14.981266
_cell_length_b                    14.023985
_cell_length_c                    10.527311
_cell_angle_alpha                 89.982998
_cell_angle_beta                  90.061277
_cell_angle_gamma                 90.059369
_cell_volume                      2211.75443309

loop_
_atom_site_label
_atom_site_type_symbol
_atom_type_description
_atom_site_fract_x
_atom_site_fract_y
_atom_site_fract_z
_atom_type_partial_charge
C1    C     C_R   0.326817 0.499967 0.497788 0.896791
C2    C     C_R   0.949944 0.646121 0.377386 -0.326455
C3    C     C_R   0.552135 0.797963 0.415489 0.018158
C4    C     C_R   0.447415 0.202118 0.583966 0.010600
C5    C     C_R   0.446569 0.797735 0.583032 -0.025892
C6    C     C_R   0.551946 0.202181 0.415123 -0.002539
C7    C     C_R   0.444292 0.898686 0.585011 -0.033329
C8    C     C_R   0.553103 0.101320 0.412046 0.010769
C9    C     C_R   0.553091 0.898780 0.412250 0.004843
C10   C     C_R   0.445230 0.101349 0.585609 -0.015080
C11   C     C_R   0.498927 0.949423 0.498829 0.012406
C12   C     C_R   0.673250 0.499988 0.501672 0.911386
C13   C     C_R   0.499109 0.050587 0.498836 -0.007559
C14   C     C_R   0.388949 0.950056 0.670121 0.059589
C15   C     C_R   0.606506 0.050722 0.324510 0.058116
C16   C     C_R   0.606504 0.949407 0.324625 0.056417
C17   C     C_R   0.390241 0.050835 0.671018 0.101000
C18   C     C_R   0.499250 0.500187 0.257587 0.975249
C19   C     C_R   0.501158 0.499771 0.742540 0.954162
C20   C     C_3   0.490465 0.590667 0.039352 0.458416
C21   C     C_3   0.510210 0.408983 0.961462 0.435459
C22   C     C_3   0.569326 0.553392 0.960250 0.437988
C23   C     C_R   0.953593 0.499215 0.501782 -0.049951
C24   C     C_3   0.431319 0.446378 0.040539 0.428607
C25   C     C_3   0.422864 0.535902 0.957526 -0.162572
C26   C     C_3   0.577703 0.463861 0.043104 -0.165067
C27   C     C_3   0.501320 0.498916 0.876959 -0.318181
C28   C     C_3   0.499395 0.500831 0.123418 -0.290832
C29   C     C_R   0.813909 0.572835 0.444949 -0.290767
C30   C     C_R   0.186346 0.427242 0.554625 -0.303077
C31   C     C_R   0.768866 0.500072 0.507337 -0.190096
C32   C     C_R   0.231334 0.499525 0.491258 -0.189967
C33   C     C_R   0.814550 0.428009 0.573603 0.484421
C34   C     C_R   0.046669 0.499663 0.495369 -0.048344
C35   C     C_R   0.185727 0.570051 0.422136 0.480507
C36   C     C_R   0.908188 0.425333 0.568372 -0.104814
C37   C     C_R   0.092092 0.573039 0.427817 -0.105087
C38   C     C_3   0.463202 0.750489 0.002583 -0.304623
C39   C     C_3   0.533228 0.248958 0.003274 -0.295604
C40   C     C_3   0.693746 0.645715 0.999600 -0.291965
C41   C     C_3   0.305012 0.355663 0.004026 -0.303311
C42   C     C_3   0.744130 0.393585 0.759300 -0.178689
C43   C     C_3   0.254649 0.597608 0.233344 -0.147379
C44   C     C_3   0.943023 0.263394 0.812084 -0.310922
C45   C     C_R   0.905855 0.573045 0.441640 0.085581
C46   C     C_3   0.057582 0.732168 0.181858 -0.300572
C47   C     C_R   0.094429 0.426250 0.556334 0.088337
C48   C     C_R   0.957412 0.351895 0.628601 0.555289
C49   C     C_R   0.042900 0.646219 0.367134 0.552299
C50   C     C_R   0.050419 0.352784 0.619775 -0.328247
H1    H     H_    0.776922 0.628215 0.395660 0.170989
H2    H     H_    0.357360 0.630916 0.844914 0.187091
H3    H     H_    0.697576 0.397040 0.026216 0.185158
H4    H     H_    0.643797 0.373767 0.162895 0.198008
H5    H     H_    0.389901 0.753605 0.988483 0.169170
H6    H     H_    0.498072 0.738093 0.910612 0.182655
H7    H     H_    0.484871 0.821263 0.038219 0.186231
H8    H     H_    0.493167 0.261649 0.090651 0.197535
H9    H     H_    0.605330 0.245807 0.026811 0.158504
H10   H     H_    0.513828 0.177923 0.965963 0.184312
H11   H     H_    0.735625 0.589062 0.042741 0.177878
H12   H     H_    0.223337 0.372593 0.605356 0.168830
H13   H     H_    0.655571 0.684105 0.074243 0.198815
H14   H     H_    0.739598 0.698151 0.955250 0.179255
H15   H     H_    0.339635 0.332669 0.915622 0.185654
H16   H     H_    0.253110 0.409573 0.981953 0.166022
H17   H     H_    0.270382 0.292151 0.042993 0.186772
H18   H     H_    0.804135 0.415513 0.814467 0.126215
H19   H     H_    0.710340 0.335707 0.812611 0.199392
H20   H     H_    0.696713 0.454203 0.752529 0.160972
H21   H     H_    0.287366 0.653357 0.174841 0.208777
H22   H     H_    0.194034 0.573276 0.181359 0.126302
H23   H     H_    0.088697 0.295227 0.661544 0.153350
H24   H     H_    0.302464 0.537621 0.243142 0.162497
H25   H     H_    0.891060 0.223082 0.864559 0.194870
H26   H     H_    0.952584 0.332549 0.862540 0.131052
H27   H     H_    0.005222 0.220480 0.815362 0.159574
H28   H     H_    0.994816 0.774070 0.177278 0.155465
H29   H     H_    0.049095 0.662294 0.132805 0.131609
H30   H     H_    0.109176 0.772641 0.128869 0.198017
H31   H     H_    0.368552 0.858345 0.815463 0.159639
H32   H     H_    0.286490 0.858978 0.703764 0.197768
H33   H     H_    0.641839 0.083370 0.143601 0.171726
H34   H     H_    0.911805 0.703856 0.335788 0.152941
H35   H     H_    0.727393 0.084081 0.249749 0.196765
H36   H     H_    0.640991 0.915945 0.143577 0.184193
H37   H     H_    0.727195 0.916500 0.248833 0.183897
H38   H     H_    0.268681 0.083107 0.743119 0.202367
H39   H     H_    0.352693 0.081517 0.851126 0.200225
H40   H     H_    0.592832 0.756857 0.350699 0.162959
H41   H     H_    0.407031 0.243225 0.649155 0.162591
H42   H     H_    0.406001 0.756106 0.647334 0.123655
H43   H     H_    0.592351 0.243389 0.349962 0.151268
H44   H     H_    0.314631 0.521685 0.842325 0.174852
N1    N     N_R   0.500000 0.750030 0.500000 -0.111327
N2    N     N_R   0.500000 0.249970 0.500000 -0.120113
N3    N     N_3   0.340415 0.573560 0.903398 -0.455185
N4    N     N_3   0.660185 0.427904 0.098878 -0.463112
N5    N     N_3   0.330226 0.901728 0.756277 -0.478495
N6    N     N_3   0.660580 0.102663 0.235716 -0.496373
N7    N     N_3   0.660373 0.897436 0.235721 -0.490139
N8    N     N_3   0.335230 0.102258 0.758989 -0.483884
O1    O     O_R   0.367850 0.580280 0.500030 -0.587218
O2    O     O_3   0.518251 0.317232 0.907466 -0.591532
O3    O     O_3   0.638061 0.607889 0.904193 -0.609741
O4    O     O_3   0.363517 0.391132 0.097607 -0.608885
O5    O     O_3   0.767222 0.358324 0.638208 -0.547453
O6    O     O_3   0.233082 0.637146 0.352766 -0.556187
O7    O     O_3   0.913948 0.275434 0.685351 -0.546442
O8    O     O_3   0.086419 0.722004 0.308974 -0.548466
O9    O     O_R   0.632150 0.419720 0.499970 -0.583575
O10   O     O_R   0.632150 0.580280 0.499970 -0.634200
O11   O     O_R   0.367850 0.419720 0.500030 -0.633650
O12   O     O_R   0.499970 0.580260 0.313950 -0.588668
O13   O     O_R   0.500030 0.419740 0.686050 -0.590769
O14   O     O_R   0.500030 0.580260 0.686050 -0.625328
O15   O     O_R   0.499970 0.419740 0.313950 -0.627769
O16   O     O_3   0.483291 0.681738 0.095481 -0.589507
Zn1   Zn    Zn3+2 0.500000 0.607200 0.500000 0.983528
Zn2   Zn    Zn3+2 0.500000 0.392800 0.500000 0.983204

loop_
_geom_bond_atom_site_label_1
_geom_bond_atom_site_label_2
_ccdc_geom_bond_type
C30   C32   A    
C21   C26   S    
C8    C13   A    
C23   C45   A    
H39   N8    S    
C34   C37   A    
H32   N5    S    
C2    H34   S    
C33   O5    S    
C15   N6    S    
C18   O12   A    
C20   O16   S    
C39   O2    S    
C41   H17   S    
C7    C11   A    
C43   H22   S    
C40   H13   S    
C3    H40   S    
C44   H27   S    
C35   C37   A    
C9    C16   A    
C46   H29   S    
C20   C25   S    
C10   C17   A    
C15   C16   A    
O11   Zn2   S    
H2    N3    S    
C42   H20   S    
C33   C36   A    
C44   H26   S    
C35   O6    S    
H37   N7    S    
C21   O2    S    
C7    C14   A    
C38   H5    S    
C31   C33   A    
C19   C27   S    
C42   O5    S    
C1    O1    A    
O12   Zn1   S    
C4    H41   S    
C44   O7    S    
C6    H43   S    
C43   H24   S    
C48   C50   A    
C48   O7    S    
C21   C27   S    
C4    N2    A    
C42   H18   S    
C14   C17   A    
C1    O11   A    
C5    N1    A    
C47   C50   A    
C2    C45   A    
C41   O4    S    
C32   C35   A    
C30   C47   A    
C14   N5    S    
C18   C28   S    
C24   C25   S    
C50   H23   S    
C5    C7    A    
C41   H15   S    
H31   N5    S    
H44   N3    S    
N1    Zn1   S    
C39   H8    S    
C42   H19   S    
C40   H11   S    
C29   C45   A    
O9    Zn2   S    
C44   H25   S    
C17   N8    S    
C3    C9    A    
C2    C49   A    
C38   H7    S    
C37   C49   A    
H38   N8    S    
C19   O13   A    
C23   C34   A    
C39   H9    S    
C9    C11   A    
C18   O15   A    
C26   N4    S    
C25   N3    S    
C20   C22   S    
C23   C36   A    
C8    C15   A    
C6    N2    A    
H33   N6    S    
C30   H12   S    
C12   C31   S    
O15   Zn2   S    
C24   O4    S    
C4    C10   A    
C12   O10   A    
C46   H28   S    
C29   H1    S    
C43   H21   S    
N2    Zn2   S    
O1    Zn1   S    
C24   C28   S    
C10   C13   A    
O10   Zn1   S    
C6    C8    A    
C41   H16   S    
H3    N4    S    
C25   C27   S    
C22   O3    S    
C20   C28   S    
C26   C28   S    
C40   H14   S    
O14   Zn1   S    
C22   C27   S    
C46   O8    S    
C29   C31   A    
H35   N6    S    
C46   H30   S    
C11   C13   A    
C19   O14   A    
C39   H10   S    
C36   C48   A    
C43   O6    S    
C1    C32   S    
C5    H42   S    
C38   O16   S    
C16   N7    S    
C38   H6    S    
O13   Zn2   S    
C22   C26   S    
C21   C24   S    
H4    N4    S    
C3    N1    A    
C34   C47   A    
H36   N7    S    
C12   O9    A    
C49   O8    S    
C40   O3    S    
