data_mof_unit_23985.cif
_audit_creation_date              2012-12-11T15:17:52-0500
_audit_creation_method            fapswitch 2.2
_symmetry_space_group_name_H-M    P1
_symmetry_Int_Tables_number       1
_space_group_crystal_system       monoclinic
_cell_length_a                    15.726961
_cell_length_b                    15.726961
_cell_length_c                    34.480575
_cell_angle_alpha                 90.0
_cell_angle_beta                  90.0
_cell_angle_gamma                 120.000217
_cell_volume                      7385.73636213

loop_
_atom_site_label
_atom_site_type_symbol
_atom_type_description
_atom_site_fract_x
_atom_site_fract_y
_atom_site_fract_z
_atom_type_partial_charge
C1    C     C_R   0.577880 0.442041 0.554655 0.553042
C2    C     C_R   0.497239 0.983026 0.212646 0.352282
C3    C     C_3   0.330705 0.347178 0.561670 0.019135
C4    C     C_3   0.243904 0.346751 0.582173 -0.272289
C5    C     C_3   0.184888 0.372518 0.554227 -0.487142
C6    C     C_3   0.652820 0.983527 0.561669 0.019134
C7    C     C_3   0.653246 0.897151 0.582173 -0.272289
C8    C     C_3   0.627479 0.812368 0.554227 -0.487142
C9    C     C_3   0.655459 0.886510 0.099420 0.013376
C10   C     C_3   0.764643 0.948158 0.109425 -0.269353
C11   C     C_3   0.805991 0.883580 0.122899 -0.484596
C12   C     C_3   0.231050 0.344540 0.099420 0.013376
C13   C     C_R   0.485787 0.502760 0.212646 0.352282
C14   C     C_3   0.183514 0.235356 0.109425 -0.269352
C15   C     C_3   0.077588 0.194008 0.122899 -0.484596
C16   C     C_3   0.113489 0.768949 0.099420 0.013376
C17   C     C_3   0.051842 0.816484 0.109424 -0.269352
C18   C     C_3   0.116420 0.922411 0.122898 -0.484595
C19   C     C_3   0.086519 0.330750 0.895676 0.019787
C20   C     C_3   0.024481 0.223967 0.882518 -0.265569
C21   C     C_3   0.088984 0.184254 0.867238 -0.483892
C22   C     C_3   0.669251 0.755769 0.895676 0.019787
C23   C     C_3   0.776033 0.800514 0.882519 -0.265569
C24   C     C_R   0.016974 0.514213 0.212646 0.352283
C25   C     C_3   0.815747 0.904731 0.867238 -0.483892
C26   C     C_3   0.244232 0.913482 0.895676 0.019787
C27   C     C_3   0.199487 0.975520 0.882519 -0.265570
C28   C     C_3   0.095271 0.911017 0.867239 -0.483893
C29   C     C_3   0.333788 0.924637 0.440715 0.016966
C30   C     C_3   0.272751 0.825695 0.419966 -0.272924
C31   C     C_3   0.230294 0.740158 0.448570 -0.491148
C32   C     C_3   0.590850 0.666211 0.440716 0.016966
C33   C     C_3   0.552939 0.727243 0.419967 -0.272925
C34   C     C_3   0.509862 0.769702 0.448570 -0.491149
C35   C     C_R   0.002819 0.435558 0.852910 -0.100666
C36   C     C_3   0.075361 0.409150 0.440716 0.016966
C37   C     C_3   0.174304 0.447062 0.419967 -0.272926
C38   C     C_3   0.259840 0.490139 0.448571 -0.491148
C39   C     C_R   0.564442 0.567261 0.852910 -0.100667
C40   C     C_R   0.432739 0.997181 0.852910 -0.100667
C41   C     C_R   0.433784 0.990869 0.355594 -0.096383
C42   C     C_R   0.557084 0.566215 0.355594 -0.096383
C43   C     C_R   0.009131 0.442917 0.355594 -0.096383
C44   C     C_R   0.036131 0.445395 0.891202 0.264516
C45   C     C_R   0.557959 0.135840 0.554655 0.553041
C46   C     C_R   0.554604 0.590735 0.891203 0.264516
C47   C     C_R   0.409265 0.963869 0.891203 0.264515
C48   C     C_R   0.444019 0.021002 0.394314 0.262845
C49   C     C_R   0.576984 0.555981 0.394314 0.262846
C50   C     C_R   0.978997 0.423017 0.394314 0.262845
C51   C     C_R   0.080694 0.617391 0.889606 -0.180422
C52   C     C_R   0.382608 0.463302 0.889606 -0.180422
C53   C     C_R   0.536697 0.919306 0.889606 -0.180422
C54   C     C_R   0.619839 0.084931 0.389412 -0.180036
C55   C     C_R   0.465092 0.380160 0.389412 -0.180036
C56   C     C_R   0.864160 0.422119 0.554655 0.553041
C57   C     C_R   0.915069 0.534909 0.389412 -0.180037
C58   C     C_R   0.050026 0.607451 0.851174 -0.140721
C59   C     C_R   0.392549 0.442575 0.851174 -0.140721
C60   C     C_R   0.557425 0.949973 0.851174 -0.140721
C61   C     C_R   0.608535 0.051578 0.351395 -0.138237
C62   C     C_R   0.443043 0.391464 0.351394 -0.138237
C63   C     C_R   0.948422 0.556957 0.351395 -0.138238
C64   C     C_R   0.015298 0.517556 0.831972 -0.007319
C65   C     C_R   0.482444 0.497742 0.831972 -0.007319
C66   C     C_R   0.502258 0.984701 0.831972 -0.007319
C67   C     C_R   0.442093 0.577836 0.054714 0.575425
C68   C     C_R   0.516349 0.009366 0.333454 -0.016029
C69   C     C_R   0.493017 0.483650 0.333454 -0.016029
C70   C     C_R   0.990634 0.506984 0.333454 -0.016029
C71   C     C_R   0.078770 0.538226 0.909341 0.038071
C72   C     C_R   0.461773 0.540543 0.909341 0.038071
C73   C     C_R   0.459457 0.921230 0.909341 0.038072
C74   C     C_R   0.539030 0.075950 0.410321 0.012517
C75   C     C_R   0.536920 0.460970 0.410321 0.012517
C76   C     C_R   0.924050 0.463081 0.410321 0.012516
C77   C     C_R   0.577205 0.442388 0.445805 0.550184
C78   C     C_R   0.135743 0.557907 0.054714 0.575425
C79   C     C_R   0.557611 0.134816 0.445805 0.550184
C80   C     C_R   0.865184 0.422795 0.445805 0.550183
C81   C     C_R   0.442430 0.577757 0.945567 0.574838
C82   C     C_R   0.135327 0.557570 0.945567 0.574838
C83   C     C_R   0.422243 0.864673 0.945567 0.574838
C84   C     C_R   0.921822 0.456701 0.590736 0.013266
C85   C     C_R   0.543299 0.465120 0.590736 0.013266
C86   C     C_R   0.534879 0.078178 0.590736 0.013266
C87   C     C_R   0.455195 0.919338 0.091527 0.044460
C88   C     C_R   0.464143 0.544805 0.091527 0.044460
C89   C     C_R   0.422164 0.864257 0.054714 0.575424
C90   C     C_R   0.080662 0.535857 0.091527 0.044459
C91   C     C_R   0.940288 0.390913 0.611548 -0.176918
C92   C     C_R   0.609087 0.549374 0.611548 -0.176918
C93   C     C_R   0.450625 0.059712 0.611548 -0.176918
C94   C     C_R   0.387644 0.934099 0.112843 -0.178311
C95   C     C_R   0.546455 0.612356 0.112843 -0.178311
C96   C     C_R   0.065900 0.453545 0.112843 -0.178311
C97   C     C_R   0.969614 0.409211 0.650040 -0.137662
C98   C     C_R   0.590790 0.560403 0.650040 -0.137662
C99   C     C_R   0.439597 0.030386 0.650040 -0.137662
C100  C     C_R   0.991676 0.501838 0.711089 0.352689
C101  C     C_R   0.403574 0.959201 0.151767 -0.138736
C102  C     C_R   0.555628 0.596426 0.151767 -0.138736
C103  C     C_R   0.040799 0.444372 0.151767 -0.138736
C104  C     C_R   0.980597 0.493413 0.668637 -0.013017
C105  C     C_R   0.506587 0.487185 0.668637 -0.013017
C106  C     C_R   0.512815 0.019402 0.668637 -0.013017
C107  C     C_R   0.488842 0.972698 0.170137 -0.005619
C108  C     C_R   0.483856 0.511158 0.170137 -0.005619
C109  C     C_R   0.027302 0.516144 0.170137 -0.005619
C110  C     C_R   0.973086 0.564695 0.646776 -0.094158
C111  C     C_R   0.498162 0.489838 0.711089 0.352688
C112  C     C_R   0.435305 0.408391 0.646776 -0.094158
C113  C     C_R   0.591608 0.026913 0.646776 -0.094158
C114  C     C_R   0.562769 0.971135 0.147796 -0.105167
C115  C     C_R   0.408366 0.437230 0.147796 -0.105167
C116  C     C_R   0.028865 0.591634 0.147796 -0.105166
C117  C     C_R   0.946804 0.548391 0.607551 0.261600
C118  C     C_R   0.451609 0.398413 0.607551 0.261601
C119  C     C_R   0.601586 0.053196 0.607551 0.261601
C120  C     C_R   0.546310 0.943557 0.108415 0.262366
C121  C     C_R   0.397247 0.453690 0.108415 0.262366
C122  C     C_R   0.510161 0.008323 0.711089 0.352688
C123  C     C_R   0.056443 0.602752 0.108415 0.262366
C124  C     C_R   0.001363 0.510799 0.789626 0.352358
C125  C     C_R   0.489200 0.490563 0.789626 0.352358
C126  C     C_R   0.509437 0.998637 0.789626 0.352359
C127  C     C_R   0.508028 0.993965 0.291168 0.350796
C128  C     C_R   0.485936 0.491971 0.291168 0.350795
C129  C     C_R   0.006035 0.514064 0.291168 0.350795
C130  C     C_3   0.016473 0.669295 0.561670 0.019136
C131  C     C_3   0.102847 0.756097 0.582174 -0.272288
C132  C     C_3   0.187631 0.815114 0.554228 -0.487141
Cr1   Cr    Cr6+3 0.522350 0.263930 0.500020 1.045908
Cr2   Cr    Cr6+3 0.736070 0.258420 0.500020 1.045908
Cr3   Cr    Cr6+3 0.741580 0.477650 0.500020 1.045908
Cr4   Cr    Cr6+3 0.263930 0.522350 0.000020 1.034354
Cr5   Cr    Cr6+3 0.258420 0.736070 0.000020 1.034354
Cr6   Cr    Cr6+3 0.477650 0.741580 0.000020 1.034354
H1    H     H_    0.925322 0.321593 0.599032 0.157544
H2    H     H_    0.346865 0.963969 0.167785 0.144316
H3    H     H_    0.287860 0.930887 0.463773 0.160102
H4    H     H_    0.397951 0.927327 0.455747 0.104431
H5    H     H_    0.211530 0.825770 0.403888 0.183508
H6    H     H_    0.319647 0.814627 0.398822 0.152893
H7    H     H_    0.290035 0.739402 0.465476 0.139188
H8    H     H_    0.189655 0.669815 0.432461 0.150298
H9    H     H_    0.178508 0.746143 0.468744 0.142127
H10   H     H_    0.643029 0.712142 0.463772 0.160103
H11   H     H_    0.529380 0.602048 0.455748 0.104433
H12   H     H_    0.614232 0.788463 0.403887 0.183509
H13   H     H_    0.617104 0.653135 0.167785 0.144315
H14   H     H_    0.494973 0.680343 0.398824 0.152892
H15   H     H_    0.449370 0.709962 0.465479 0.139187
H16   H     H_    0.480152 0.810335 0.432462 0.150298
H17   H     H_    0.567636 0.821493 0.468742 0.142129
H18   H     H_    0.069112 0.356971 0.463772 0.160103
H19   H     H_    0.072667 0.470620 0.455749 0.104433
H20   H     H_    0.174231 0.385769 0.403887 0.183509
H21   H     H_    0.185371 0.505029 0.398825 0.152891
H22   H     H_    0.260592 0.550630 0.465480 0.139187
H23   H     H_    0.330184 0.519850 0.432463 0.150298
H24   H     H_    0.036032 0.382896 0.167785 0.144316
H25   H     H_    0.253856 0.432364 0.468742 0.142129
H26   H     H_    0.984068 0.631623 0.660290 0.148079
H27   H     H_    0.368376 0.352444 0.660290 0.148079
H28   H     H_    0.647554 0.015931 0.660289 0.148079
H29   H     H_    0.631730 0.988144 0.161140 0.132489
H30   H     H_    0.356414 0.368270 0.161140 0.132488
H31   H     H_    0.011855 0.643585 0.161140 0.132488
H32   H     H_    0.971631 0.364454 0.839059 0.139021
H33   H     H_    0.678408 0.603730 0.599032 0.157544
H34   H     H_    0.635545 0.607177 0.839059 0.139021
H35   H     H_    0.392824 0.028369 0.839059 0.139022
H36   H     H_    0.361305 0.955521 0.342672 0.149847
H37   H     H_    0.594216 0.638694 0.342672 0.149848
H38   H     H_    0.044478 0.405785 0.342672 0.149848
H39   H     H_    0.112288 0.689080 0.902963 0.120216
H40   H     H_    0.310920 0.423207 0.902963 0.120215
H41   H     H_    0.576792 0.887712 0.902963 0.120216
H42   H     H_    0.693346 0.124313 0.401355 0.158090
H43   H     H_    0.430966 0.306653 0.401355 0.158090
H44   H     H_    0.396270 0.074678 0.599033 0.157544
H45   H     H_    0.875688 0.569034 0.401355 0.158090
H46   H     H_    0.058717 0.671594 0.835981 0.140188
H47   H     H_    0.328405 0.387122 0.835981 0.140188
H48   H     H_    0.612877 0.941282 0.835981 0.140188
H49   H     H_    0.673314 0.065225 0.335318 0.157976
H50   H     H_    0.391911 0.326685 0.335318 0.157976
H51   H     H_    0.934775 0.608089 0.335318 0.157976
H52   H     H_    0.991452 0.698314 0.537551 0.153031
H53   H     H_    0.040879 0.620709 0.547990 0.103113
H54   H     H_    0.077812 0.805006 0.594676 0.178037
H55   H     H_    0.319294 0.920585 0.100096 0.121957
H56   H     H_    0.129827 0.728694 0.606185 0.159563
H57   H     H_    0.215651 0.768183 0.542281 0.140361
H58   H     H_    0.248406 0.877741 0.569879 0.154470
H59   H     H_    0.163249 0.844478 0.530023 0.143881
H60   H     H_    0.301686 0.293138 0.537550 0.153031
H61   H     H_    0.379292 0.420170 0.547990 0.103114
H62   H     H_    0.194994 0.272806 0.594676 0.178037
H63   H     H_    0.271307 0.401134 0.606184 0.159564
H64   H     H_    0.231819 0.447469 0.542280 0.140362
H65   H     H_    0.122260 0.370665 0.569878 0.154469
H66   H     H_    0.601291 0.680706 0.100096 0.121957
H67   H     H_    0.155523 0.318772 0.530022 0.143881
H68   H     H_    0.706860 0.008548 0.537550 0.153031
H69   H     H_    0.579828 0.959121 0.547990 0.103114
H70   H     H_    0.727191 0.922187 0.594676 0.178037
H71   H     H_    0.598863 0.870172 0.606184 0.159563
H72   H     H_    0.552529 0.784349 0.542280 0.140362
H73   H     H_    0.629331 0.751593 0.569878 0.154469
H74   H     H_    0.681226 0.836751 0.530022 0.143881
H75   H     H_    0.647455 0.835690 0.075552 0.172154
H76   H     H_    0.613764 0.839965 0.124748 0.112925
H77   H     H_    0.079415 0.398709 0.100096 0.121957
H78   H     H_    0.805985 0.990328 0.083411 0.178900
H79   H     H_    0.775379 0.001329 0.132739 0.168985
H80   H     H_    0.766868 0.841924 0.149312 0.157111
H81   H     H_    0.885151 0.930304 0.129868 0.147683
H82   H     H_    0.798124 0.831145 0.099682 0.149587
H83   H     H_    0.188234 0.352544 0.075552 0.172153
H84   H     H_    0.226200 0.386235 0.124748 0.112925
H85   H     H_    0.184342 0.194014 0.083411 0.178900
H86   H     H_    0.225949 0.224621 0.132739 0.168985
H87   H     H_    0.075055 0.233131 0.149312 0.157111
H88   H     H_    0.977831 0.354187 0.665802 0.153415
H89   H     H_    0.045152 0.114848 0.129868 0.147683
H90   H     H_    0.033018 0.201874 0.099682 0.149587
H91   H     H_    0.164310 0.811765 0.075552 0.172154
H92   H     H_    0.160035 0.773799 0.124748 0.112924
H93   H     H_    0.009672 0.815656 0.083411 0.178900
H94   H     H_    0.998671 0.774049 0.132739 0.168985
H95   H     H_    0.158075 0.924943 0.149312 0.157111
H96   H     H_    0.069695 0.954846 0.129868 0.147683
H97   H     H_    0.168855 0.966980 0.099682 0.149587
H98   H     H_    0.136271 0.333890 0.919194 0.162577
H99   H     H_    0.645813 0.623644 0.665802 0.153415
H100  H     H_    0.134435 0.376194 0.871225 0.110750
H101  H     H_    0.980297 0.178005 0.907345 0.178828
H102  H     H_    0.973242 0.218651 0.859239 0.169344
H103  H     H_    0.133299 0.228626 0.842158 0.158749
H104  H     H_    0.041920 0.107198 0.857563 0.146670
H105  H     H_    0.138959 0.185990 0.890390 0.147139
H106  H     H_    0.666111 0.802381 0.919194 0.162577
H107  H     H_    0.623807 0.758242 0.871225 0.110750
H108  H     H_    0.821995 0.802292 0.907346 0.178829
H109  H     H_    0.781349 0.754591 0.859240 0.169344
H110  H     H_    0.376356 0.022169 0.665802 0.153415
H111  H     H_    0.771376 0.904674 0.842158 0.158749
H112  H     H_    0.892804 0.934723 0.857563 0.146670
H113  H     H_    0.814011 0.952970 0.890390 0.147139
H114  H     H_    0.197619 0.863730 0.919194 0.162577
H115  H     H_    0.241758 0.865566 0.871225 0.110750
H116  H     H_    0.197710 0.019704 0.907346 0.178829
H117  H     H_    0.245411 0.026759 0.859240 0.169344
H118  H     H_    0.095326 0.866703 0.842158 0.158749
H119  H     H_    0.065279 0.958082 0.857564 0.146670
H120  H     H_    0.047032 0.861042 0.890391 0.147139
N1    N     N_R   0.985898 0.428795 0.770637 -0.231156
N2    N     N_R   0.418617 0.967981 0.234152 -0.223651
N3    N     N_R   0.549364 0.581382 0.234152 -0.223651
N4    N     N_R   0.032019 0.450637 0.234152 -0.223651
N5    N     N_R   0.006675 0.583945 0.730011 -0.228898
N6    N     N_R   0.416054 0.422729 0.730011 -0.228898
N7    N     N_R   0.577270 0.993324 0.730011 -0.228898
N8    N     N_R   0.581173 0.002449 0.231191 -0.226850
N9    N     N_R   0.421276 0.418826 0.231191 -0.226850
N10   N     N_R   0.997551 0.578724 0.231191 -0.226850
N11   N     N_R   0.012113 0.588584 0.768564 -0.223639
N12   N     N_R   0.571205 0.557103 0.770637 -0.231156
N13   N     N_R   0.411415 0.423528 0.768564 -0.223639
N14   N     N_R   0.576471 0.987887 0.768564 -0.223639
N15   N     N_R   0.586631 0.008445 0.269704 -0.220700
N16   N     N_R   0.421814 0.413368 0.269704 -0.220700
N17   N     N_R   0.991555 0.578186 0.269704 -0.220700
N18   N     N_R   0.442897 0.014101 0.770637 -0.231156
N19   N     N_R   0.423975 0.973687 0.272596 -0.225862
N20   N     N_R   0.549712 0.576024 0.272596 -0.225863
N21   N     N_R   0.026313 0.450289 0.272596 -0.225863
N22   N     N_R   0.980785 0.424283 0.732211 -0.220666
N23   N     N_R   0.575717 0.556503 0.732211 -0.220666
N24   N     N_R   0.443497 0.019214 0.732211 -0.220666
O1    O     O_R   0.498680 0.159540 0.541860 -0.521220
O2    O     O_R   0.358060 0.532760 0.040030 -0.466965
O3    O     O_R   0.174700 0.641940 0.040030 -0.466965
O4    O     O_R   0.467240 0.825300 0.040030 -0.466965
O5    O     O_R   0.498590 0.161190 0.456930 -0.474377
O6    O     O_R   0.838810 0.337400 0.456930 -0.474376
O7    O     O_R   0.662600 0.501410 0.456930 -0.474376
O8    O     O_R   0.161190 0.498590 0.956930 -0.486081
O9    O     O_R   0.337400 0.838810 0.956930 -0.486080
O10   O     O_R   0.501410 0.662600 0.956930 -0.486081
O11   O     O_R   0.532680 0.359580 0.461300 -0.523333
O12   O     O_R   0.840460 0.339140 0.541860 -0.521220
O13   O     O_R   0.640420 0.173100 0.461300 -0.523333
O14   O     O_R   0.826900 0.467320 0.461300 -0.523334
O15   O     O_R   0.359580 0.532680 0.961300 -0.519090
O16   O     O_R   0.173100 0.640420 0.961300 -0.519089
O17   O     O_R   0.467320 0.826900 0.961300 -0.519090
O18   O     O_3   0.666667 0.333333 0.499990 -0.257346
O19   O     O_3   0.333333 0.666667 0.999990 -0.265562
O20   O     O_3   0.936317 0.618745 0.587437 -0.556553
O21   O     O_3   0.381255 0.317572 0.587437 -0.556553
O22   O     O_3   0.682427 0.063682 0.587436 -0.556553
O23   O     O_R   0.660860 0.501320 0.541860 -0.521220
O24   O     O_3   0.620680 0.948086 0.085291 -0.557121
O25   O     O_3   0.327405 0.379319 0.085291 -0.557121
O26   O     O_3   0.051914 0.672594 0.085291 -0.557120
O27   O     O_3   0.024744 0.363945 0.911269 -0.547879
O28   O     O_3   0.636055 0.660800 0.911269 -0.547879
O29   O     O_3   0.339202 0.975256 0.911270 -0.547879
O30   O     O_3   0.361256 0.004054 0.414747 -0.553838
O31   O     O_3   0.642798 0.638743 0.414747 -0.553838
O32   O     O_3   0.995945 0.357203 0.414747 -0.553838
O33   O     O_R   0.159540 0.498680 0.041860 -0.540409
O34   O     O_R   0.339140 0.840460 0.041860 -0.540409
O35   O     O_R   0.501320 0.660860 0.041860 -0.540409
O36   O     O_R   0.532760 0.358060 0.540030 -0.461417
O37   O     O_R   0.641940 0.174700 0.540030 -0.461417
O38   O     O_R   0.825300 0.467240 0.540030 -0.461417

loop_
_geom_bond_atom_site_label_1
_geom_bond_atom_site_label_2
_ccdc_geom_bond_type
C101  C107  A    
C41   H36   S    
C45   O1    A    
C19   C20   S    
N1    N22   A    
C34   H17   S    
C125  N13   A    
C57   C76   A    
C126  N14   A    
Cr3   O38   S    
C55   C62   A    
C100  C104  S    
C79   O13   A    
C54   C74   A    
C25   H111  S    
C17   H94   S    
N3    N20   A    
C16   O26   S    
C84   C117  A    
Cr2   O6    S    
C86   C119  A    
C84   C91   A    
C8    H73   S    
C78   O3    A    
C46   C72   A    
C95   C102  A    
C102  H13   S    
C71   C82   S    
C31   H9    S    
C97   H88   S    
C88   C95   A    
C79   O5    A    
C39   C65   A    
C51   C71   A    
C48   C74   A    
C19   H100  S    
C113  H28   S    
C83   O9    A    
Cr4   O19   S    
C67   O2    A    
C9    H75   S    
Cr1   O1    S    
C70   C129  S    
C30   H5    S    
C15   H89   S    
C37   C38   S    
C52   C72   A    
C50   C76   A    
C26   O29   S    
C82   O16   A    
C26   C27   S    
Cr2   O18   S    
Cr3   O7    S    
C11   H80   S    
C105  C112  A    
N6    N13   A    
C36   O32   S    
C74   C79   S    
C87   C89   S    
C62   H50   S    
C34   H15   S    
C56   O12   A    
C126  N18   A    
C4    C5    S    
Cr2   O37   S    
C18   H96   S    
C6    C7    S    
C54   C61   A    
C103  C109  A    
C19   O27   S    
C23   H108  S    
C130  C131  S    
C104  C110  A    
N2    N19   A    
C25   H113  S    
C4    H63   S    
N18   N24   A    
Cr6   O19   S    
C112  H27   S    
Cr4   O2    S    
C81   O10   A    
C31   H7    S    
C20   C21   S    
C35   H32   S    
C22   C23   S    
C21   H103  S    
C45   O37   A    
C130  H52   S    
C87   C94   A    
C115  C121  A    
C116  C123  A    
C90   C123  A    
C19   H98   S    
C46   O28   S    
C7    C8    S    
C98   H99   S    
C15   H87   S    
C108  C115  A    
C58   H46   S    
C36   C37   S    
N7    N14   A    
C93   H44   S    
N4    N21   A    
N8    N15   A    
C2    N8    A    
C16   H91   S    
C9    O24   S    
C69   C128  S    
C117  O20   S    
C49   C75   A    
C29   O30   S    
C119  O22   S    
C9    C10   S    
C4    H62   S    
C21   H105  S    
C55   C75   A    
C121  O25   S    
C127  N15   A    
C13   C108  S    
C8    H72   S    
C53   H41   S    
C128  N20   A    
C53   C60   A    
C80   O14   A    
C57   C63   A    
Cr4   O33   S    
C58   C64   A    
C80   O6    A    
C106  C113  A    
C14   H85   S    
C20   H102  S    
C1    O23   A    
C66   C126  S    
C123  O26   S    
Cr2   O12   S    
C29   C30   S    
C86   C93   A    
C29   H3    S    
C106  C122  S    
C17   C18   S    
C75   C77   S    
C12   H84   S    
C6    O22   S    
C36   H19   S    
C38   H25   S    
C28   H120  S    
C3    C4    S    
C11   H81   S    
Cr4   O15   S    
C99   C106  A    
C44   O27   S    
C76   C80   S    
C26   H115  S    
C5    H65   S    
C43   C50   A    
C90   C96   A    
C125  N12   A    
C37   H21   S    
C45   C86   S    
C38   H22   S    
Cr4   O8    S    
C59   C65   A    
C10   H78   S    
Cr1   O18   S    
C73   C83   S    
C118  O21   S    
C59   H47   S    
C23   H109  S    
C27   H116  S    
C111  N6    A    
C6    H68   S    
C10   C11   S    
C77   O11   A    
N5    N11   A    
C14   C15   S    
C115  H30   S    
C8    H74   S    
C24   N10   A    
C10   H79   S    
C83   O17   A    
C67   O35   A    
C26   H114  S    
C22   H106  S    
C131  H54   S    
C78   C90   S    
C67   C88   S    
C30   C31   S    
C61   H49   S    
C3    H60   S    
C30   H6    S    
C47   O29   S    
C48   O30   S    
Cr6   O10   S    
C109  C116  A    
C113  C119  A    
C38   H23   S    
C16   C17   S    
C132  H57   S    
Cr5   O19   S    
C93   C99   A    
C72   C81   S    
C105  C111  S    
C60   C66   A    
C89   O4    A    
C40   C66   A    
C130  O20   S    
C111  N23   A    
C110  C117  A    
C7    H71   S    
C56   C84   S    
C41   C68   A    
C34   H16   S    
C114  H29   S    
C47   C73   A    
C18   H97   S    
C62   C69   A    
C107  C114  A    
C39   H34   S    
C43   H38   S    
C100  N5    A    
C1    O36   A    
C51   C58   A    
C91   C97   A    
C98   C105  A    
C68   C127  S    
C128  N16   A    
C91   H1    S    
C129  N17   A    
C131  C132  S    
C130  H53   S    
C36   H18   S    
C103  H24   S    
C110  H26   S    
C78   O33   A    
C24   C109  S    
C88   C121  A    
C32   H10   S    
C9    H76   S    
C15   H90   S    
C33   H12   S    
C32   C33   S    
C64   C124  S    
C32   O31   S    
C16   H92   S    
C132  H59   S    
C85   C118  A    
C52   H40   S    
C97   C104  A    
C85   C92   A    
C96   C103  A    
C24   N4    A    
C120  O24   S    
Cr6   O17   S    
C27   H117  S    
C114  C120  A    
C21   H104  S    
C40   C47   A    
C2    N2    A    
N9    N16   A    
C94   H55   S    
Cr5   O34   S    
C17   H93   S    
C18   H95   S    
C92   C98   A    
C96   H77   S    
C14   H86   S    
Cr1   O36   S    
C42   H37   S    
C77   O7    A    
C40   H35   S    
C92   H33   S    
C2    C107  S    
C12   O25   S    
C44   C71   A    
C25   H112  S    
Cr5   O9    S    
Cr2   O13   S    
C82   O8    A    
C31   H8    S    
C32   H11   S    
C94   C101  A    
Cr1   O5    S    
C3    H61   S    
C102  C108  A    
C35   C64   A    
Cr1   O11   S    
C100  N22   A    
Cr5   O16   S    
C13   N9    A    
C3    O21   S    
C101  H2    S    
C1    C85   S    
C124  N11   A    
C124  N1    A    
C5    H64   S    
C95   H66   S    
C63   H51   S    
C42   C69   A    
C127  N19   A    
C65   C125  S    
C37   H20   S    
Cr3   O14   S    
C52   C59   A    
C81   O15   A    
C122  N24   A    
C63   C70   A    
Cr5   O3    S    
C33   C34   S    
C55   H43   S    
C22   O28   S    
C35   C44   A    
C6    H69   S    
C39   C46   A    
C12   C14   S    
C43   C70   A    
C131  H56   S    
C57   H45   S    
C49   O31   S    
Cr3   O23   S    
C60   H48   S    
C53   C73   A    
C28   H118  S    
C7    H70   S    
C33   H14   S    
C22   H107  S    
C56   O38   A    
C20   H101  S    
Cr6   O4    S    
C87   C120  A    
C51   H39   S    
Cr3   O18   S    
C112  C118  A    
C61   C68   A    
C29   H4    S    
N10   N17   A    
C41   C48   A    
C54   H42   S    
C116  H31   S    
C129  N21   A    
C23   C25   S    
N12   N23   A    
C89   O34   A    
C12   H83   S    
Cr6   O35   S    
C42   C49   A    
C5    H67   S    
C50   O32   S    
C28   H119  S    
C27   C28   S    
C132  H58   S    
C99   H110  S    
C13   N3    A    
C11   H82   S    
C122  N7    A    
