data_mof_unit_44483.cif
_audit_creation_date              2012-12-10T17:46:24-0500
_audit_creation_method            fapswitch 2.2
_symmetry_space_group_name_H-M    P1
_symmetry_Int_Tables_number       1
_space_group_crystal_system       triclinic
_cell_length_a                    20.727542
_cell_length_b                    21.095851
_cell_length_c                    14.766123
_cell_angle_alpha                 89.992869
_cell_angle_beta                  127.947393
_cell_angle_gamma                 90.005211
_cell_volume                      5091.60520577

loop_
_atom_site_label
_atom_site_type_symbol
_atom_type_description
_atom_site_fract_x
_atom_site_fract_y
_atom_site_fract_z
_atom_type_partial_charge
C1    C     C_R   0.604594 0.914945 0.633561 0.833750
C2    C     C_R   0.397519 0.086804 0.369092 0.829866
C3    C     C_R   0.395453 0.914903 0.366495 0.833871
C4    C     C_R   0.603937 0.085584 0.632744 0.829809
C5    C     C_R   0.104153 0.414634 0.632980 0.832899
C6    C     C_R   0.897937 0.587160 0.369543 0.829347
C7    C     C_R   0.897430 0.413264 0.369014 0.835685
C8    C     C_R   0.102161 0.587087 0.630561 0.828039
C9    C     C_R   0.306070 0.795617 0.894963 -0.189744
C10   C     C_R   0.692361 0.205781 0.102988 -0.189140
C11   C     C_R   0.695022 0.796316 0.106120 -0.189359
C12   C     C_R   0.359887 0.251166 0.964922 -0.166686
C13   C     C_R   0.859112 0.249676 0.964102 -0.167256
C14   C     C_R   0.135278 0.755981 0.028388 -0.157407
C15   C     C_R   0.191509 0.293600 0.101586 -0.190231
C16   C     C_R   0.864640 0.755726 0.971164 -0.157340
C17   C     C_R   0.322084 0.994859 0.666745 -0.418724
C18   C     C_R   0.678067 0.999087 0.333261 -0.431992
C19   C     C_R   0.821975 0.499854 0.666731 -0.409443
C20   C     C_R   0.177917 0.494360 0.333292 -0.419953
C21   C     C_R   0.351091 0.998651 0.602148 0.701308
C22   C     C_R   0.649069 0.000147 0.398358 0.708132
C23   C     C_R   0.851079 0.501166 0.602076 0.702314
C24   C     C_R   0.148906 0.498453 0.397856 0.700617
C25   C     C_R   0.488218 0.000488 0.775293 -0.105311
C26   C     C_R   0.511800 0.999584 0.224694 -0.103181
C27   C     C_R   0.988241 0.499099 0.775306 -0.107651
C28   C     C_R   0.011810 0.500457 0.224713 -0.106610
C29   C     C_R   0.461951 0.998649 0.844876 -0.016294
C30   C     C_R   0.538097 0.998988 0.155155 -0.014867
C31   C     C_R   0.961950 0.498728 0.844878 -0.019046
C32   C     C_R   0.038087 0.498363 0.155148 -0.017642
C33   C     C_R   0.376773 0.995659 0.786879 0.107347
C34   C     C_R   0.623303 0.999477 0.213151 0.110518
C35   C     C_R   0.876712 0.499718 0.786860 0.103201
C36   C     C_R   0.123248 0.495101 0.213156 0.105895
C37   C     C_R   0.516303 0.999058 0.968695 0.095709
C38   C     C_R   0.483768 0.997706 0.031336 0.094903
C39   C     C_R   0.016278 0.497220 0.968692 0.094014
C40   C     C_R   0.983750 0.498801 0.031327 0.092073
C41   C     C_R   0.398177 0.994333 0.968041 -0.239361
C42   C     C_R   0.601978 0.000304 0.032034 -0.247744
C43   C     C_R   0.898079 0.500347 0.967975 -0.231117
C44   C     C_R   0.101846 0.493489 0.031990 -0.238637
C45   C     C_R   0.346158 0.993076 0.848705 -0.173347
C46   C     C_R   0.654008 0.000006 0.151346 -0.180229
C47   C     C_R   0.846021 0.500292 0.848641 -0.164892
C48   C     C_R   0.153855 0.492203 0.151336 -0.174402
C49   C     C_R   0.668247 0.130744 0.713589 -0.113368
C50   C     C_R   0.329512 0.871224 0.283638 -0.122881
C51   C     C_R   0.342866 0.139939 0.300452 -0.124638
C52   C     C_R   0.670627 0.871346 0.716480 -0.121412
C53   C     C_R   0.155827 0.640970 0.698108 -0.124240
C54   C     C_R   0.842728 0.360141 0.300457 -0.132314
C55   C     C_R   0.844547 0.641224 0.302266 -0.124453
C56   C     C_R   0.168892 0.369903 0.714157 -0.121601
C57   C     C_R   0.793212 0.189191 0.787419 0.496601
C58   C     C_R   0.201091 0.816818 0.204958 0.497584
C59   C     C_R   0.243881 0.219870 0.259725 0.499558
C60   C     C_R   0.798988 0.816869 0.794899 0.497778
C61   C     C_R   0.254748 0.720915 0.738441 0.498335
C62   C     C_R   0.744016 0.280067 0.260199 0.498558
C63   C     C_R   0.746610 0.721818 0.263030 0.498744
C64   C     C_R   0.295136 0.313018 0.789749 0.495372
C65   C     C_R   0.729563 0.148359 0.705421 -0.291490
C66   C     C_R   0.265850 0.856417 0.288473 -0.275630
C67   C     C_R   0.293402 0.167937 0.323995 -0.277722
C68   C     C_R   0.734233 0.856550 0.711513 -0.277541
C69   C     C_R   0.205919 0.668479 0.675267 -0.278569
C70   C     C_R   0.792942 0.332403 0.323693 -0.255410
C71   C     C_R   0.795224 0.669265 0.326008 -0.279344
C72   C     C_R   0.231697 0.354070 0.708075 -0.276852
C73   C     C_R   0.670539 0.153082 0.804242 -0.263694
C74   C     C_R   0.327604 0.848175 0.193600 -0.262420
C75   C     C_R   0.343205 0.164379 0.213018 -0.256882
C76   C     C_R   0.672675 0.848355 0.806664 -0.261896
C77   C     C_R   0.153820 0.666697 0.783437 -0.261899
C78   C     C_R   0.843400 0.335435 0.213494 -0.259582
C79   C     C_R   0.846199 0.666667 0.216438 -0.262288
C80   C     C_R   0.170201 0.346379 0.803342 -0.265954
C81   C     C_R   0.735716 0.190060 0.891904 0.022477
C82   C     C_R   0.261177 0.812789 0.104119 0.021859
C83   C     C_R   0.296578 0.217711 0.149593 0.027491
C84   C     C_R   0.739096 0.812912 0.896012 0.021685
C85   C     C_R   0.200268 0.720286 0.846310 0.026230
C86   C     C_R   0.796957 0.281985 0.150355 0.027863
C87   C     C_R   0.800106 0.720458 0.153921 0.026483
C88   C     C_R   0.235691 0.309872 0.891533 0.023179
C89   C     C_R   0.796382 0.209499 0.881236 0.059268
C90   C     C_R   0.198803 0.795323 0.112397 0.056065
C91   C     C_R   0.243618 0.243882 0.170253 0.050523
C92   C     C_R   0.801285 0.795298 0.887444 0.056731
C93   C     C_R   0.254015 0.745781 0.826557 0.048988
C94   C     C_R   0.744127 0.255750 0.171199 0.047516
C95   C     C_R   0.746913 0.746367 0.174355 0.048822
C96   C     C_R   0.297260 0.291443 0.882130 0.056405
C97   C     C_R   0.740688 0.209548 0.988237 0.101316
C98   C     C_R   0.256603 0.792893 0.008290 0.101674
C99   C     C_R   0.299294 0.244099 0.063436 0.096378
C100  C     C_R   0.743825 0.793096 0.991993 0.101331
C101  C     C_R   0.196961 0.747422 0.931520 0.096278
C102  C     C_R   0.799606 0.255635 0.064120 0.097387
C103  C     C_R   0.803257 0.747434 0.068470 0.096340
C104  C     C_R   0.240182 0.289995 0.987273 0.101624
C105  C     C_R   0.308405 0.818120 0.985215 -0.234002
C106  C     C_R   0.689863 0.183522 0.012509 -0.233686
C107  C     C_R   0.692422 0.818626 0.015539 -0.232936
C108  C     C_R   0.360402 0.227207 0.052800 -0.240352
C109  C     C_R   0.860291 0.272943 0.052870 -0.242410
C110  C     C_R   0.134977 0.731587 0.940874 -0.244195
C111  C     C_R   0.188932 0.315749 0.010982 -0.234384
C112  C     C_R   0.864959 0.731310 0.058695 -0.244806
Cu1   Cu    Cu3+1 0.526640 0.000000 0.436960 0.976351
Cu2   Cu    Cu3+1 0.473360 0.000000 0.563040 0.973876
Cu3   Cu    Cu3+1 0.026640 0.500000 0.436960 0.972116
Cu4   Cu    Cu3+1 0.973360 0.500000 0.563040 0.972930
H1    H     H_    0.346660 0.816820 0.880508 0.194869
H2    H     H_    0.652247 0.184146 0.117943 0.190987
H3    H     H_    0.654789 0.817779 0.121002 0.194637
H4    H     H_    0.408430 0.236854 0.961231 0.198273
H5    H     H_    0.907153 0.264561 0.959695 0.198914
H6    H     H_    0.086038 0.742535 0.031115 0.194408
H7    H     H_    0.151315 0.315189 0.116431 0.192225
H8    H     H_    0.913709 0.742105 0.968177 0.194280
H9    H     H_    0.379669 0.857636 0.195880 0.168259
H10   H     H_    0.619681 0.141740 0.803757 0.165300
H11   H     H_    0.620703 0.857861 0.804586 0.168491
H12   H     H_    0.378672 0.139717 0.193289 0.165459
H13   H     H_    0.878958 0.360040 0.193874 0.166818
H14   H     H_    0.117401 0.642783 0.802293 0.165701
H15   H     H_    0.118438 0.356475 0.801436 0.166444
H16   H     H_    0.882052 0.642417 0.196927 0.164735
H17   H     H_    0.280786 0.990269 0.804095 0.142497
H18   H     H_    0.719466 0.000489 0.195947 0.142694
H19   H     H_    0.780563 0.501091 0.803997 0.142771
H20   H     H_    0.219212 0.489157 0.195957 0.143012
N1    N     N_R   0.433280 0.000000 0.657760 -0.211072
N2    N     N_R   0.566720 0.000000 0.342240 -0.211246
N3    N     N_R   0.933280 0.500000 0.657760 -0.213442
N4    N     N_R   0.066720 0.500000 0.342240 -0.211875
O1    O     O_R   0.600040 0.935040 0.546740 -0.539569
O2    O     O_R   0.399960 0.064960 0.453260 -0.548727
O3    O     O_R   0.399960 0.935040 0.453260 -0.539107
O4    O     O_R   0.600040 0.064960 0.546740 -0.545312
O5    O     O_R   0.100040 0.435040 0.546740 -0.539330
O6    O     O_R   0.899960 0.564960 0.453260 -0.547138
O7    O     O_R   0.899960 0.435040 0.453260 -0.538666
O8    O     O_R   0.100040 0.564960 0.546740 -0.548487
O9    O     O_R   0.555010 0.935070 0.653220 -0.597943
O10   O     O_R   0.444990 0.064930 0.346780 -0.599146
O11   O     O_R   0.444990 0.935070 0.346780 -0.598608
O12   O     O_R   0.555010 0.064930 0.653220 -0.601949
O13   O     O_R   0.055010 0.435070 0.653220 -0.600253
O14   O     O_R   0.944990 0.564930 0.346780 -0.600760
O15   O     O_R   0.944990 0.435070 0.346780 -0.598304
O16   O     O_R   0.055010 0.564930 0.653220 -0.600188
H21   H     H_    0.369200 0.991976 0.008449 0.132755
H22   H     H_    0.631102 0.001003 0.991762 0.133221
H23   H     H_    0.868973 0.501161 0.008262 0.133791
H24   H     H_    0.130804 0.490923 0.991570 0.133266
H25   H     H_    0.265890 0.876559 0.355871 0.191428
H26   H     H_    0.728283 0.129665 0.636235 0.173530
H27   H     H_    0.734099 0.876746 0.644062 0.189767
H28   H     H_    0.292921 0.149762 0.392119 0.170568
H29   H     H_    0.791752 0.351113 0.390979 0.189527
H30   H     H_    0.207529 0.649459 0.608620 0.170370
H31   H     H_    0.231919 0.374411 0.641019 0.190556
H32   H     H_    0.794113 0.650616 0.393295 0.170296
O17   O     O_3   0.306809 0.745220 0.718249 -0.578955
C113  C     C_3   0.262617 0.788947 0.627015 -0.363950
H33   H     H_    0.240874 0.829659 0.649763 0.164411
H34   H     H_    0.210111 0.765781 0.546977 0.152361
H35   H     H_    0.303844 0.808103 0.609549 0.201555
O18   O     O_3   0.692927 0.255124 0.281670 -0.572798
C114  C     C_3   0.736971 0.209003 0.368653 -0.376213
H36   H     H_    0.792585 0.229616 0.448629 0.154580
H37   H     H_    0.754109 0.168273 0.339446 0.163720
H38   H     H_    0.697325 0.190472 0.389384 0.196836
O19   O     O_3   0.695265 0.746612 0.284145 -0.578793
C115  C     C_3   0.740078 0.790654 0.374723 -0.366612
H39   H     H_    0.761225 0.831156 0.350666 0.164864
H40   H     H_    0.793075 0.767726 0.454597 0.152499
H41   H     H_    0.699512 0.810058 0.393192 0.201132
O20   O     O_3   0.359705 0.297905 0.787966 -0.579385
C116  C     C_3   0.331269 0.278755 0.677420 -0.343464
H42   H     H_    0.319557 0.320770 0.623924 0.167592
H43   H     H_    0.275904 0.248035 0.633811 0.156932
H44   H     H_    0.380001 0.250544 0.686173 0.193906
O21   O     O_3   0.857002 0.205517 0.784497 -0.583808
C117  C     C_3   0.827892 0.223901 0.673329 -0.340479
H45   H     H_    0.771226 0.253163 0.628429 0.165281
H46   H     H_    0.818143 0.181553 0.621667 0.153519
H47   H     H_    0.875443 0.253331 0.681114 0.196461
O22   O     O_3   0.135543 0.803217 0.205287 -0.579075
C118  C     C_3   0.162694 0.782190 0.314341 -0.351208
H48   H     H_    0.176900 0.823253 0.370921 0.169626
H49   H     H_    0.216150 0.749550 0.355672 0.157057
H50   H     H_    0.112259 0.755433 0.303482 0.191353
O23   O     O_3   0.192492 0.244669 0.280756 -0.580862
C119  C     C_3   0.236537 0.290185 0.368845 -0.367679
H51   H     H_    0.255343 0.330750 0.341565 0.166463
H52   H     H_    0.291042 0.268817 0.449165 0.153497
H53   H     H_    0.196230 0.309143 0.388100 0.200201
O24   O     O_3   0.864551 0.803211 0.794594 -0.579681
C120  C     C_3   0.837595 0.783515 0.685000 -0.353236
H54   H     H_    0.824690 0.825269 0.630359 0.167952
H55   H     H_    0.783381 0.751555 0.641775 0.158049
H56   H     H_    0.887675 0.756444 0.695423 0.191370
H57   H     H_    0.349453 0.857220 0.032943 0.146392
H58   H     H_    0.649301 0.144098 0.965527 0.144954
H59   H     H_    0.651575 0.857862 0.967997 0.147685
H60   H     H_    0.411657 0.197313 0.114039 0.153612
H61   H     H_    0.911578 0.302831 0.114016 0.153816
H62   H     H_    0.083336 0.702191 0.878876 0.146899
H63   H     H_    0.148168 0.355029 0.963617 0.145446
H64   H     H_    0.916436 0.701705 0.120448 0.146852
H65   H     H_    0.447993 0.999903 0.187492 0.146851
H66   H     H_    0.551977 0.002036 0.812396 0.147077
H67   H     H_    0.948062 0.502144 0.187605 0.148376
H68   H     H_    0.052045 0.498904 0.812483 0.148960
O25   O     O_3   0.700190 0.997218 0.517964 -0.557683
C121  C     C_3   0.779215 0.021846 0.570685 -0.390474
H69   H     H_    0.808691 0.030548 0.662641 0.213294
H70   H     H_    0.777289 0.067983 0.532433 0.143766
H71   H     H_    0.817698 0.986636 0.567650 0.169869
O26   O     O_3   0.299035 0.995621 0.482969 -0.563052
C122  C     C_3   0.229188 0.034183 0.434088 -0.353152
H72   H     H_    0.203796 0.045145 0.344276 0.207110
H73   H     H_    0.243637 0.080249 0.479876 0.150493
H74   H     H_    0.181098 0.008261 0.430656 0.165289
O27   O     O_3   0.200965 0.495483 0.517030 -0.562136
C123  C     C_3   0.270721 0.534136 0.565752 -0.353189
H75   H     H_    0.296125 0.545149 0.655548 0.206006
H76   H     H_    0.256156 0.580174 0.519829 0.150229
H77   H     H_    0.318848 0.508273 0.569204 0.165380
O28   O     O_3   0.799023 0.498529 0.482790 -0.553584
C124  C     C_3   0.729401 0.537394 0.433774 -0.343386
H78   H     H_    0.704264 0.548391 0.344079 0.204436
H79   H     H_    0.744089 0.583422 0.479729 0.145603
H80   H     H_    0.681031 0.511694 0.429975 0.168572
H81   H     H_    0.257155 0.990586 0.623850 0.144894
H82   H     H_    0.742924 0.997259 0.374835 0.142532
H83   H     H_    0.756898 0.498272 0.623997 0.148258
H84   H     H_    0.242833 0.489895 0.376230 0.145706

loop_
_geom_bond_atom_site_label_1
_geom_bond_atom_site_label_2
_ccdc_geom_bond_type
C2    O10   A    
C88   C96   A    
C117  H45   S    
C14   H6    S    
C29   C33   A    
C33   C45   A    
O17   C113  S    
Cu1   O11   S    
C5    C56   S    
C19   C23   A    
C28   N4    A    
Cu2   O12   S    
C6    C55   S    
C24   O27   S    
C11   H3    S    
C76   C84   A    
C116  H43   S    
C79   C87   A    
C13   H5    S    
C5    O13   A    
C105  H57   S    
C114  H37   S    
C42   H22   S    
C120  H54   S    
C24   N4    A    
C21   O26   S    
C58   C66   A    
C37   C38   A    
C98   C105  A    
C57   C89   A    
Cu2   O2    S    
C23   N3    A    
C110  H62   S    
C78   H13   S    
C51   C75   A    
C43   H23   S    
C50   C74   A    
C6    O6    A    
C61   C93   A    
C68   H27   S    
C74   H9    S    
C107  H59   S    
C113  H33   S    
C10   C94   A    
C9    C105  A    
C73   H10   S    
C62   O18   S    
C63   C95   A    
C63   O19   S    
O20   C116  S    
C62   C70   A    
C14   C110  A    
C75   H12   S    
C42   C46   A    
Cu2   N1    S    
C37   C42   A    
O18   C114  S    
C14   C90   A    
C13   C109  A    
C86   C94   A    
C117  H47   S    
C59   C67   A    
C12   H4    S    
C85   C93   A    
C67   H28   S    
C60   O24   S    
C40   C43   A    
C20   C24   A    
C59   O23   S    
C119  H51   S    
C56   C72   A    
C87   C95   A    
C65   H26   S    
C1    O9    A    
C34   C46   A    
C21   N1    A    
C97   C102  A    
C52   C68   A    
C115  H41   S    
C19   H83   S    
Cu4   N3    S    
Cu3   O15   S    
C18   H82   S    
C32   C40   A    
O22   C118  S    
C53   C69   A    
C27   H68   S    
C17   H81   S    
C80   H15   S    
C83   C99   A    
C124  H78   S    
C26   H65   S    
C82   C98   A    
C25   H66   S    
C8    O8    A    
C17   C33   A    
C74   C82   A    
C69   H30   S    
C73   C81   A    
C108  H60   S    
C3    C50   S    
C115  H40   S    
C114  H38   S    
C7    O7    A    
C120  H55   S    
C25   C29   A    
C4    O12   A    
C22   O25   S    
C5    O5    A    
C30   C34   A    
C27   C31   A    
C84   C100  A    
C15   C111  A    
C28   C32   A    
C36   C48   A    
C3    O3    A    
C64   C96   A    
C38   C41   A    
O28   C124  S    
C70   H29   S    
C39   C40   A    
C12   C108  A    
C116  H44   S    
C51   C67   A    
C121  H71   S    
C26   N2    A    
C101  C110  A    
C15   C91   A    
Cu3   O8    S    
C58   O22   S    
C100  C103  A    
C27   N3    A    
C25   N1    A    
C118  H48   S    
C66   H25   S    
C103  C112  A    
C20   C36   A    
C53   C77   A    
C57   O21   S    
O25   C121  S    
C10   H2    S    
C46   H18   S    
C55   C79   A    
C123  H77   S    
C84   C92   A    
C122  H72   S    
C54   C70   A    
C123  H76   S    
C49   C73   A    
C59   C91   A    
Cu3   N4    S    
C121  H70   S    
C50   C66   A    
Cu4   O13   S    
C6    O14   A    
C49   C65   A    
C58   C90   A    
C41   H21   S    
C23   O28   S    
C63   C71   A    
C122  H73   S    
C99   C108  A    
C26   C30   A    
C28   H67   S    
C71   H32   S    
C62   C94   A    
Cu3   O14   S    
C11   C107  A    
C2    O2    A    
C72   H31   S    
C87   C103  A    
C10   C106  A    
Cu4   O7    S    
C61   O17   S    
C97   C106  A    
C86   C102  A    
C111  H63   S    
C9    C93   A    
C75   C83   A    
C85   C101  A    
C115  H39   S    
C16   C112  A    
Cu1   Cu2   S    
C120  H56   S    
C11   C95   A    
O21   C117  S    
C20   H84   S    
C22   N2    A    
C100  C107  A    
C117  H46   S    
C47   H19   S    
C18   C22   A    
C45   H17   S    
Cu1   O10   S    
C48   H20   S    
C57   C65   A    
C52   C76   A    
C30   C38   A    
C82   C90   A    
C8    C53   S    
C4    O4    A    
C104  C111  A    
C32   C36   A    
C16   C92   A    
C39   C44   A    
C13   C89   A    
C98   C101  A    
C83   C91   A    
Cu3   O5    S    
C3    O11   A    
C56   C80   A    
Cu1   O4    S    
C4    C49   S    
Cu2   O9    S    
C61   C69   A    
Cu2   O3    S    
C118  H50   S    
C124  H79   S    
C16   H8    S    
C81   C89   A    
C80   C88   A    
C114  H36   S    
C19   C35   A    
Cu4   O6    S    
C78   C86   A    
C116  H42   S    
C113  H34   S    
C18   C34   A    
C119  H53   S    
C44   H24   S    
C79   H16   S    
C123  H75   S    
C81   C97   A    
C54   C78   A    
C31   C39   A    
C99   C104  A    
C31   C35   A    
C77   H14   S    
C112  H64   S    
Cu1   O1    S    
C121  H69   S    
C8    O16   A    
C1    C52   S    
C17   C21   A    
Cu4   O16   S    
C1    O1    A    
C2    C51   S    
C109  H61   S    
C77   C85   A    
O19   C115  S    
C64   O20   S    
O23   C119  S    
C122  H74   S    
C7    O15   A    
O24   C120  S    
C60   C68   A    
C119  H52   S    
O26   C122  S    
C124  H80   S    
C29   C37   A    
O27   C123  S    
C76   H11   S    
C41   C45   A    
Cu1   N2    S    
C12   C96   A    
C102  C109  A    
C15   H7    S    
C7    C54   S    
Cu3   Cu4   S    
C35   C47   A    
C60   C92   A    
C43   C47   A    
C88   C104  A    
C55   C71   A    
C9    H1    S    
C44   C48   A    
C64   C72   A    
C118  H49   S    
C113  H35   S    
C106  H58   S    
