data_mof_unit_59109.cif
_audit_creation_date              2012-12-10T16:50:13-0500
_audit_creation_method            fapswitch 2.2
_symmetry_space_group_name_H-M    P1
_symmetry_Int_Tables_number       1
_space_group_crystal_system       triclinic
_cell_length_a                    23.33308
_cell_length_b                    8.744772
_cell_length_c                    7.542449
_cell_angle_alpha                 103.107666
_cell_angle_beta                  95.608508
_cell_angle_gamma                 93.272556
_cell_volume                      1486.71317241

loop_
_atom_site_label
_atom_site_type_symbol
_atom_type_description
_atom_site_fract_x
_atom_site_fract_y
_atom_site_fract_z
_atom_type_partial_charge
C1    C     C_R   0.498270 0.199963 0.453267 0.853299
C2    C     C_R   0.501264 0.799970 0.546637 0.846627
C3    C     C_R   0.237411 0.513816 0.624928 0.115167
C4    C     C_R   0.764914 0.414316 0.500547 0.102574
C5    C     C_R   0.297954 0.537819 0.640560 0.369071
C6    C     C_R   0.704724 0.394964 0.499530 0.351785
C7    C     C_R   0.327520 0.468848 0.492536 -0.360878
C8    C     C_R   0.671991 0.525500 0.505364 -0.310366
C9    C     C_R   0.296539 0.358893 0.343109 0.350813
C10   C     C_R   0.700000 0.676610 0.522830 0.310374
C11   C     C_R   0.236063 0.340585 0.326972 0.459291
C12   C     C_R   0.760389 0.693715 0.518690 0.422661
C13   C     C_R   0.205597 0.445545 0.451314 -0.040195
C14   C     C_R   0.792427 0.560113 0.494558 0.065060
C15   C     C_2   0.496652 0.031842 0.427592 -0.352162
C16   C     C_2   0.502896 0.968080 0.572230 -0.334219
C17   C     C_R   0.390854 0.494283 0.499177 0.875011
C18   C     C_R   0.608958 0.505536 0.500950 0.925321
C19   C     C_R   0.893714 0.662093 0.587484 0.674434
C20   C     C_R   0.106406 0.399077 0.270115 0.634850
C21   C     C_R   0.868627 0.474493 0.304904 0.644532
C22   C     C_R   0.129253 0.628396 0.503202 0.653727
C23   C     C_R   0.927499 0.449840 0.290863 -0.151365
C24   C     C_R   0.070221 0.651469 0.515997 -0.156361
C25   C     C_R   0.969308 0.553475 0.414971 -0.152796
C26   C     C_R   0.028724 0.538154 0.403854 -0.143086
C27   C     C_R   0.951570 0.672414 0.551486 -0.179617
C28   C     C_R   0.046727 0.411413 0.277539 -0.189704
C29   C     C_R   0.945651 0.321688 0.163867 0.434032
C30   C     C_R   0.051588 0.783377 0.637063 0.400580
C31   C     C_R   0.004852 0.298860 0.163161 0.400633
C32   C     C_R   0.992195 0.794642 0.651692 0.410669
Cu1   Cu    Cu3+1 0.506340 0.517380 0.684380 1.040565
Cu2   Cu    Cu3+1 0.493660 0.482620 0.315620 1.057842
H1    H     H_    0.489940 0.960060 0.288192 0.189563
H2    H     H_    0.509668 0.039848 0.711616 0.188265
N1    N     N_R   0.852525 0.569716 0.460345 -0.421396
N2    N     N_R   0.146049 0.487173 0.408338 -0.426183
N3    N     N_2   0.484110 0.456420 0.038520 0.018335
N4    N     N_2   0.515890 0.543580 0.961480 0.000865
O1    O     O_R   0.504120 0.286130 0.619770 -0.568168
O2    O     O_R   0.495880 0.713870 0.380230 -0.561365
O3    O     O_R   0.493410 0.256770 0.308360 -0.589584
O4    O     O_R   0.506590 0.743230 0.691640 -0.601222
O5    O     O_R   0.423230 0.514630 0.655730 -0.535068
O6    O     O_R   0.576770 0.485370 0.344270 -0.572067
O7    O     O_R   0.412530 0.485280 0.344320 -0.529554
O8    O     O_R   0.587470 0.514720 0.655680 -0.574707
O9    O     O_2   0.879890 0.735821 0.752446 -0.538645
O10   O     O_2   0.123315 0.311847 0.116858 -0.437137
O11   O     O_2   0.827734 0.399702 0.169228 -0.488925
O12   O     O_2   0.169524 0.748091 0.579466 -0.522344
O13   O     O_3   0.905925 0.214723 0.043038 -0.539266
C33   C     C_3   0.888794 0.091027 0.124118 -0.196700
H3    H     H_    0.841181 0.084493 0.123700 0.203819
H4    H     H_    0.908778 0.101252 0.267378 0.109373
H5    H     H_    0.899604 0.978002 0.038964 0.225132
O14   O     O_3   0.091225 0.891127 0.757673 -0.529860
C34   C     C_3   0.101754 0.024145 0.685455 -0.085525
H6    H     H_    0.100410 0.994213 0.533524 0.064088
H7    H     H_    0.145673 0.079364 0.742328 0.219615
H8    H     H_    0.070853 0.113019 0.729507 0.202693
O15   O     O_3   0.021179 0.163249 0.052635 -0.505671
C35   C     C_3   0.034493 0.053570 0.159901 -0.122898
H9    H     H_    0.996304 0.970729 0.154333 0.148857
H10   H     H_    0.050352 0.107927 0.306041 0.049306
H11   H     H_    0.068905 0.982958 0.100785 0.225594
O16   O     O_3   0.974286 0.929831 0.758009 -0.515121
C36   C     C_3   0.952150 0.022970 0.640447 -0.199704
H12   H     H_    0.982097 0.039799 0.538974 0.072703
H13   H     H_    0.946060 0.141385 0.723767 0.245309
H14   H     H_    0.909550 0.970936 0.566500 0.182728
I1    I     I_    0.197282 0.554298 0.873146 -0.225430
I2    I     I_    0.815565 0.227235 0.527870 -0.353789
O17   O     O_3   0.328150 0.620429 0.804322 -0.518766
C37   C     C_3   0.332851 0.781618 0.802762 -0.181700
H15   H     H_    0.289658 0.829267 0.796886 0.198077
H16   H     H_    0.356021 0.803008 0.687280 0.122714
H17   H     H_    0.358471 0.847490 0.931789 0.174170
O18   O     O_3   0.678389 0.251037 0.506644 -0.555738
C38   C     C_3   0.663095 0.161098 0.326018 -0.206238
H18   H     H_    0.631686 0.219115 0.247754 0.146184
H19   H     H_    0.641881 0.046163 0.332503 0.228638
H20   H     H_    0.701772 0.137045 0.251898 0.184335
O19   O     O_3   0.325137 0.266649 0.210787 -0.499574
C39   C     C_3   0.343757 0.134864 0.272783 -0.226200
H21   H     H_    0.361454 0.163663 0.420232 0.117312
H22   H     H_    0.378933 0.087219 0.193311 0.177714
H23   H     H_    0.308085 0.040356 0.246195 0.177387
O20   O     O_3   0.668720 0.807334 0.529077 -0.545713
C40   C     C_3   0.652695 0.861746 0.707199 -0.279133
H24   H     H_    0.683616 0.839432 0.818921 0.134929
H25   H     H_    0.609998 0.807342 0.717566 0.196953
H26   H     H_    0.649204 0.990732 0.732295 0.204987
O21   O     O_3   0.210324 0.204633 0.208142 -0.490799
C41   C     C_3   0.190993 0.099875 0.311453 -0.231976
H27   H     H_    0.154716 0.145824 0.386596 0.133519
H28   H     H_    0.226310 0.076980 0.410139 0.131734
H29   H     H_    0.175143 0.985620 0.216395 0.209679
O22   O     O_3   0.788477 0.840878 0.537326 -0.549222
C42   C     C_3   0.789385 0.928698 0.720566 -0.115167
H30   H     H_    0.784515 0.856258 0.823308 0.126810
H31   H     H_    0.755924 0.014080 0.729180 0.208259
H32   H     H_    0.831592 0.998184 0.762237 0.224684
I3    I     I_    0.419732 0.286246 0.896267 -0.181238
I4    I     I_    0.580771 0.712550 0.101851 -0.250707

loop_
_geom_bond_atom_site_label_1
_geom_bond_atom_site_label_2
_ccdc_geom_bond_type
C42   H30   S    
Cu1   O5    S    
O21   C41   S    
Cu2   O2    S    
C37   H17   S    
C38   H18   S    
O13   C33   S    
C23   C29   A    
C22   O12   S    
C24   C26   A    
C39   H22   S    
C15   C16   D    
C22   N2    A    
C41   H29   S    
C7    C9    A    
C36   H13   S    
C20   O10   S    
C19   N1    A    
C9    O19   S    
C1    O3    A    
C2    O4    A    
O16   C36   S    
C7    C17   S    
C41   H28   S    
C1    C15   S    
C19   C27   A    
C4    I2    S    
C3    C13   A    
C32   O16   S    
C34   H6    S    
C42   H31   S    
C18   O6    A    
C15   H1    S    
C38   H19   S    
C33   H4    S    
C34   H7    S    
Cu1   N4    S    
C37   H16   S    
C35   H11   S    
C31   O15   S    
C37   H15   S    
C4    C6    A    
C40   H24   S    
C5    C7    A    
C39   H21   S    
C6    C8    A    
C20   C28   A    
O14   C34   S    
O19   C39   S    
C8    C18   S    
Cu2   N3    S    
C35   H10   S    
C5    O17   S    
C36   H14   S    
O17   C37   S    
C40   H25   S    
C20   N2    A    
C19   O9    S    
C6    O18   S    
C41   H27   S    
Cu1   Cu2   S    
C9    C11   A    
C13   N2    S    
C10   C12   A    
Cu2   O6    S    
C1    O1    A    
C12   C14   A    
C42   H32   S    
C21   C23   A    
C22   C24   A    
C21   O11   S    
C38   H20   S    
C2    C16   S    
N4    I4    S    
C11   O21   S    
N3    I3    S    
C33   H3    S    
C34   H8    S    
C27   C32   A    
Cu1   O4    S    
C28   C31   A    
Cu2   O3    S    
C17   O7    A    
C17   O5    A    
O18   C38   S    
C3    C5    A    
C39   H23   S    
C18   O8    A    
C25   C27   A    
C26   C28   A    
Cu1   O1    S    
C35   H9    S    
C25   C26   A    
C29   C31   A    
C16   H2    S    
C40   H26   S    
C30   C32   A    
C11   C13   A    
O20   C40   S    
C29   O13   S    
C2    O2    A    
C30   O14   S    
O22   C42   S    
C23   C25   A    
C4    C14   A    
C36   H12   S    
C3    I1    S    
C24   C30   A    
C12   O22   S    
O15   C35   S    
N3    N4    D    
C21   N1    A    
C10   O20   S    
C8    C10   A    
Cu1   O8    S    
Cu2   O7    S    
C14   N1    S    
C33   H5    S    
