data_mof_unit_18155.cif
_audit_creation_date              2013-03-05T15:40:03-0500
_audit_creation_method            fapswitch 2.2
_symmetry_space_group_name_H-M    P1
_symmetry_Int_Tables_number       1
_space_group_crystal_system       triclinic
_cell_length_a                    7.75547
_cell_length_b                    8.605179
_cell_length_c                    10.73626
_cell_angle_alpha                 90.849317
_cell_angle_beta                  85.91498
_cell_angle_gamma                 93.558942
_cell_volume                      713.270454166

loop_
_atom_site_label
_atom_site_type_symbol
_atom_site_description
_atom_site_fract_x
_atom_site_fract_y
_atom_site_fract_z
_atom_type_partial_charge
O1    O     O_R   0.389250 0.738570 0.508180 -0.641805
O2    O     O_R   0.678390 0.711630 0.486820 -0.602643
C1    C     C_R   0.546052 0.794201 0.501554 0.859744
O3    O     O_R   0.355470 0.513470 0.691600 -0.578916
O4    O     O_R   0.644610 0.486520 0.670240 -0.598694
C2    C     C_R   0.501411 0.490847 0.736946 0.927403
Zn1   Zn    Zn3+2 0.306940 0.517990 0.514260 1.027369
Zn2   Zn    Zn3+2 0.693060 0.482010 0.485740 1.036274
O5    O     O_R   0.321610 0.288370 0.513180 -0.632636
O6    O     O_R   0.610750 0.261430 0.491820 -0.547176
O7    O     O_R   0.355390 0.513480 0.329760 -0.587159
O8    O     O_R   0.644530 0.486530 0.308400 -0.624367
C3    C     C_R   0.455063 0.205392 0.506462 0.960764
C4    C     C_R   0.499116 0.505461 0.262561 0.861224
C5    C     C_2   0.630961 0.461723 0.061643 -0.302822
C6    C     C_2   0.504787 0.529915 0.131004 0.104713
H1    H     H_    0.722805 0.391701 0.103920 0.191505
C7    C     C_2   0.648383 0.468336 0.927760 0.363256
C8    C     C_2   0.502832 0.461394 0.866994 -0.371705
H2    H     H_    0.376693 0.440477 0.916845 0.187798
C9    C     C_2   0.572758 0.956394 0.516108 0.336162
C10   C     C_2   0.433822 0.042035 0.511312 -0.476149
H3    H     H_    0.302732 0.991149 0.505153 0.173811
N1    N     N_2   0.950320 0.457950 0.466680 -0.138894
H4    H     H_    0.013801 0.382301 0.406987 0.210508
N2    N     N_2   0.049680 0.542050 0.533320 -0.135604
H5    H     H_    0.986153 0.617591 0.593106 0.215392
N3    N     N_R   0.397672 0.643215 0.082839 0.208028
O9    O     O_R   0.238174 0.652333 0.127558 -0.327750
O10   O     O_R   0.466302 0.751481 0.008102 -0.372916
N4    N     N_R   0.819957 0.474679 0.867126 0.222741
O11   O     O_R   0.935023 0.579339 0.902757 -0.336144
O12   O     O_R   0.871942 0.354825 0.802853 -0.409758
O13   O     O_3   0.740662 0.018839 0.527135 -0.582529
C11   C     C_3   0.779288 0.009833 0.653160 -0.150971
H6    H     H_    0.780459 0.886704 0.683389 0.146423
H7    H     H_    0.686727 0.074086 0.715741 0.172777
H8    H     H_    0.910784 0.065198 0.662823 0.212742

loop_
_geom_bond_atom_site_label_1
_geom_bond_atom_site_label_2
_geom_bond_distance
_ccdc_geom_bond_type
C6    N3    1.443876 S    
O4    Zn2   1.989953 S    
N4    O12   1.301283 A    
C9    O13   1.389836 S    
C5    C7    1.435770 S    
N4    O11   1.300942 A    
Zn2   O8    1.968343 S    
C8    H2    1.087325 S    
N3    O10   1.301871 A    
O2    C1    1.283487 A    
C9    C10   1.346998 D    
Zn1   O7    1.989953 S    
C2    C8    1.423664 S    
N2    H5    1.029387 S    
Zn1   N2    2.014276 S    
O3    Zn1   1.968343 S    
Zn2   O6    1.965187 S    
N3    O9    1.301194 A    
Zn2   N1    2.014276 S    
O8    C4    1.282507 A    
C3    C10   1.406451 S    
C7    C8    1.341196 D    
O4    C2    1.280115 A    
O7    C4    1.288896 A    
C4    C6    1.428273 S    
C1    C9    1.406253 S    
C5    C6    1.345712 D    
Zn1   O5    1.986049 S    
C11   H8    1.109528 S    
N1    H4    1.029242 S    
O3    C2    1.290220 A    
O13   C11   1.410742 S    
C5    H1    1.088076 S    
O5    C3    1.290678 A    
C10   H3    1.087733 S    
C7    N4    1.437349 S    
C11   H7    1.114445 S    
O1    Zn1   1.965186 S    
O2    Zn2   1.986048 S    
C11   H6    1.113493 S    
N1    N2    1.274124 D    
O1    C1    1.276510 A    
O6    C3    1.272019 A    
