data_mof_unit_36665.cif
_audit_creation_date              2012-12-10T17:07:12-0500
_audit_creation_method            fapswitch 2.2
_symmetry_space_group_name_H-M    P1
_symmetry_Int_Tables_number       1
_space_group_crystal_system       triclinic
_cell_length_a                    17.276811
_cell_length_b                    11.020984
_cell_length_c                    9.920903
_cell_angle_alpha                 111.754692
_cell_angle_beta                  94.016532
_cell_angle_gamma                 93.458182
_cell_volume                      1742.56203883

loop_
_atom_site_label
_atom_site_type_symbol
_atom_type_description
_atom_site_fract_x
_atom_site_fract_y
_atom_site_fract_z
_atom_type_partial_charge
C1    C     C_R   0.493944 0.253411 0.439973 0.863963
C2    C     C_R   0.504818 0.746538 0.560211 0.881433
C3    C     C_2   0.488533 0.111406 0.403919 0.047053
C4    C     C_2   0.505174 0.888291 0.596972 0.022523
C5    C     C_2   0.482509 0.068416 0.513364 -0.118525
C6    C     C_2   0.480566 0.929556 0.491087 -0.164101
C7    C     C_2   0.505874 0.514332 0.081635 0.048328
C8    C     C_2   0.488257 0.498468 0.923721 0.006088
C9    C     C_R   0.352283 0.501336 0.519241 0.855512
C10   C     C_R   0.647692 0.498460 0.480747 0.884068
C11   C     C_R   0.268480 0.500600 0.528478 -0.057718
C12   C     C_R   0.731451 0.498266 0.471846 -0.012420
C13   C     C_R   0.218861 0.390454 0.432965 -0.072188
C14   C     C_R   0.781075 0.608132 0.567727 -0.121579
C15   C     C_R   0.137955 0.401131 0.416071 -0.036527
C16   C     C_R   0.861236 0.595321 0.590357 -0.038149
C17   C     C_R   0.108528 0.520763 0.497635 0.034840
C18   C     C_R   0.890740 0.475347 0.509422 0.092093
C19   C     C_R   0.157897 0.626470 0.594575 -0.088169
C20   C     C_R   0.841526 0.370256 0.410884 -0.172985
C21   C     C_R   0.237730 0.617768 0.611815 0.115996
C22   C     C_R   0.761940 0.380018 0.391097 0.126667
C23   C     C_2   0.025303 0.538207 0.489457 -0.192419
C24   C     C_2   0.973861 0.457562 0.517695 -0.117115
Cu1   Cu    Cu3+1 0.513640 0.521550 0.643210 0.966193
Cu2   Cu    Cu3+1 0.486360 0.478450 0.356790 0.985702
H1    H     H_    0.992199 0.372436 0.537365 0.170080
H2    H     H_    0.006844 0.623530 0.470330 0.163959
H3    H     H_    0.133617 0.716607 0.656984 0.168194
H4    H     H_    0.865711 0.279761 0.349281 0.151815
H5    H     H_    0.460245 0.858555 0.382970 0.164319
H6    H     H_    0.481136 0.138236 0.624010 0.148392
H7    H     H_    0.584927 0.607319 0.915554 0.216066
H8    H     H_    0.423851 0.373665 0.077384 0.218049
N1    N     N_2   0.465840 0.446060 0.141630 -0.310098
N2    N     N_2   0.534160 0.553940 0.858370 -0.327149
O1    O     O_R   0.507280 0.332200 0.576490 -0.627680
O2    O     O_R   0.492720 0.667800 0.423510 -0.619184
O3    O     O_R   0.484240 0.295800 0.334620 -0.565690
O4    O     O_R   0.515760 0.704200 0.665380 -0.563599
O5    O     O_R   0.399260 0.520290 0.634950 -0.577906
O6    O     O_R   0.600740 0.479710 0.365050 -0.545617
O7    O     O_R   0.376220 0.483890 0.393080 -0.576009
O8    O     O_R   0.623780 0.516110 0.606920 -0.579747
C25   C     C_2   0.252033 0.266917 0.345748 0.449807
H9    H     H_    0.227868 0.209929 0.234541 0.110251
O9    O     O_2   0.305898 0.226592 0.398430 -0.568249
C26   C     C_2   0.748719 0.734594 0.648779 0.349904
H10   H     H_    0.774011 0.797091 0.757506 0.068925
O10   O     O_2   0.694274 0.771470 0.593408 -0.545789
C27   C     C_3   0.710056 0.261851 0.288939 -0.820277
H11   H     H_    0.666464 0.231193 0.350003 0.213560
H12   H     H_    0.679396 0.286249 0.201430 0.258972
H13   H     H_    0.743816 0.177016 0.236218 0.231315
C28   C     C_3   0.289530 0.736236 0.713570 -0.799431
H14   H     H_    0.332187 0.768069 0.651790 0.209642
H15   H     H_    0.255550 0.820349 0.767858 0.231276
H16   H     H_    0.321257 0.711639 0.799936 0.263786
C29   C     C_2   0.913017 0.706200 0.699875 0.341078
H17   H     H_    0.903567 0.806802 0.715849 0.064428
O11   O     O_2   0.965617 0.686330 0.775769 -0.507481
C30   C     C_2   0.083769 0.290957 0.311277 0.304290
H18   H     H_    0.034174 0.311665 0.252556 0.098072
O12   O     O_2   0.091720 0.177076 0.294419 -0.530091
C31   C     C_3   0.534003 0.983336 0.749784 -0.814845
H19   H     H_    0.555809 0.932443 0.820604 0.249978
H20   H     H_    0.582872 0.051649 0.745490 0.247229
H21   H     H_    0.485829 0.040212 0.801491 0.216544
C32   C     C_3   0.491574 0.018309 0.247671 -0.854095
H22   H     H_    0.501166 0.071229 0.173581 0.245338
H23   H     H_    0.540427 0.955984 0.241369 0.225491
H24   H     H_    0.435800 0.955070 0.207179 0.248640
C33   C     C_2   0.414395 0.422129 0.845537 0.427287
H25   H     H_    0.413269 0.342202 0.741430 0.111359
O13   O     O_2   0.352892 0.449081 0.898199 -0.556110
C34   C     C_2   0.570682 0.611038 0.168504 0.469620
H26   H     H_    0.559645 0.710763 0.232719 0.055919
O14   O     O_2   0.637677 0.581624 0.161027 -0.543106

loop_
_geom_bond_atom_site_label_1
_geom_bond_atom_site_label_2
_ccdc_geom_bond_type
C28   H14   S    
C10   O6    A    
C33   H25   S    
C24   H1    S    
C7    C8    S    
C20   H4    S    
C25   H9    S    
C17   C23   S    
C18   C24   S    
C19   C21   A    
C34   O14   D    
Cu1   O4    S    
C5    C6    S    
Cu2   O3    S    
C12   C22   A    
H7    N2    S    
H8    N1    S    
C8    N2    D    
C32   H23   S    
C30   O12   D    
Cu1   O1    S    
C31   H20   S    
C23   C24   D    
C1    O1    A    
C5    H6    S    
C26   O10   D    
C6    H5    S    
C29   H17   S    
C33   O13   D    
Cu1   O8    S    
Cu2   O7    S    
C25   O9    D    
C9    O7    A    
C29   O11   D    
C10   O8    A    
C27   H11   S    
C34   H26   S    
C4    C6    D    
Cu1   O5    S    
C21   C28   S    
Cu2   O2    S    
C14   C26   S    
Cu1   Cu2   S    
C11   C21   A    
C27   H12   S    
C16   C29   S    
C32   H24   S    
C2    C4    S    
C30   H18   S    
C2    O2    A    
C31   H21   S    
C23   H2    S    
C9    C11   S    
C10   C12   S    
C26   H10   S    
C12   C14   A    
C28   H15   S    
C14   C16   A    
C19   H3    S    
Cu2   O6    S    
C15   C17   A    
C3    C32   S    
C7    N1    D    
C20   C22   A    
C3    C5    D    
C7    C34   S    
C9    O5    A    
C27   H13   S    
C13   C15   A    
C13   C25   S    
C11   C13   A    
C4    C31   S    
C8    C33   S    
C17   C19   A    
C15   C30   S    
C18   C20   A    
C32   H22   S    
C1    O3    A    
Cu1   N2    S    
C2    O4    A    
Cu2   N1    S    
C16   C18   A    
C31   H19   S    
C28   H16   S    
C1    C3    S    
C22   C27   S    
