data_mof_unit_23967.cif
_audit_creation_date              2012-12-11T14:29:24-0500
_audit_creation_method            fapswitch 2.2
_symmetry_space_group_name_H-M    P1
_symmetry_Int_Tables_number       1
_space_group_crystal_system       triclinic
_cell_length_a                    6.936301
_cell_length_b                    14.741604
_cell_length_c                    16.248697
_cell_angle_alpha                 90.513309
_cell_angle_beta                  90.283546
_cell_angle_gamma                 89.791492
_cell_volume                      1661.36730065

loop_
_atom_site_label
_atom_site_type_symbol
_atom_type_description
_atom_site_fract_x
_atom_site_fract_y
_atom_site_fract_z
_atom_type_partial_charge
O1    O     O_R   0.494400 0.416610 0.413880 -0.547005
O2    O     O_R   0.823920 0.406790 0.585520 -0.505052
O3    O     O_R   0.994250 0.583390 0.586120 -0.538644
C1    C     C_R   0.655737 0.384969 0.613718 0.768288
O4    O     O_R   0.824110 0.405730 0.414490 -0.542975
O5    O     O_R   0.994440 0.582310 0.413870 -0.505234
C2    C     C_R   0.654789 0.383700 0.386301 0.748098
O6    O     O_R   0.494210 0.417690 0.586130 -0.552175
O7    O     O_3   0.660810 0.557940 0.500000 -0.364976
V1    V     V_3+5 0.935650 0.489250 0.500000 1.503747
O8    O     O_R   0.324160 0.593210 0.414480 -0.546476
C3    C     C_R   0.154289 0.615016 0.386177 0.761947
O9    O     O_R   0.323970 0.594270 0.585510 -0.544462
C4    C     C_R   0.155200 0.616187 0.613890 0.688485
V2    V     V_3+5 0.435660 0.510750 0.500000 1.451143
O10   O     O_3   0.160630 0.442060 0.500000 -0.372678
H1    H     H_    0.831758 0.893608 0.519545 0.117555
C5    C     C_R   0.312483 0.578381 0.775706 -0.134019
C6    C     C_R   0.388185 0.557610 0.852851 -0.120672
C7    C     C_R   0.375476 0.620115 0.917080 -0.119658
C8    C     C_R   0.287060 0.703911 0.904670 -0.131242
C9    C     C_R   0.211059 0.727623 0.826693 0.069119
C10   C     C_R   0.223978 0.663431 0.760749 0.068038
C11   C     C_R   0.119478 0.812743 0.814375 -0.184237
C12   C     C_R   0.040673 0.833455 0.735921 0.069646
C13   C     C_R   0.053586 0.769261 0.669975 0.066423
C14   C     C_R   0.145167 0.684135 0.682295 -0.184046
C15   C     C_R   0.952198 0.918517 0.720969 -0.141769
C16   C     C_R   0.876594 0.939313 0.643816 -0.123885
C17   C     C_R   0.889270 0.876801 0.579585 -0.118448
C18   C     C_R   0.977589 0.792979 0.591998 -0.131791
H2    H     H_    0.323013 0.526547 0.728433 0.118796
H3    H     H_    0.455681 0.492291 0.862989 0.116728
H4    H     H_    0.433042 0.603319 0.977114 0.114905
H5    H     H_    0.277565 0.749218 0.957210 0.107188
H6    H     H_    0.941640 0.970346 0.768249 0.111360
H7    H     H_    0.809203 0.004658 0.633680 0.119901
H8    H     H_    0.987037 0.747663 0.539460 0.109449
C19   C     C_2   0.978548 0.708173 0.280519 0.382938
C20   C     C_2   0.144179 0.683986 0.319930 -0.321331
H9    H     H_    0.279373 0.716068 0.304654 0.088450
C21   C     C_2   0.972502 0.779394 0.214776 -0.232689
C22   C     C_2   0.127076 0.812947 0.175705 -0.347725
H10   H     H_    0.830862 0.803946 0.196575 0.139063
H11   H     H_    0.271203 0.789610 0.190609 0.127721
C23   C     C_2   0.779696 0.207258 0.782587 -0.237190
C24   C     C_2   0.613838 0.181853 0.818555 -0.348873
H12   H     H_    0.912432 0.174442 0.802216 0.139557
H13   H     H_    0.477743 0.213306 0.802347 0.126702
C25   C     C_2   0.798467 0.279631 0.718534 0.383898
C26   C     C_2   0.643503 0.315361 0.678953 -0.322620
H14   H     H_    0.499351 0.292552 0.693069 0.093229
C27   C     C_2   0.779436 0.209068 0.214020 -0.130390
C28   C     C_2   0.614199 0.181888 0.177366 -0.309402
H15   H     H_    0.915428 0.180416 0.193254 0.137080
H16   H     H_    0.476528 0.209864 0.195993 0.127599
C29   C     C_2   0.791719 0.277571 0.281951 -0.131632
C30   C     C_2   0.638183 0.315463 0.319507 -0.305556
H17   H     H_    0.935726 0.296755 0.301870 0.133885
H18   H     H_    0.493017 0.296957 0.301512 0.127350
O11   O     O_R   0.770210 0.079270 0.910680 -0.540980
O12   O     O_R   0.440150 0.091160 0.082270 -0.545897
O13   O     O_R   0.269970 0.914530 0.082860 -0.545691
C31   C     C_R   0.608902 0.113273 0.110494 0.743504
O14   O     O_R   0.440480 0.090100 0.911240 -0.546295
O15   O     O_R   0.270310 0.913460 0.910610 -0.537117
C32   C     C_R   0.608682 0.112094 0.883380 0.769451
O16   O     O_R   0.769870 0.080340 0.082930 -0.539149
O17   O     O_3   0.603660 0.938980 0.996790 -0.370734
V3    V     V_3+5 0.328750 0.007610 0.996740 1.402029
O18   O     O_R   0.940600 0.902510 0.911180 -0.539484
C33   C     C_R   0.109392 0.880665 0.882793 0.693494
O19   O     O_R   0.940270 0.903570 0.082200 -0.539849
C34   C     C_R   0.110122 0.881717 0.110174 0.760599
V4    V     V_3+5 0.828770 0.986010 0.996670 1.415535
O20   O     O_3   0.103730 0.054750 0.996710 -0.374663
O21   O     O_3   0.980689 0.309993 0.698298 -0.634738
H19   H     H_    0.077520 0.278834 0.733192 0.269784
O22   O     O_3   0.807832 0.666837 0.302731 -0.631973
H20   H     H_    0.701514 0.690426 0.267919 0.270736

loop_
_geom_bond_atom_site_label_1
_geom_bond_atom_site_label_2
_ccdc_geom_bond_type
O19   C34   A    
C6    C7    A    
C1    O6    A    
C24   H13   S    
C27   C28   D    
O11   V4    S    
O16   V4    S    
C13   C14   A    
C31   O16   A    
C15   C16   A    
O5    C3    A    
C17   C18   A    
C29   H17   S    
C30   H18   S    
V2    O10   S    
O12   V3    S    
C5    C6    A    
O12   C31   A    
O8    V2    S    
O15   C33   A    
O14   C32   A    
O1    V2    S    
C10   C14   A    
C4    C14   S    
O7    V1    S    
C2    C30   S    
C7    H4    S    
C22   C34   S    
C13   C18   A    
O9    C4    A    
H1    C17   S    
O19   V4    S    
C21   H10   S    
C24   C32   S    
C19   C21   S    
C23   H12   S    
C27   H15   S    
C28   H16   S    
C1    C26   S    
C26   H14   S    
C11   C12   A    
C6    H3    S    
C19   C20   D    
O4    C2    A    
C27   C29   S    
C12   C13   A    
O21   H19   S    
C5    C10   A    
C12   C15   A    
C19   O22   S    
C3    C20   S    
O2    C1    A    
V4    O20   S    
C16   C17   A    
O11   C32   A    
O13   V3    S    
C25   C26   D    
C22   H11   S    
O3    C4    A    
C20   H9    S    
O6    V2    S    
O9    V2    S    
V3    O20   S    
C9    C11   A    
C5    H2    S    
C21   C22   D    
O2    V1    S    
C25   O21   S    
C11   C33   S    
C23   C24   D    
O1    C2    A    
O5    V1    S    
O8    C3    A    
C8    H5    S    
O13   C34   A    
C23   C25   S    
C18   H8    S    
O7    V2    S    
O18   C33   A    
O3    V1    S    
V1    O10   S    
O18   V4    S    
C29   C30   D    
O15   V3    S    
C28   C31   S    
O17   V4    S    
O17   V3    S    
O22   H20   S    
O4    V1    S    
C7    C8    A    
C15   H6    S    
C16   H7    S    
C9    C10   A    
C8    C9    A    
O14   V3    S    
