data_mof_unit_40686.cif
_audit_creation_date              2012-12-11T15:16:38-0500
_audit_creation_method            fapswitch 2.2
_symmetry_space_group_name_H-M    P1
_symmetry_Int_Tables_number       1
_space_group_crystal_system       triclinic
_cell_length_a                    25.187482
_cell_length_b                    7.224929
_cell_length_c                    21.846286
_cell_angle_alpha                 90.008921
_cell_angle_beta                  110.320188
_cell_angle_gamma                 90.013828
_cell_volume                      3728.12702691

loop_
_atom_site_label
_atom_site_type_symbol
_atom_type_description
_atom_site_fract_x
_atom_site_fract_y
_atom_site_fract_z
_atom_type_partial_charge
O1    O     O_R   0.554350 0.505270 0.581390 -0.533144
O2    O     O_R   0.445650 0.005270 0.418610 -0.533199
O3    O     O_R   0.553380 0.177580 0.454800 -0.530859
O4    O     O_R   0.446620 0.677580 0.545200 -0.530903
C1    C     C_R   0.566195 0.345291 0.438340 0.678122
C2    C     C_R   0.433791 0.845280 0.561646 0.678199
O5    O     O_R   0.560970 0.175640 0.583140 -0.535214
O6    O     O_R   0.439030 0.675640 0.416860 -0.535196
O7    O     O_R   0.453290 0.004120 0.547860 -0.517686
O8    O     O_R   0.546710 0.504120 0.452140 -0.517629
C3    C     C_R   0.576247 0.343846 0.607654 0.677554
C4    C     C_R   0.423748 0.843769 0.392346 0.677553
O9    O     O_3   0.464660 0.338800 0.488280 -0.354174
O10   O     O_3   0.535340 0.838800 0.511720 -0.354126
V1    V     V_3+5 0.506560 0.064420 0.502170 1.524310
V2    V     V_3+5 0.493440 0.564420 0.497830 1.524405
C5    C     C_R   0.147690 0.954082 0.290242 -0.139857
C6    C     C_R   0.852501 0.448974 0.709723 -0.140012
H1    H     H_    0.233705 0.955687 0.402447 0.142843
H2    H     H_    0.766593 0.448099 0.597419 0.142658
C7    C     C_R   0.120778 0.940216 0.172760 -0.045178
C8    C     C_R   0.879246 0.439733 0.827236 -0.045218
C9    C     C_R   0.395866 0.805734 0.273658 -0.185434
C10   C     C_R   0.603958 0.309167 0.726460 -0.185419
C11   C     C_R   0.356026 0.771382 0.212405 -0.124331
C12   C     C_R   0.643688 0.276351 0.787898 -0.124260
C13   C     C_R   0.297926 0.779439 0.201721 -0.010537
C14   C     C_R   0.701819 0.283205 0.798672 -0.010975
C15   C     C_R   0.278925 0.848395 0.252030 0.016867
C16   C     C_R   0.720997 0.349204 0.748126 0.016695
C17   C     C_R   0.320534 0.870349 0.316228 0.061237
C18   C     C_R   0.679487 0.369418 0.683791 0.061275
C19   C     C_R   0.220617 0.891324 0.242217 0.081397
C20   C     C_R   0.779375 0.390885 0.757854 0.081192
C21   C     C_R   0.204674 0.923458 0.297666 0.128582
C22   C     C_R   0.795450 0.419893 0.702331 0.128562
C23   C     C_R   0.245692 0.929258 0.360148 -0.170982
C24   C     C_R   0.754505 0.424036 0.639785 -0.171015
C25   C     C_R   0.302730 0.908740 0.369125 -0.167035
C26   C     C_R   0.697423 0.404854 0.630795 -0.166589
C27   C     C_R   0.177881 0.913079 0.179618 -0.133708
C28   C     C_R   0.822078 0.414276 0.820394 -0.134879
C29   C     C_R   0.106055 0.959043 0.228409 -0.170192
C30   C     C_R   0.894087 0.455340 0.771571 -0.170530
C31   C     C_R   0.379149 0.847306 0.326596 -0.087030
C32   C     C_R   0.620821 0.347804 0.673417 -0.086820
H3    H     H_    0.370949 0.723224 0.174248 0.170523
H4    H     H_    0.628634 0.230476 0.826215 0.170501
C33   C     C_R   0.103460 0.790852 0.860583 -0.110580
C34   C     C_R   0.896485 0.290811 0.139360 -0.110551
C35   C     C_R   0.138840 0.779042 0.823793 -0.097311
C36   C     C_R   0.861100 0.279006 0.176145 -0.097560
H5    H     H_    0.134142 0.661706 0.791445 0.158423
H6    H     H_    0.865773 0.161672 0.208473 0.158525
C37   C     C_R   0.180215 0.913827 0.828892 -0.060688
C38   C     C_R   0.819757 0.413809 0.171073 -0.060785
C39   C     C_R   0.185466 0.065530 0.872164 -0.073607
C40   C     C_R   0.814533 0.565501 0.127823 -0.073528
C41   C     C_R   0.150412 0.074787 0.911197 -0.078073
C42   C     C_R   0.849586 0.574741 0.088788 -0.078967
C43   C     C_R   0.108099 0.937628 0.904281 -0.119701
C44   C     C_R   0.891879 0.437589 0.095690 -0.119983
N1    N     N_R   0.273553 0.942174 0.814805 -0.245366
N2    N     N_R   0.726427 0.442144 0.185170 -0.245412
N3    N     N_R   0.307429 0.922392 0.780040 -0.254219
N4    N     N_R   0.692553 0.422390 0.219941 -0.254229
C45   C     C_R   0.288015 0.845217 0.719599 0.566181
C46   C     C_R   0.711964 0.345296 0.280381 0.566142
N5    N     N_R   0.233090 0.789346 0.695250 -0.247973
N6    N     N_R   0.766884 0.289477 0.304725 -0.247984
N7    N     N_R   0.199147 0.809469 0.730072 -0.264879
N8    N     N_R   0.800825 0.309569 0.269897 -0.264803
C47   C     C_R   0.218466 0.888453 0.790351 0.556685
C48   C     C_R   0.781508 0.388467 0.209619 0.556671
C49   C     C_R   0.326997 0.685358 0.639485 -0.003663
C50   C     C_R   0.673000 0.185504 0.360523 -0.003775
C51   C     C_R   0.360736 0.697107 0.599813 -0.195264
C52   C     C_R   0.639262 0.197246 0.400193 -0.195075
H7    H     H_    0.361548 0.580673 0.569114 0.200574
H8    H     H_    0.638464 0.080861 0.430911 0.200477
C53   C     C_R   0.394019 0.854016 0.599634 -0.147328
C54   C     C_R   0.605950 0.354054 0.400335 -0.147247
C55   C     C_R   0.390252 0.008424 0.638634 0.021878
C56   C     C_R   0.609667 0.508356 0.361275 0.021941
C57   C     C_R   0.357237 0.995474 0.678648 -0.152416
C58   C     C_R   0.642702 0.495438 0.321284 -0.152381
C59   C     C_R   0.325067 0.837856 0.679372 -0.067071
C60   C     C_R   0.674910 0.337927 0.320607 -0.067073
O11   O     O_R   0.953220 0.285790 0.047790 -0.532853
O12   O     O_R   0.046780 0.785790 0.952210 -0.532917
O13   O     O_R   0.939020 0.617570 0.916840 -0.532421
O14   O     O_R   0.060980 0.117570 0.083160 -0.532214
C61   C     C_R   0.923924 0.448570 0.892359 0.698332
C62   C     C_R   0.076084 0.948646 0.107639 0.698308
O15   O     O_R   0.946600 0.615450 0.045180 -0.536857
O16   O     O_R   0.053400 0.115450 0.954820 -0.536823
O17   O     O_R   0.054370 0.786770 0.081410 -0.530807
O18   O     O_R   0.945630 0.286770 0.918590 -0.530757
C63   C     C_R   0.933040 0.446927 0.060083 0.703420
C64   C     C_R   0.066953 0.946943 0.939906 0.703351
O19   O     O_3   0.035300 0.454160 0.011680 -0.369069
O20   O     O_3   0.964700 0.954160 0.988320 -0.369091
V3    V     V_3+5 0.993450 0.728620 0.997830 1.495056
V4    V     V_3+5 0.006550 0.228620 0.002170 1.495478
H9    H     H_    0.062308 0.981202 0.223896 0.109362
H10   H     H_    0.937895 0.475989 0.776067 0.109389
C65   C     C_2   0.226561 0.216490 0.875905 0.840935
O21   O     O_2   0.225365 0.297048 0.826200 -0.538706
O22   O     O_R   0.266266 0.267021 0.936237 -0.634356
H11   H     H_    0.291550 0.372337 0.932442 0.324148
C66   C     C_2   0.773479 0.716494 0.124122 0.840858
O23   O     O_2   0.774691 0.797006 0.173849 -0.538782
O24   O     O_R   0.733797 0.767121 0.063802 -0.634168
H12   H     H_    0.708551 0.872485 0.067624 0.323974
C67   C     C_2   0.158991 0.225169 0.960099 0.814801
O25   O     O_2   0.157311 0.387201 0.943329 -0.564506
O26   O     O_R   0.168661 0.180398 0.025352 -0.657566
H13   H     H_    0.173255 0.294011 0.053956 0.319732
C68   C     C_2   0.841027 0.725101 0.039902 0.816353
O27   O     O_2   0.842738 0.887143 0.056691 -0.564149
O28   O     O_R   0.831333 0.680302 0.974641 -0.657634
H14   H     H_    0.826728 0.793903 0.946042 0.320180
C69   C     C_2   0.297197 0.508380 0.640660 0.784001
O29   O     O_2   0.281334 0.409986 0.592076 -0.552545
O30   O     O_R   0.288971 0.450221 0.697779 -0.635737
H15   H     H_    0.268334 0.327405 0.692257 0.319774
C70   C     C_2   0.702809 0.008578 0.359368 0.784014
O31   O     O_2   0.718685 0.910315 0.407966 -0.552504
O32   O     O_R   0.711021 0.950300 0.302249 -0.635756
H16   H     H_    0.731656 0.827518 0.307783 0.319784
C71   C     C_2   0.417688 0.189625 0.638806 0.744980
O33   O     O_2   0.409781 0.272315 0.587661 -0.545182
O34   O     O_R   0.447821 0.274594 0.698229 -0.667094
H17   H     H_    0.461442 0.403166 0.692270 0.286056
C72   C     C_2   0.582109 0.689368 0.360968 0.744672
O35   O     O_2   0.589987 0.772453 0.412044 -0.545111
O36   O     O_R   0.551874 0.773715 0.301478 -0.667053
H18   H     H_    0.538124 0.902165 0.307334 0.286248
H19   H     H_    0.354751 0.114084 0.707977 0.167661
H20   H     H_    0.645157 0.613977 0.291918 0.167638
H21   H     H_    0.135304 0.975253 0.332539 0.128592
H22   H     H_    0.864986 0.467676 0.667383 0.128589
H23   H     H_    0.188024 0.915957 0.135574 0.137052
H24   H     H_    0.811883 0.419468 0.864380 0.137596
H25   H     H_    0.440211 0.786760 0.280774 0.146882
H26   H     H_    0.559569 0.291459 0.719350 0.146674
C73   C     C_2   0.260757 0.683229 0.142326 0.739713
O37   O     O_2   0.224022 0.577213 0.145774 -0.561813
O38   O     O_R   0.269365 0.707626 0.082953 -0.642002
H27   H     H_    0.241720 0.633478 0.046184 0.330125
C74   C     C_2   0.738808 0.188897 0.858581 0.741043
O39   O     O_2   0.775421 0.081491 0.855739 -0.561614
O40   O     O_R   0.730176 0.216766 0.917785 -0.641835
H28   H     H_    0.757716 0.143728 0.954964 0.329933
H29   H     H_    0.332899 0.921193 0.418305 0.115532
H30   H     H_    0.667320 0.415943 0.581536 0.114790
H31   H     H_    0.071668 0.684438 0.854161 0.133221
H32   H     H_    0.928256 0.184390 0.145767 0.133330

loop_
_geom_bond_atom_site_label_1
_geom_bond_atom_site_label_2
_ccdc_geom_bond_type
N4    C46   A    
N1    N3    A    
C56   C72   S    
C9    C31   A    
C13   C15   A    
C67   O26   S    
C73   O37   D    
O1    C3    A    
O2    C4    A    
C2    O7    A    
C5    C29   A    
C69   O29   D    
C8    C28   A    
C34   H32   S    
O5    C3    A    
C9    H25   S    
O11   C63   A    
C49   C69   S    
C50   C52   A    
C5    H21   S    
C21   C23   A    
C56   C58   A    
C27   H23   S    
C10   H26   S    
O15   C63   A    
C39   C41   A    
C7    C62   S    
C40   C42   A    
C67   O25   D    
C15   C19   A    
C42   C68   S    
C42   C44   A    
C29   H9    S    
N5    N7    A    
H1    C23   S    
C7    C29   A    
C8    C30   A    
C66   O23   D    
O15   V3    S    
C14   C16   A    
C33   C35   A    
C20   C28   A    
C34   C36   A    
C65   O21   D    
C50   C70   S    
C51   C53   A    
C38   C40   A    
C57   H19   S    
C35   C37   A    
C58   H20   S    
C57   C59   A    
C74   O39   D    
O6    V2    S    
C2    C53   S    
C65   O22   S    
C33   H31   S    
O12   C64   A    
C12   C14   A    
C53   C55   A    
C36   H6    S    
C68   O28   S    
C23   C25   A    
C41   C43   A    
C38   C48   S    
C16   C20   A    
C40   C66   S    
C72   O35   D    
C33   C43   A    
C12   H4    S    
N8    C48   A    
N7    C47   A    
N1    C47   A    
C62   O17   A    
N3    C45   A    
C25   H29   S    
C35   H5    S    
N2    N4    A    
O4    V2    S    
C70   O32   S    
C55   C71   S    
C6    C30   A    
O13   C61   A    
H2    C24   S    
C52   C54   A    
C6    H22   S    
O6    C4    A    
O14   C62   A    
C51   H7    S    
C66   O24   S    
O1    V2    S    
O2    V1    S    
C49   C51   A    
O28   H14   S    
O17   V3    S    
C7    C27   A    
O4    C2    A    
C39   C65   S    
O19   V4    S    
C54   C56   A    
C37   C39   A    
O11   V4    S    
C28   H24   S    
O34   H17   S    
C34   C44   A    
C8    C61   S    
C43   C64   S    
C71   O33   D    
O3    C1    A    
C52   H8    S    
C18   C26   A    
O3    V1    S    
O24   H12   S    
C49   C59   A    
C72   O36   S    
C50   C60   A    
C11   H3    S    
C55   C57   A    
C18   C32   A    
C10   C12   A    
O13   V3    S    
C4    C31   S    
C71   O34   S    
C68   O27   D    
C70   O31   D    
C30   H10   S    
C11   C13   A    
C73   O38   S    
O36   H18   S    
C45   C59   S    
C19   C27   A    
O16   V4    S    
O32   H16   S    
C10   C32   A    
C1    O8    A    
C15   C17   A    
C13   C73   S    
O8    V2    S    
O38   H27   S    
C22   C24   A    
C16   C18   A    
C1    C54   S    
O30   H15   S    
C24   C26   A    
C46   C60   S    
O16   C64   A    
O5    V1    S    
C19   C21   A    
C20   C22   A    
C17   C25   A    
C58   C60   A    
C74   O40   S    
O7    V1    S    
O20   V3    S    
O12   V3    S    
C69   O30   S    
O14   V4    S    
C44   C63   S    
C37   C47   S    
C9    C11   A    
C14   C74   S    
C41   C67   S    
C17   C31   A    
O9    V2    S    
O22   H11   S    
C46   N6    A    
N2    C48   A    
O10   V1    S    
C26   H30   S    
C3    C32   S    
N6    N8    A    
C5    C21   A    
C45   N5    A    
O40   H28   S    
O26   H13   S    
C6    C22   A    
C61   O18   A    
O18   V4    S    
C36   C38   A    
