data_mof_unit_21588.cif
_audit_creation_date              2012-12-11T14:21:18-0500
_audit_creation_method            fapswitch 2.2
_symmetry_space_group_name_H-M    P1
_symmetry_Int_Tables_number       1
_space_group_crystal_system       triclinic
_cell_length_a                    21.985414
_cell_length_b                    7.204212
_cell_length_c                    14.935171
_cell_angle_alpha                 89.959008
_cell_angle_beta                  108.143346
_cell_angle_gamma                 90.071869
_cell_volume                      2247.92981446

loop_
_atom_site_label
_atom_site_type_symbol
_atom_type_description
_atom_site_fract_x
_atom_site_fract_y
_atom_site_fract_z
_atom_type_partial_charge
O1    O     O_R   0.584770 0.505770 0.002090 -0.543789
O2    O     O_R   0.415230 0.005770 0.997910 -0.540005
O3    O     O_R   0.467060 0.173340 0.861950 -0.540526
O4    O     O_R   0.532940 0.673340 0.138050 -0.539951
C1    C     C_R   0.454394 0.344638 0.825554 0.762694
C2    C     C_R   0.545484 0.844590 0.174383 0.764542
O5    O     O_R   0.587510 0.175890 0.993210 -0.538740
O6    O     O_R   0.412490 0.675890 0.006790 -0.538243
O7    O     O_R   0.536540 0.008150 0.130100 -0.524514
O8    O     O_R   0.463460 0.508150 0.869900 -0.525531
C3    C     C_R   0.613250 0.344653 0.000059 0.776457
C4    C     C_R   0.386753 0.844406 0.000124 0.753021
O9    O     O_3   0.483140 0.340040 0.044760 -0.379222
O10   O     O_3   0.516860 0.840040 0.955240 -0.381658
V1    V     V_3+5 0.503130 0.064190 0.991700 1.540779
V2    V     V_3+5 0.496870 0.564190 0.008300 1.540072
C5    C     C_2   0.213382 0.734001 0.998097 -0.075153
C6    C     C_2   0.787318 0.239034 0.006588 -0.159866
C7    C     C_2   0.182966 0.891368 0.009789 0.049584
C8    C     C_2   0.816924 0.391462 0.985854 0.067051
H1    H     H_    0.186539 0.604960 0.982958 0.119761
H2    H     H_    0.815519 0.115028 0.031795 0.139021
C9    C     C_2   0.283177 0.719221 0.009531 -0.038383
C10   C     C_2   0.717390 0.221204 0.992681 -0.070380
C11   C     C_2   0.318076 0.858679 0.990433 -0.194388
C12   C     C_2   0.681970 0.359927 0.010403 -0.247399
H3    H     H_    0.305475 0.584932 0.030455 0.140093
H4    H     H_    0.695801 0.085581 0.972894 0.152689
H5    H     H_    0.295598 0.989180 0.962864 0.169317
H6    H     H_    0.704310 0.490617 0.037539 0.133367
C13   C     C_R   0.929519 0.890890 0.721602 -0.151136
C14   C     C_R   0.069864 0.391408 0.278803 -0.214205
C15   C     C_R   0.574646 0.858910 0.276722 -0.134262
C16   C     C_R   0.425152 0.359331 0.723079 -0.133160
C17   C     C_R   0.944901 0.954137 0.569951 0.474275
C18   C     C_R   0.053888 0.454402 0.430207 0.517156
C19   C     C_R   0.969671 0.940285 0.668914 0.057557
C20   C     C_R   0.029081 0.433916 0.331867 0.117987
C21   C     C_R   0.863919 0.867349 0.676828 0.272650
C22   C     C_R   0.135626 0.373485 0.323839 0.310405
C23   C     C_R   0.836605 0.922651 0.581601 -0.097555
C24   C     C_R   0.162665 0.430516 0.418898 -0.078290
C25   C     C_R   0.877334 0.939360 0.524305 -0.077840
C26   C     C_R   0.121799 0.450020 0.476109 -0.154310
C27   C     C_R   0.769750 0.954948 0.541606 0.034292
C28   C     C_R   0.229761 0.461929 0.458897 0.034836
C29   C     C_R   0.741304 0.938370 0.442656 -0.058779
C30   C     C_R   0.258406 0.442444 0.557699 -0.093556
C31   C     C_R   0.781539 0.956418 0.384861 0.303777
C32   C     C_R   0.218293 0.463414 0.615318 0.390915
C33   C     C_R   0.848986 0.946793 0.424633 0.247347
C34   C     C_R   0.151257 0.467589 0.575588 0.205143
C35   C     C_R   0.730914 0.023714 0.595206 0.288110
C36   C     C_R   0.268703 0.531091 0.405481 0.288419
C37   C     C_R   0.664480 0.020711 0.556681 -0.110909
C38   C     C_R   0.335161 0.526858 0.443861 -0.108219
C39   C     C_R   0.635267 0.962364 0.464345 -0.004913
C40   C     C_R   0.364376 0.466183 0.535851 -0.001136
C41   C     C_R   0.673194 0.919506 0.405919 0.127678
C42   C     C_R   0.326481 0.421549 0.594154 0.121227
C43   C     C_R   0.568184 0.956147 0.428454 -0.154191
C44   C     C_R   0.431470 0.459807 0.571627 -0.154112
C45   C     C_R   0.537838 0.909582 0.334429 0.371064
C46   C     C_R   0.461879 0.411917 0.665485 0.372402
C47   C     C_R   0.641499 0.854057 0.314023 -0.181549
C48   C     C_R   0.358269 0.353863 0.685657 -0.187768
H7    H     H_    0.667992 0.800057 0.269837 0.173374
H8    H     H_    0.331936 0.296977 0.729399 0.175623
H9    H     H_    0.635509 0.070310 0.598697 0.170329
H10   H     H_    0.364179 0.577255 0.402010 0.171269
H11   H     H_    0.539274 0.993140 0.472763 0.167396
H12   H     H_    0.460355 0.498221 0.527444 0.167562
O11   O     O_R   0.036450 0.233070 0.130130 -0.516605
O12   O     O_R   0.963550 0.733070 0.869870 -0.516825
O13   O     O_R   0.912470 0.560570 0.006790 -0.523504
O14   O     O_R   0.087530 0.060570 0.993210 -0.533506
C49   C     C_R   0.886542 0.392450 0.999464 0.736112
C50   C     C_R   0.113449 0.892573 0.999726 0.707457
O15   O     O_R   0.032920 0.562940 0.138050 -0.552756
O16   O     O_R   0.967080 0.062940 0.861950 -0.541260
O17   O     O_R   0.084790 0.730500 0.002090 -0.549406
O18   O     O_R   0.915210 0.230500 0.997910 -0.559264
C51   C     C_R   0.044956 0.394615 0.175075 0.755916
C52   C     C_R   0.954734 0.894628 0.825070 0.836842
O19   O     O_3   0.016820 0.396170 0.955260 -0.378484
O20   O     O_3   0.983180 0.896170 0.044740 -0.384883
V3    V     V_3+5 0.996880 0.672090 0.008300 1.517183
V4    V     V_3+5 0.003120 0.172090 0.991700 1.512272
N1    N     N_3   0.036139 0.974918 0.717432 -0.653959
H13   H     H_    0.063893 0.884241 0.691985 0.275561
H14   H     H_    0.046813 0.111099 0.703435 0.270406
N2    N     N_3   0.961282 0.451001 0.286690 -0.571716
H15   H     H_    0.952864 0.561471 0.239006 0.219941
H16   H     H_    0.944450 0.328789 0.249401 0.237950
Cl1   Cl    Cl    0.818495 0.745845 0.737426 -0.640274
Cl2   Cl    Cl    0.181702 0.253342 0.264133 -0.684207
Cl3   Cl    Cl    0.750312 0.048566 0.269032 -0.696154
Cl4   Cl    Cl    0.248941 0.535562 0.734822 -0.665854
N3    N     N_3   0.756534 0.129742 0.680389 -0.611175
H17   H     H_    0.750740 0.055772 0.737350 0.279235
H18   H     H_    0.804548 0.164854 0.693102 0.251787
N4    N     N_3   0.243212 0.638053 0.320559 -0.610840
H19   H     H_    0.249143 0.564891 0.263509 0.277892
H20   H     H_    0.195122 0.672149 0.307639 0.249681
N5    N     N_3   0.218534 0.059779 0.039624 -0.638944
H21   H     H_    0.199231 0.162808 0.989514 0.238839
H22   H     H_    0.212615 0.101054 0.103406 0.295176
N6    N     N_3   0.782107 0.553270 0.941266 -0.597316
H23   H     H_    0.774156 0.640645 0.992208 0.226793
H24   H     H_    0.739167 0.515832 0.890478 0.285719
N7    N     N_3   0.888628 0.932452 0.364087 -0.537921
H25   H     H_    0.908742 0.799628 0.373854 0.284680
H26   H     H_    0.862893 0.938839 0.292658 0.267392
N8    N     N_3   0.115369 0.486872 0.640276 -0.580814
H27   H     H_    0.085483 0.372019 0.635094 0.284461
H28   H     H_    0.090395 0.612108 0.627891 0.287054
Cl5   Cl    Cl    0.453672 0.918064 0.290418 -0.641885
Cl6   Cl    Cl    0.546045 0.421249 0.709455 -0.656465
Cl7   Cl    Cl    0.000404 0.011377 0.509773 -0.589341
Cl8   Cl    Cl    0.995770 0.496960 0.487576 -0.600595

loop_
_geom_bond_atom_site_label_1
_geom_bond_atom_site_label_2
_ccdc_geom_bond_type
C40   C44   A    
C48   H8    S    
C17   Cl7   S    
N7    H25   S    
O1    C3    A    
O16   C52   A    
O2    C4    A    
C16   C48   A    
C2    O7    A    
O15   V3    S    
N8    H27   S    
C15   C47   A    
C29   C31   A    
C35   N3    S    
O5    C3    A    
N5    H22   S    
C5    C9    S    
C8    C49   S    
C6    C10   S    
C17   C19   A    
O14   C50   A    
C45   Cl5   S    
C39   C41   A    
C40   C42   A    
C20   N2    S    
C46   Cl6   S    
N6    H23   S    
C24   C28   A    
C27   C29   A    
C43   C45   A    
C44   C46   A    
N6    H24   S    
C31   C33   A    
C32   C34   A    
C14   C20   A    
O12   V3    S    
N1    H14   S    
C17   C25   A    
O14   V4    S    
C15   C45   A    
C26   C34   A    
C30   C32   A    
C42   C48   A    
O6    V2    S    
C23   C25   A    
C24   C26   A    
C22   Cl2   S    
N2    H16   S    
C30   C42   A    
C28   C30   A    
C35   C37   A    
C11   H5    S    
C36   C38   A    
C32   Cl4   S    
C21   C23   A    
O12   C52   A    
O20   V3    S    
O5    V1    S    
C3    C12   S    
C47   H7    S    
C29   C41   A    
C27   C35   A    
C5    H1    S    
C13   C52   S    
C13   C19   A    
O4    V2    S    
C7    C50   S    
O11   V4    S    
N3    H17   S    
O6    C4    A    
C1    C16   S    
C28   C36   A    
C16   C46   A    
C44   H12   S    
N7    H26   S    
O1    V2    S    
O17   V3    S    
N4    H20   S    
O2    V1    S    
O13   C49   A    
C21   Cl1   S    
C37   H9    S    
C7    N5    S    
O13   V3    S    
N3    H18   S    
C12   H6    S    
C9    H3    S    
C37   C39   A    
C18   C26   A    
O4    C2    A    
C14   C22   A    
O3    V1    S    
O19   V4    S    
C14   C51   S    
C33   N7    S    
C6    H2    S    
C36   N4    S    
C10   H4    S    
C10   C12   D    
O3    C1    A    
N8    H28   S    
C39   C43   A    
C34   N8    S    
N5    H21   S    
C38   H10   S    
C2    C15   S    
C19   N1    S    
C4    C11   S    
C18   C20   A    
O7    V1    S    
C1    O8    A    
O16   V4    S    
O8    V2    S    
C41   C47   A    
O15   C51   A    
C50   O17   A    
C43   H11   S    
C49   O18   A    
C25   C33   A    
O18   V4    S    
C22   C24   A    
N2    H15   S    
C5    C7    D    
C38   C40   A    
C6    C8    D    
C9    C11   D    
N4    H19   S    
C18   Cl8   S    
C31   Cl3   S    
O9    V2    S    
C13   C21   A    
C23   C27   A    
O10   V1    S    
N1    H13   S    
O11   C51   A    
C8    N6    S    
