data_mof_unit_14472.cif
_audit_creation_date              2012-12-10T19:06:25-0500
_audit_creation_method            fapswitch 2.2
_symmetry_space_group_name_H-M    P1
_symmetry_Int_Tables_number       1
_space_group_crystal_system       triclinic
_cell_length_a                    23.526123
_cell_length_b                    10.851521
_cell_length_c                    9.527942
_cell_angle_alpha                 90.026211
_cell_angle_beta                  89.822723
_cell_angle_gamma                 90.453215
_cell_volume                      2432.34053156

loop_
_atom_site_label
_atom_site_type_symbol
_atom_type_description
_atom_site_fract_x
_atom_site_fract_y
_atom_site_fract_z
_atom_type_partial_charge
C1    C     C_R   0.499657 0.262520 0.499944 0.808319
C2    C     C_R   0.969489 0.289944 0.403298 -0.227891
C3    C     C_R   0.028879 0.287233 0.407873 0.488256
C4    C     C_R   0.059466 0.388757 0.464445 -0.116386
C5    C     C_R   0.029441 0.489321 0.522804 -0.104195
C6    C     C_R   0.059247 0.591152 0.581730 -0.056411
C7    C     C_R   0.027727 0.688802 0.643376 0.182400
C8    C     C_R   0.968454 0.685160 0.641600 -0.176802
C9    C     C_R   0.119255 0.392802 0.465183 0.597542
C10   C     C_R   0.119189 0.590828 0.575193 0.617460
C11   C     C_R   0.236325 0.507020 0.385626 -0.270956
C12   C     C_R   0.390784 0.499568 0.500230 0.844317
C13   C     C_R   0.295741 0.511317 0.378106 0.470813
C14   C     C_R   0.327892 0.499045 0.502332 -0.188087
C15   C     C_R   0.299478 0.486268 0.631805 -0.406718
C16   C     C_R   0.239740 0.486933 0.639688 0.558155
C17   C     C_R   0.208451 0.495186 0.514893 0.207792
C18   C     C_R   0.758931 0.415173 0.599445 -0.206269
C19   C     C_R   0.699522 0.414361 0.595163 0.454236
C20   C     C_R   0.671185 0.493058 0.501254 -0.184839
C21   C     C_R   0.702846 0.566731 0.408682 -0.318871
C22   C     C_R   0.762082 0.564883 0.410321 0.223209
C23   C     C_R   0.497489 0.737648 0.499420 0.830264
C24   C     C_R   0.790318 0.489894 0.507448 0.231988
C25   C     C_R   0.510696 0.063693 0.621102 0.038874
C26   C     C_R   0.500517 0.129583 0.498506 -0.176652
C27   C     C_R   0.490183 0.066126 0.373172 -0.221557
C28   C     C_R   0.486109 0.938333 0.371827 0.140946
C29   C     C_R   0.496685 0.871332 0.496948 -0.111627
C30   C     C_R   0.509474 0.935874 0.620347 -0.031550
C31   C     C_3   0.478718 0.928681 0.758514 -0.485939
C32   C     C_3   0.478254 0.069313 0.756514 0.391806
C33   C     C_R   0.534382 0.579940 0.073516 0.222907
C34   C     C_R   0.608909 0.498651 0.500026 0.856286
C35   C     C_R   0.462474 0.429587 0.074740 -0.026342
C36   C     C_R   0.462345 0.429896 0.925774 -0.003737
C37   C     C_R   0.534925 0.578453 0.925569 0.145334
C38   C     C_3   0.598272 0.582654 0.916682 -0.532164
C39   C     C_3   0.598048 0.584885 0.076842 0.299988
C40   C     C_R   0.879292 0.584541 0.576387 0.596603
C41   C     C_R   0.879819 0.391486 0.456531 0.593910
C42   C     C_R   0.939440 0.388960 0.460151 -0.079327
C43   C     C_R   0.969311 0.488184 0.521436 -0.011909
C44   C     C_R   0.938932 0.586713 0.580324 -0.041617
Cu1   Cu    Cu3+1 0.500000 0.499980 0.640670 0.976882
Cu2   Cu    Cu3+1 0.500000 0.500020 0.359330 0.991793
H1    H     H_    0.947096 0.213520 0.354708 0.205774
H2    H     H_    0.681652 0.627739 0.337149 0.240230
H3    H     H_    0.481289 0.116068 0.277378 0.197174
H4    H     H_    0.435514 0.887410 0.748059 0.182380
H5    H     H_    0.504736 0.884605 0.840943 0.204162
H6    H     H_    0.434720 0.105938 0.740282 0.096842
H7    H     H_    0.433008 0.370459 0.130941 0.166796
H8    H     H_    0.432735 0.371095 0.869965 0.144881
H9    H     H_    0.616193 0.495654 0.874658 0.234025
H10   H     H_    0.614125 0.666460 0.862276 0.199010
H11   H     H_    0.616247 0.499203 0.121476 0.128183
H12   H     H_    0.945366 0.760737 0.688611 0.207461
H13   H     H_    0.211557 0.512455 0.290195 0.174488
H14   H     H_    0.323848 0.473295 0.726652 0.185633
H15   H     H_    0.780754 0.356550 0.673438 0.173130
N1    N     N_R   0.851168 0.488738 0.513330 -0.450786
N2    N     N_R   0.147396 0.492629 0.519034 -0.447236
N3    N     N_R   0.500360 0.500930 0.147930 -0.216814
N4    N     N_R   0.500360 0.500890 0.852020 -0.177095
O1    O     O_R   0.500000 0.319640 0.618810 -0.552886
O2    O     O_2   0.850658 0.297980 0.396186 -0.526203
O3    O     O_2   0.149459 0.298052 0.412756 -0.468569
O4    O     O_2   0.149644 0.687976 0.621807 -0.506754
O5    O     O_R   0.500010 0.319680 0.381230 -0.597121
O6    O     O_R   0.417880 0.499940 0.618820 -0.606049
O7    O     O_R   0.417880 0.499980 0.381240 -0.530032
O8    O     O_R   0.499990 0.680320 0.618770 -0.583064
O9    O     O_R   0.500000 0.680360 0.381190 -0.540292
O10   O     O_R   0.582120 0.500020 0.618760 -0.546169
O11   O     O_R   0.582120 0.500060 0.381180 -0.585550
O12   O     O_2   0.849558 0.677486 0.634542 -0.512745
O13   O     O_3   0.669465 0.337387 0.684326 -0.580023
C45   C     C_3   0.660934 0.223902 0.615134 -0.271665
H16   H     H_    0.635158 0.235224 0.518255 0.143517
H17   H     H_    0.637018 0.161472 0.685945 0.185278
H18   H     H_    0.702082 0.178833 0.589999 0.176192
I1    I     I_    0.806912 0.675528 0.263283 -0.253230
I2    I     I_    0.452906 0.863345 0.181684 -0.459346
O14   O     O_3   0.506342 0.135867 0.865587 -0.551823
C46   C     C_3   0.557805 0.084120 0.912507 -0.268562
H19   H     H_    0.581350 0.032325 0.830684 0.138360
H20   H     H_    0.548983 0.024151 0.004123 0.171926
H21   H     H_    0.586042 0.159950 0.948807 0.193206
O15   O     O_3   0.056709 0.188627 0.347418 -0.534387
C47   C     C_3   0.053992 0.087800 0.440692 -0.155370
H22   H     H_    0.072492 0.111780 0.544771 0.179571
H23   H     H_    0.079479 0.011470 0.396290 0.209412
H24   H     H_    0.009631 0.053265 0.453454 0.143590
O16   O     O_3   0.620832 0.690968 0.145625 -0.557565
C48   C     C_3   0.608234 0.804964 0.081710 -0.250888
H25   H     H_    0.565656 0.807178 0.032525 0.149454
H26   H     H_    0.641497 0.828709 0.003180 0.170408
H27   H     H_    0.609105 0.877559 0.163696 0.190100
I3    I     I_    0.062014 0.846644 0.747864 -0.290314
O17   O     O_3   0.322139 0.517593 0.248337 -0.568471
C49   C     C_3   0.318075 0.638994 0.196856 -0.274780
H28   H     H_    0.335732 0.707224 0.272836 0.187025
H29   H     H_    0.273433 0.662149 0.170176 0.148815
H30   H     H_    0.343557 0.646112 0.098957 0.197795
O18   O     O_3   0.210357 0.468132 0.764862 -0.557073
C50   C     C_3   0.232447 0.542458 0.873868 -0.228221
H31   H     H_    0.243697 0.637244 0.837667 0.168878
H32   H     H_    0.269587 0.497557 0.923417 0.164728
H33   H     H_    0.199321 0.551854 0.956216 0.200429

loop_
_geom_bond_atom_site_label_1
_geom_bond_atom_site_label_2
_ccdc_geom_bond_type
O17   C49   S    
C28   I2    S    
O16   C48   S    
C41   C42   A    
C10   N2    A    
Cu2   O11   S    
C7    C8    A    
C41   O2    S    
Cu1   Cu2   S    
C26   C27   A    
C29   C30   A    
C3    O15   S    
C18   C24   A    
C5    C6    A    
C23   C29   S    
C28   C29   A    
C30   C31   S    
C46   H20   S    
C35   H7    S    
O18   C50   S    
C15   C16   A    
C39   H11   S    
C48   H27   S    
C40   N1    A    
C49   H30   S    
Cu1   O8    S    
C18   C19   A    
C15   H14   S    
C32   H6    S    
C8    H12   S    
C38   H9    S    
C19   C20   A    
C16   C17   A    
C37   N4    A    
C50   H31   S    
C35   N3    A    
Cu2   O7    S    
C16   O18   S    
C34   O10   A    
C21   H2    S    
C20   C34   S    
C25   C32   S    
C5    C43   A    
C9    N2    A    
C21   C22   A    
C50   H32   S    
C41   N1    A    
C23   O8    A    
C11   H13   S    
C7    I3    S    
C47   H22   S    
C45   H17   S    
C46   H19   S    
C25   C26   A    
O14   C46   S    
C33   C37   A    
C48   H26   S    
C35   C36   A    
C19   O13   S    
C43   C44   A    
C37   C38   S    
C47   H23   S    
C31   C32   S    
C48   H25   S    
C1    O1    A    
C33   C39   S    
C49   H29   S    
C39   O16   S    
C12   O6    A    
C12   C14   S    
Cu1   N4    S    
C1    C26   S    
C50   H33   S    
C22   C24   A    
C42   C43   A    
C23   O9    A    
C13   O17   S    
C3    C4    A    
Cu2   O9    S    
Cu1   O6    S    
C25   C30   A    
C11   C17   A    
C24   N1    S    
O13   C45   S    
C8    C44   A    
C31   H5    S    
C4    C5    A    
C46   H21   S    
C6    C10   A    
C45   H18   S    
C18   H15   S    
C6    C7    A    
C2    H1    S    
C1    O5    A    
Cu1   O10   S    
C22   I1    S    
C36   N4    A    
C2    C3    A    
C9    O3    S    
C17   N2    S    
C47   H24   S    
C11   C13   A    
O15   C47   S    
C38   C39   S    
C2    C42   A    
C33   N3    A    
C32   O14   S    
C40   O12   S    
C12   O7    A    
C49   H28   S    
Cu2   O5    S    
C36   H8    S    
C45   H16   S    
C10   O4    S    
C40   C44   A    
C38   H10   S    
C20   C21   A    
Cu2   N3    S    
Cu1   O1    S    
C14   C15   A    
C31   H4    S    
C4    C9    A    
C13   C14   A    
C27   H3    S    
C34   O11   A    
C27   C28   A    
