data_mof_unit_50352.cif
_audit_creation_date              2012-10-26T18:59:40-0400
_audit_creation_method            fapswitch 2.2
_symmetry_space_group_name_H-M    P1
_symmetry_Int_Tables_number       1
_space_group_crystal_system       triclinic
_cell_length_a                    23.482532
_cell_length_b                    10.810196
_cell_length_c                    9.55084
_cell_angle_alpha                 89.934657
_cell_angle_beta                  90.396283
_cell_angle_gamma                 90.357453
_cell_volume                      2424.38149033

loop_
_atom_site_label
_atom_site_type_symbol
_atom_type_description
_atom_site_fract_x
_atom_site_fract_y
_atom_site_fract_z
_atom_type_partial_charge
Br1   Br    Br    0.657429 0.256567 0.634136 -0.428046
Br2   Br    Br    0.665152 0.743464 0.376875 -0.497334
Br3   Br    Br    0.555832 0.138518 0.210356 -0.446197
Br4   Br    Br    0.641886 0.521991 0.888196 -0.427261
C1    C     C_R   0.502826 0.262404 0.499744 0.577623
C2    C     C_R   0.120611 0.592848 0.568497 0.391194
C3    C     C_R   0.239313 0.548165 0.383721 -0.073223
C4    C     C_R   0.391009 0.499600 0.499619 0.533250
C5    C     C_R   0.298549 0.546925 0.383638 -0.153699
C6    C     C_R   0.328513 0.499162 0.498745 -0.004408
C7    C     C_R   0.298476 0.450538 0.612996 -0.135505
C8    C     C_R   0.238743 0.449204 0.613294 0.046858
C9    C     C_R   0.209125 0.499769 0.497390 0.255195
C10   C     C_R   0.760412 0.398126 0.570968 0.059961
C11   C     C_R   0.700222 0.396835 0.563962 0.140367
C12   C     C_R   0.968822 0.334860 0.332101 -0.134117
C13   C     C_R   0.671088 0.497042 0.501948 0.041701
C14   C     C_R   0.701768 0.596727 0.444859 0.100747
C15   C     C_R   0.760857 0.593829 0.443513 -0.030846
C16   C     C_R   0.501321 0.737601 0.500138 0.559464
C17   C     C_R   0.790452 0.495900 0.505153 0.194493
C18   C     C_R   0.502016 0.063647 0.624045 0.041482
C19   C     C_R   0.510691 0.129327 0.499883 0.030645
C20   C     C_R   0.528649 0.062955 0.379955 0.147971
C21   C     C_R   0.526328 0.933842 0.381479 -0.094382
C22   C     C_R   0.508218 0.870452 0.501508 -0.013929
C23   C     C_R   0.028050 0.333473 0.332386 -0.133510
C24   C     C_R   0.501134 0.936609 0.625063 0.029298
C25   C     C_3   0.454531 0.931027 0.730440 -0.268398
C26   C     C_3   0.455537 0.071580 0.729670 -0.272669
C27   C     C_R   0.520837 0.599465 0.074197 0.101827
C28   C     C_R   0.608799 0.499329 0.500440 0.631485
C29   C     C_R   0.472654 0.409898 0.074007 0.035242
C30   C     C_R   0.472225 0.410517 0.925114 0.023511
C31   C     C_R   0.523412 0.596351 0.927558 0.146077
C32   C     C_3   0.583742 0.643755 0.929973 0.034818
C33   C     C_3   0.578539 0.655326 0.087685 -0.203234
C34   C     C_R   0.059017 0.419044 0.413135 0.029929
C35   C     C_R   0.879861 0.584235 0.584591 0.381488
C36   C     C_R   0.879808 0.420931 0.416142 0.388112
C37   C     C_R   0.939271 0.420696 0.414120 0.025836
C38   C     C_R   0.969648 0.507889 0.496071 -0.040359
C39   C     C_R   0.940095 0.594975 0.579430 0.029474
C40   C     C_3   0.946060 0.795077 0.731990 -0.218552
C41   C     C_3   0.921304 0.890958 0.629828 -0.263781
C42   C     C_3   0.891705 0.995145 0.707839 -0.437080
C43   C     C_3   0.208024 0.389296 0.734922 -0.239005
C44   C     C_3   0.214869 0.465679 0.869371 -0.311657
C45   C     C_R   0.029814 0.507499 0.493691 -0.034451
C46   C     C_3   0.181749 0.407607 0.989932 -0.423486
C47   C     C_3   0.791966 0.301368 0.656366 -0.220188
C48   C     C_3   0.789436 0.332693 0.812869 -0.278516
C49   C     C_3   0.822255 0.238996 0.900925 -0.437014
C50   C     C_R   0.060858 0.595322 0.571432 0.011462
C51   C     C_R   0.031969 0.684577 0.648885 -0.119219
C52   C     C_R   0.972230 0.687425 0.653423 -0.013780
C53   C     C_R   0.118747 0.418191 0.415932 0.384530
Cu1   Cu    Cu3+1 0.500000 0.499980 0.640670 1.018425
Cu2   Cu    Cu3+1 0.500000 0.500020 0.359330 1.003171
H1    H     H_    0.946260 0.267388 0.268496 0.159081
H2    H     H_    0.450339 0.337323 0.869141 0.101099
H3    H     H_    0.588751 0.734230 0.875882 0.144903
H4    H     H_    0.608374 0.596410 0.148302 0.230267
H5    H     H_    0.576924 0.752997 0.122775 0.135282
H6    H     H_    0.056270 0.754191 0.705392 0.159337
H7    H     H_    0.216617 0.587404 0.295361 0.115784
H8    H     H_    0.320938 0.585162 0.294582 0.127755
H9    H     H_    0.321548 0.411020 0.700795 0.114661
H10   H     H_    0.855589 0.957691 0.769639 0.186295
H11   H     H_    0.922226 0.042885 0.779178 0.143628
H12   H     H_    0.784321 0.670078 0.397431 0.165284
H13   H     H_    0.874916 0.063557 0.631460 0.152989
H14   H     H_    0.956348 0.931106 0.566213 0.157249
H15   H     H_    0.890251 0.847351 0.556645 0.208410
H16   H     H_    0.914394 0.762348 0.809341 0.205631
H17   H     H_    0.978898 0.843184 0.796854 0.117609
H18   H     H_    0.135636 0.402426 0.963654 0.162538
H19   H     H_    0.197767 0.313144 0.012461 0.176597
H20   H     H_    0.187220 0.465063 0.085319 0.169383
H21   H     H_    0.260572 0.471726 0.899781 0.153717
H22   H     H_    0.198971 0.560985 0.851623 0.216338
H23   H     H_    0.536963 0.883768 0.287468 0.165688
H24   H     H_    0.161966 0.376961 0.711462 0.165012
H25   H     H_    0.225633 0.295174 0.751933 0.137506
H26   H     H_    0.803889 0.144918 0.886487 0.177074
H27   H     H_    0.867841 0.238762 0.870711 0.143082
H28   H     H_    0.819392 0.264216 0.013327 0.203389
H29   H     H_    0.808121 0.426160 0.830877 0.207526
H30   H     H_    0.744511 0.333703 0.848360 0.245454
H31   H     H_    0.773830 0.207912 0.636319 0.192973
H32   H     H_    0.837301 0.295601 0.626015 0.156116
H33   H     H_    0.414426 0.890727 0.687217 0.137555
H34   H     H_    0.469161 0.890502 0.831418 0.149417
H35   H     H_    0.415959 0.113250 0.686381 0.121419
H36   H     H_    0.470822 0.111674 0.830344 0.166995
H37   H     H_    0.451433 0.335646 0.129301 0.131643
H38   H     H_    0.049450 0.265191 0.269032 0.159800
N1    N     N_R   0.851618 0.499463 0.502993 -0.399511
N2    N     N_R   0.148112 0.503536 0.494037 -0.400562
N3    N     N_R   0.500360 0.500930 0.147930 -0.220774
N4    N     N_R   0.500360 0.500890 0.852020 -0.210535
O1    O     O_R   0.500000 0.319640 0.618810 -0.494022
O2    O     O_R   0.582120 0.500020 0.618760 -0.423840
O3    O     O_R   0.582120 0.500060 0.381180 -0.475908
O4    O     O_2   0.849204 0.655416 0.671283 -0.514242
O5    O     O_2   0.850123 0.342100 0.333423 -0.504511
O6    O     O_2   0.147301 0.332450 0.342141 -0.519717
O7    O     O_2   0.151072 0.678968 0.639194 -0.518917
O8    O     O_R   0.500010 0.319680 0.381230 -0.471780
O9    O     O_R   0.417880 0.499940 0.618820 -0.520617
O10   O     O_R   0.417880 0.499980 0.381240 -0.514511
O11   O     O_R   0.499990 0.680320 0.618770 -0.505109
O12   O     O_R   0.500000 0.680360 0.381190 -0.511719

loop_
_geom_bond_atom_site_label_1
_geom_bond_atom_site_label_2
_ccdc_geom_bond_type
C51   C52   A    
Br4   C32   S    
Br2   C14   S    
Cu1   O9    S    
C37   C38   A    
C15   H12   S    
C31   C32   S    
C46   H20   S    
Br3   C20   S    
C34   C45   A    
C41   C42   S    
C40   C41   S    
C25   C26   S    
C16   C22   S    
Cu1   O11   S    
Cu2   O3    S    
C10   C17   A    
C24   C25   S    
C15   C17   A    
C47   H31   S    
C36   N1    A    
C16   O12   A    
C23   C34   A    
C45   C50   A    
C53   N2    A    
C44   H22   S    
C41   H14   S    
C14   C15   A    
C12   H1    S    
C40   H17   S    
C42   H10   S    
C47   H32   S    
C16   O11   A    
C23   H38   S    
C10   C47   S    
Cu2   O10   S    
C19   C20   A    
C28   O3    A    
C49   H27   S    
Cu1   O1    S    
C43   H24   S    
C5    C6    A    
C42   H13   S    
C12   C23   A    
C44   C46   S    
C18   C24   A    
Cu2   N3    S    
C48   H30   S    
C29   H37   S    
C2    C50   A    
C8    C43   S    
C32   H3    S    
C46   H19   S    
C33   H4    S    
C29   C30   A    
C18   C19   A    
C30   N4    A    
C47   C48   S    
C48   H29   S    
C20   C21   A    
C4    O10   A    
C35   N1    A    
C35   C39   A    
C21   C22   A    
C27   N3    A    
C30   H2    S    
C27   C33   S    
C41   H15   S    
C9    N2    S    
C40   H16   S    
C5    H8    S    
C26   H36   S    
C4    O9    A    
C34   C53   A    
C40   C52   S    
C43   C44   S    
C1    C19   S    
Cu2   O12   S    
C13   C14   A    
C28   O2    A    
C49   H28   S    
Cu1   N4    S    
C43   H25   S    
Br1   C11   S    
C36   C37   A    
C53   O6    S    
C21   H23   S    
C27   C31   A    
C38   C39   A    
C1    O1    A    
C46   H18   S    
C33   H5    S    
C7    H9    S    
C36   O5    S    
C35   O4    S    
C50   C51   A    
C32   C33   S    
C18   C26   S    
C51   H6    S    
C31   N4    A    
C7    C8    A    
C11   C13   A    
C22   C24   A    
C29   N3    A    
C2    N2    A    
C44   H21   S    
Cu1   Cu2   S    
C26   H35   S    
C3    H7    S    
C25   H34   S    
C17   N1    S    
C1    O8    A    
Cu2   O8    S    
C42   H11   S    
C6    C7    A    
C38   C45   A    
C3    C5    A    
C39   C52   A    
C3    C9    A    
C8    C9    A    
C4    C6    S    
C13   C28   S    
C2    O7    S    
C10   C11   A    
C49   H26   S    
Cu1   O2    S    
C12   C37   A    
C25   H33   S    
C48   C49   S    
