data_mof_unit_34255.cif
_audit_creation_date              2012-12-10T20:43:16-0500
_audit_creation_method            fapswitch 2.2
_symmetry_space_group_name_H-M    P1
_symmetry_Int_Tables_number       1
_space_group_crystal_system       triclinic
_cell_length_a                    15.808348
_cell_length_b                    10.752283
_cell_length_c                    9.899265
_cell_angle_alpha                 88.948572
_cell_angle_beta                  90.619861
_cell_angle_gamma                 90.638362
_cell_volume                      1682.15326807

loop_
_atom_site_label
_atom_site_type_symbol
_atom_type_description
_atom_site_fract_x
_atom_site_fract_y
_atom_site_fract_z
_atom_type_partial_charge
C1    C     C_R   0.498163 0.260285 0.500838 0.882350
C2    C     C_R   0.046292 0.473461 0.625031 -0.209940
C3    C     C_1   0.823823 0.486243 0.503907 -0.084195
C4    C     C_1   0.175910 0.490854 0.498694 -0.064324
C5    C     C_1   0.250865 0.495583 0.498217 -0.194319
C6    C     C_1   0.749003 0.493041 0.502203 -0.203274
C7    C     C_R   0.532680 0.061174 0.606481 0.128385
C8    C     C_R   0.497089 0.128261 0.499894 -0.152571
C9    C     C_R   0.465889 0.067916 0.385422 -0.252546
C10   C     C_R   0.464666 0.938647 0.380739 0.199859
C11   C     C_R   0.497291 0.871909 0.494159 -0.197007
C12   C     C_R   0.339398 0.499694 0.499343 0.883544
C13   C     C_R   0.533904 0.933953 0.602876 0.109149
C14   C     C_3   0.513081 0.920332 0.749387 -0.452397
C15   C     C_3   0.508312 0.060049 0.751747 -0.501504
C16   C     C_R   0.433595 0.450044 0.071059 0.115194
C17   C     C_R   0.560092 0.564527 0.072987 0.190323
C18   C     C_R   0.562724 0.559327 0.928055 0.169656
C19   C     C_R   0.432663 0.452374 0.928539 0.126826
C20   C     C_3   0.402245 0.320459 0.926889 0.008110
C21   C     C_3   0.403217 0.318778 0.080326 -0.495393
C22   C     C_R   0.497618 0.739638 0.498465 0.870094
C23   C     C_R   0.660600 0.499578 0.500648 0.918091
C24   C     C_R   0.957728 0.468883 0.629478 0.237611
C25   C     C_R   0.912876 0.479193 0.505887 0.091380
C26   C     C_R   0.954366 0.489301 0.382278 -0.216061
C27   C     C_R   0.041785 0.491721 0.379761 -0.188851
C28   C     C_R   0.086985 0.484920 0.501006 0.121390
H1    H     H_    0.084291 0.468253 0.716381 0.146363
H2    H     H_    0.557253 0.103627 0.817647 0.198828
H3    H     H_    0.918997 0.497156 0.288092 0.150141
H4    H     H_    0.451136 0.873285 0.767918 0.210044
N1    N     N_R   0.499440 0.499140 0.142800 -0.130255
N2    N     N_R   0.499440 0.499180 0.857150 -0.152852
O1    O     O_R   0.500010 0.316790 0.614690 -0.627096
O2    O     O_R   0.500000 0.316760 0.385350 -0.624486
O3    O     O_R   0.378030 0.499990 0.614640 -0.618106
O4    O     O_R   0.378020 0.499950 0.385300 -0.614167
O5    O     O_R   0.500000 0.683240 0.614650 -0.607899
O6    O     O_R   0.499990 0.683210 0.385310 -0.586309
O7    O     O_R   0.621980 0.500050 0.614700 -0.584257
O8    O     O_R   0.621970 0.500010 0.385360 -0.605954
Zn1   Zn    Zn3+2 0.500010 0.500020 0.653130 0.949935
Zn2   Zn    Zn3+2 0.499990 0.499980 0.346870 0.961786
N3    N     N_2   0.620919 0.634475 0.147106 -0.251642
H5    H     H_    0.680373 0.597087 0.156644 0.220225
C29   C     C_3   0.617679 0.768695 0.134363 -0.750007
H6    H     H_    0.674331 0.804551 0.080233 0.203925
H7    H     H_    0.617745 0.809318 0.236542 0.263181
H8    H     H_    0.559928 0.799625 0.078910 0.241221
N4    N     N_2   0.631283 0.614338 0.856234 -0.246817
H9    H     H_    0.640252 0.707543 0.873404 0.211395
C30   C     C_3   0.709641 0.545807 0.863455 -0.736524
H10   H     H_    0.698138 0.445514 0.843944 0.242376
H11   H     H_    0.753517 0.583762 0.785893 0.249773
H12   H     H_    0.741006 0.555656 0.963193 0.204719
N5    N     N_2   0.318620 0.302760 0.865877 -0.275866
H13   H     H_    0.321301 0.275294 0.766749 0.233576
C31   C     C_3   0.253539 0.394367 0.887040 -0.743739
H14   H     H_    0.192025 0.357485 0.849368 0.221422
H15   H     H_    0.268566 0.481884 0.830574 0.245728
H16   H     H_    0.246592 0.414499 0.995755 0.235494
H17   H     H_    0.450312 0.258657 0.885204 0.127596
H18   H     H_    0.340434 0.309102 0.128784 0.209079
H19   H     H_    0.452436 0.256222 0.123137 0.179825
N6    N     N_2   0.912769 0.456542 0.754278 -0.307737
H20   H     H_    0.857578 0.404706 0.749560 0.229134
C32   C     C_3   0.958743 0.442513 0.880856 -0.826518
H21   H     H_    0.913299 0.437577 0.965638 0.239193
H22   H     H_    0.000966 0.524223 0.897189 0.248906
H23   H     H_    0.995913 0.355409 0.881632 0.241721
H24   H     H_    0.074058 0.500524 0.283936 0.146369
H25   H     H_    0.437637 0.121973 0.304328 0.174827
N7    N     N_2   0.424505 0.875218 0.270762 -0.272621
H26   H     H_    0.377055 0.813639 0.298667 0.232971
C33   C     C_3   0.409619 0.939945 0.143185 -0.816462
H27   H     H_    0.392810 0.871246 0.064652 0.240492
H28   H     H_    0.467639 0.990787 0.110269 0.246347
H29   H     H_    0.356253 0.005500 0.152238 0.239635
H30   H     H_    0.566850 0.883536 0.810241 0.191078
H31   H     H_    0.442265 0.091312 0.765098 0.202425

loop_
_geom_bond_atom_site_label_1
_geom_bond_atom_site_label_2
_ccdc_geom_bond_type
N6    C32   S    
C16   C21   S    
C1    C8    S    
C11   C13   A    
C19   C20   S    
C33   H29   S    
C3    C6    T    
C7    C8    A    
C15   H31   S    
C30   H10   S    
C26   C27   A    
C23   O8    A    
N7    C33   S    
C2    H1    S    
C33   H28   S    
C16   C19   A    
N5    C31   S    
C6    C23   S    
C12   O3    A    
C21   H18   S    
C8    C9    A    
C14   H30   S    
O1    Zn1   S    
C9    C10   A    
C24   N6    S    
N3    C29   S    
N6    H20   S    
C31   H14   S    
C13   C14   S    
O7    Zn1   S    
O8    Zn2   S    
C4    C28   S    
C18   N4    S    
C29   H8    S    
C30   H11   S    
C31   H15   S    
N7    H26   S    
N4    H9    S    
C3    C25   S    
C33   H27   S    
C5    C12   S    
C29   H7    S    
C14   H4    S    
C32   H21   S    
O5    Zn1   S    
C25   C26   A    
N3    H5    S    
N4    C30   S    
O3    Zn1   S    
O4    Zn2   S    
C16   N1    A    
C29   H6    S    
O6    Zn2   S    
C22   O6    A    
C17   C18   A    
C17   N1    A    
C24   C25   A    
C18   N2    A    
C2    C24   A    
O2    Zn2   S    
C1    O1    A    
C15   H2    S    
C30   H12   S    
C31   H16   S    
C21   H19   S    
N1    Zn2   S    
C26   H3    S    
C9    H25   S    
N2    Zn1   S    
C17   N3    S    
C4    C5    T    
C19   N2    A    
C11   C22   S    
C23   O7    A    
C20   H17   S    
C10   N7    S    
N5    H13   S    
C32   H23   S    
C22   O5    A    
C7    C15   S    
C12   O4    A    
C10   C11   A    
C7    C13   A    
C20   C21   S    
C32   H22   S    
C27   C28   A    
C14   C15   S    
C2    C28   A    
C20   N5    S    
C27   H24   S    
C1    O2    A    
