data_mof_unit_52256.cif
_audit_creation_date              2012-12-10T16:41:53-0500
_audit_creation_method            fapswitch 2.2
_symmetry_space_group_name_H-M    P1
_symmetry_Int_Tables_number       1
_space_group_crystal_system       triclinic
_cell_length_a                    10.903246
_cell_length_b                    8.734647
_cell_length_c                    7.56464
_cell_angle_alpha                 103.523772
_cell_angle_beta                  96.253038
_cell_angle_gamma                 94.870412
_cell_volume                      691.728287183

loop_
_atom_site_label
_atom_site_type_symbol
_atom_type_description
_atom_site_fract_x
_atom_site_fract_y
_atom_site_fract_z
_atom_type_partial_charge
C1    C     C_R   0.491373 0.199460 0.452095 0.777093
C2    C     C_2   0.505227 0.968366 0.568655 -0.376461
C3    C     C_R   0.265562 0.501624 0.498696 0.900573
C4    C     C_R   0.502519 0.800027 0.546604 0.872157
C5    C     C_R   0.733740 0.490986 0.499923 0.790113
C6    C     C_2   0.919659 0.472573 0.354866 -0.336617
C7    C     C_2   0.861435 0.453780 0.497699 -0.190455
C8    C     C_2   0.051353 0.453254 0.345399 0.487209
C9    C     C_2   0.133972 0.513467 0.496623 -0.280429
C10   C     C_2   0.476631 0.029293 0.423665 0.257397
Cu1   Cu    Cu3+1 0.513740 0.517380 0.684380 1.038937
Cu2   Cu    Cu3+1 0.486260 0.482620 0.315620 1.098451
H1    H     H_    0.871070 0.510261 0.241903 0.213634
H2    H     H_    0.104145 0.574661 0.624246 0.109938
H3    H     H_    0.535136 0.043412 0.705624 0.142193
N1    N     N_2   0.465540 0.456420 0.038510 -0.121229
N2    N     N_2   0.534460 0.543580 0.961490 0.058507
O1    O     O_R   0.508930 0.286130 0.619780 -0.579173
O2    O     O_R   0.485720 0.256780 0.308360 -0.587698
O3    O     O_R   0.333540 0.514670 0.655670 -0.563543
O4    O     O_R   0.310330 0.485320 0.344250 -0.516582
O5    O     O_R   0.514280 0.743220 0.691640 -0.612303
O6    O     O_R   0.491070 0.713870 0.380220 -0.472150
O7    O     O_R   0.689670 0.514680 0.655750 -0.567754
O8    O     O_R   0.666460 0.485330 0.344330 -0.548862
C11   C     C_2   0.915630 0.377358 0.640917 0.843770
O9    O     O_2   0.895857 0.422115 0.799814 -0.592223
O10   O     O_R   0.986886 0.251871 0.592791 -0.749885
H4    H     H_    0.017758 0.209795 0.701594 0.334193
O11   O     O_3   0.089463 0.379599 0.181361 -0.660619
H5    H     H_    0.014707 0.339301 0.089747 0.351187
O12   O     O_3   0.431644 0.932014 0.251528 -0.673053
H6    H     H_    0.406024 0.996455 0.165293 0.354040
C12   C     C_2   0.367787 0.330494 0.950813 1.018371
O13   O     O_2   0.315284 0.260453 0.048113 -0.566492
O14   O     O_R   0.327184 0.282300 0.764626 -0.754071
H7    H     H_    0.258112 0.190957 0.730133 0.312788
O15   O     O_3   0.618700 0.651633 0.077121 -0.558842
H8    H     H_    0.662277 0.706704 0.997429 0.347886

loop_
_geom_bond_atom_site_label_1
_geom_bond_atom_site_label_2
_ccdc_geom_bond_type
C8    C9    D    
C2    C4    S    
C9    H2    S    
Cu1   O1    S    
C6    C7    D    
C3    C9    S    
C4    O5    A    
Cu1   O5    S    
C11   O10   S    
Cu2   O8    S    
Cu1   Cu2   S    
C8    O11   S    
O12   H6    S    
C1    O1    A    
C3    O3    A    
C6    H1    S    
C2    H3    S    
C5    O7    A    
Cu2   O6    S    
C11   O9    D    
O11   H5    S    
C7    C11   S    
C5    O8    A    
Cu2   O2    S    
O10   H4    S    
C12   O14   S    
N2    O15   S    
O15   H8    S    
Cu1   O3    S    
C1    O2    A    
C3    O4    A    
C2    C10   D    
C10   O12   S    
Cu1   O7    S    
C12   O13   D    
C5    C7    S    
C4    O6    A    
O14   H7    S    
C6    C8    S    
N1    C12   S    
Cu2   O4    S    
Cu1   N2    S    
C1    C10   S    
Cu2   N1    S    
N1    N2    D    
