data_mof_unit_37847.cif
_audit_creation_date              2012-12-11T15:41:15-0500
_audit_creation_method            fapswitch 2.2
_symmetry_space_group_name_H-M    P1
_symmetry_Int_Tables_number       1
_space_group_crystal_system       triclinic
_cell_length_a                    19.030775
_cell_length_b                    10.978283
_cell_length_c                    18.77156
_cell_angle_alpha                 90.067784
_cell_angle_beta                  90.258232
_cell_angle_gamma                 90.072214
_cell_volume                      3921.80684088

loop_
_atom_site_label
_atom_site_type_symbol
_atom_type_description
_atom_site_fract_x
_atom_site_fract_y
_atom_site_fract_z
_atom_type_partial_charge
C1    C     C_R   0.724742 0.961181 0.855861 0.539637
C2    C     C_R   0.312822 0.395392 0.029358 0.023772
C3    C     C_R   0.761090 0.859976 0.354663 0.545023
C4    C     C_2   0.498140 0.170917 0.921240 -0.107760
C5    C     C_2   0.501488 0.166087 0.078582 -0.118044
C6    C     C_2   0.998401 0.671553 0.921300 -0.117530
C7    C     C_2   0.001819 0.665956 0.078757 -0.126536
C8    C     C_2   0.485362 0.069943 0.036778 -0.164579
C9    C     C_2   0.499635 0.068530 0.959876 -0.162601
C10   C     C_2   0.985136 0.570297 0.036781 -0.172255
C11   C     C_2   0.999059 0.568990 0.959809 -0.169715
C12   C     C_R   0.746693 0.396759 0.081195 0.014087
C13   C     C_R   0.187112 0.932248 0.967076 0.018018
C14   C     C_R   0.238103 0.425721 0.927661 0.019366
C15   C     C_R   0.245667 0.900876 0.080561 0.015548
C16   C     C_R   0.735160 0.941516 0.931428 0.018859
C17   C     C_R   0.807470 0.955430 0.036560 0.011246
C18   C     C_R   0.775412 0.270878 0.978790 -0.152821
C19   C     C_R   0.188106 0.419809 0.046532 -0.167105
C20   C     C_R   0.262617 0.759192 0.982569 -0.158051
C21   C     C_R   0.683159 0.919085 0.048712 -0.159570
C22   C     C_R   0.784929 0.300458 0.050604 -0.152670
C23   C     C_R   0.179521 0.426907 0.973339 -0.151309
C24   C     C_R   0.273709 0.791550 0.054037 -0.153050
C25   C     C_R   0.272627 0.955674 0.146294 0.543235
C26   C     C_R   0.675875 0.925952 0.975122 -0.151179
C27   C     C_3   0.670501 0.575224 0.028854 -0.259664
C28   C     C_3   0.373251 0.466068 0.945877 -0.284145
C29   C     C_3   0.192783 0.097150 0.021477 -0.251876
C30   C     C_3   0.868926 0.910469 0.948588 -0.293475
C31   C     C_3   0.658496 0.540227 0.951477 -0.262611
C32   C     C_3   0.382184 0.459855 0.026439 -0.263177
C33   C     C_3   0.181161 0.062071 0.944087 -0.258726
C34   C     C_3   0.877703 0.896199 0.028448 -0.257184
C35   C     C_R   0.726200 0.334115 0.936832 0.012680
C36   C     C_R   0.226051 0.457357 0.854158 0.540076
C37   C     C_R   0.255495 0.409177 0.075646 0.011693
C38   C     C_R   0.224798 0.836232 0.936665 0.014826
C39   C     C_R   0.750356 0.923098 0.079507 0.015326
C40   C     C_R   0.509520 0.170877 0.420409 0.019863
C41   C     C_R   0.516756 0.170427 0.568266 0.021486
C42   C     C_R   0.009520 0.670877 0.420409 0.019646
C43   C     C_R   0.016757 0.670427 0.568265 0.021533
C44   C     C_R   0.522654 0.279325 0.457675 0.028207
C45   C     C_R   0.525405 0.277951 0.530164 0.044214
C46   C     C_R   0.022654 0.779324 0.457675 0.028135
C47   C     C_R   0.772701 0.455219 0.146356 0.543006
C48   C     C_R   0.025406 0.777951 0.530163 0.044235
C49   C     C_R   0.516628 0.059474 0.531066 -0.166642
C50   C     C_R   0.515125 0.059676 0.456705 -0.171558
C51   C     C_R   0.016630 0.559474 0.531066 -0.166595
C52   C     C_R   0.015126 0.559675 0.456705 -0.171625
C53   C     C_R   0.529931 0.177862 0.850758 0.545728
C54   C     C_R   0.469914 0.177296 0.149108 0.550260
C55   C     C_R   0.029943 0.677938 0.850740 0.545859
C56   C     C_R   0.970177 0.677237 0.149275 0.543830
C57   C     C_3   0.485178 0.400294 0.458538 -0.267810
C58   C     C_R   0.690586 0.445616 0.041977 0.009311
C59   C     C_3   0.488211 0.396321 0.538722 -0.278204
C60   C     C_3   0.985178 0.900293 0.458538 -0.267744
C61   C     C_3   0.988212 0.896320 0.538722 -0.278220
C62   C     C_R   0.750572 0.400538 0.419407 0.016791
C63   C     C_R   0.250805 0.411429 0.578520 0.013858
C64   C     C_R   0.250573 0.900540 0.419408 0.016780
C65   C     C_R   0.750803 0.911433 0.578518 0.013707
C66   C     C_R   0.798821 0.329180 0.457555 0.022575
C67   C     C_R   0.214916 0.316717 0.544410 0.018635
C68   C     C_R   0.298821 0.829180 0.457556 0.022457
C69   C     C_R   0.304334 0.404600 0.956521 -0.006600
C70   C     C_R   0.714914 0.816721 0.544408 0.018679
C71   C     C_R   0.794468 0.319537 0.530206 0.031973
C72   C     C_R   0.216278 0.307488 0.471470 0.046242
C73   C     C_R   0.294468 0.819540 0.530207 0.032071
C74   C     C_R   0.716277 0.807492 0.471468 0.046169
C75   C     C_R   0.686276 0.431632 0.529226 -0.151282
C76   C     C_R   0.298900 0.472623 0.463732 -0.172904
C77   C     C_R   0.186278 0.931636 0.529227 -0.151297
C78   C     C_R   0.798898 0.972628 0.463730 -0.172868
C79   C     C_R   0.690024 0.440460 0.454732 -0.153975
C80   C     C_R   0.197541 0.964163 0.037728 0.008778
C81   C     C_R   0.297551 0.483144 0.538026 -0.165086
C82   C     C_R   0.190025 0.940463 0.454734 -0.153957
C83   C     C_R   0.797549 0.983149 0.538024 -0.165186
C84   C     C_3   0.877479 0.334359 0.461096 -0.268913
C85   C     C_3   0.139506 0.277701 0.547083 -0.270357
C86   C     C_3   0.377479 0.834356 0.461097 -0.268959
C87   C     C_3   0.639504 0.777704 0.547080 -0.270325
C88   C     C_3   0.872003 0.323374 0.541028 -0.278999
C89   C     C_3   0.140731 0.272347 0.466654 -0.267071
C90   C     C_3   0.372004 0.823372 0.541028 -0.278934
C91   C     C_R   0.799517 0.966542 0.963603 0.001384
C92   C     C_3   0.640730 0.772349 0.466651 -0.267112
C93   C     C_R   0.742238 0.379675 0.568000 0.017282
C94   C     C_R   0.254280 0.389115 0.429581 0.021688
C95   C     C_R   0.242239 0.879679 0.568002 0.017334
C96   C     C_R   0.754279 0.889119 0.429579 0.021571
C97   C     C_R   0.723995 0.312832 0.859843 0.562921
C98   C     C_R   0.262239 0.364286 0.147490 0.542156
C99   C     C_R   0.223726 0.812613 0.859855 0.561875
C100  C     C_R   0.761784 0.864741 0.147709 0.541593
C101  C     C_R   0.728141 0.955157 0.647671 0.554564
C102  C     C_R   0.679927 0.413723 0.971183 0.015248
C103  C     C_R   0.271774 0.953261 0.351712 0.546153
C104  C     C_R   0.228142 0.455156 0.647671 0.554140
C105  C     C_R   0.771774 0.453261 0.351712 0.546823
C106  C     C_R   0.532067 0.176365 0.643145 0.547113
C107  C     C_R   0.471909 0.176777 0.353895 0.548213
C108  C     C_R   0.032067 0.676364 0.643145 0.546971
C109  C     C_R   0.971908 0.676777 0.353895 0.548391
C110  C     C_R   0.737563 0.355751 0.643853 0.555260
C111  C     C_R   0.261091 0.359974 0.354664 0.544235
C112  C     C_R   0.237564 0.855755 0.643854 0.555309
Cr1   Cr    Cr6+3 0.769260 0.163750 0.750730 1.008104
Cr2   Cr    Cr6+3 0.385810 0.322400 0.252290 1.008288
Cr3   Cr    Cr6+3 0.114190 0.822400 0.747710 1.010453
Cr4   Cr    Cr6+3 0.885810 0.822400 0.252290 1.007601
Cr5   Cr    Cr6+3 0.230740 0.163750 0.249270 1.012093
Cr6   Cr    Cr6+3 0.269260 0.663750 0.750730 1.004752
Cr7   Cr    Cr6+3 0.730740 0.663750 0.249270 1.009524
Cr8   Cr    Cr6+3 0.612640 0.009910 0.748780 1.004663
Cr9   Cr    Cr6+3 0.387360 0.009910 0.251220 1.006122
Cr10  Cr    Cr6+3 0.112640 0.509910 0.748780 1.004060
Cr11  Cr    Cr6+3 0.887360 0.509910 0.251220 1.005639
Cr12  Cr    Cr6+3 0.614190 0.322400 0.747710 1.009501
H1    H     H_    0.458902 0.990692 0.058604 0.158788
H2    H     H_    0.435872 0.385477 0.564013 0.141726
H3    H     H_    0.017401 0.974805 0.435431 0.121017
H4    H     H_    0.935873 0.885476 0.564013 0.141730
H5    H     H_    0.641234 0.468372 0.556437 0.125375
H6    H     H_    0.332760 0.531995 0.433140 0.121076
H7    H     H_    0.141235 0.968377 0.556438 0.125350
H8    H     H_    0.832759 0.031998 0.433138 0.121276
H9    H     H_    0.648600 0.485507 0.425556 0.116580
H10   H     H_    0.328244 0.554543 0.562792 0.138271
H11   H     H_    0.148601 0.985509 0.425557 0.116605
H12   H     H_    0.510899 0.981650 0.934881 0.141638
H13   H     H_    0.828242 0.054547 0.562790 0.138215
H14   H     H_    0.897653 0.424367 0.444487 0.170367
H15   H     H_    0.103582 0.348414 0.567234 0.162571
H16   H     H_    0.397655 0.924362 0.444487 0.170431
H17   H     H_    0.603580 0.848417 0.567230 0.162509
H18   H     H_    0.902606 0.254224 0.435479 0.128084
H19   H     H_    0.133138 0.187052 0.572425 0.126871
H20   H     H_    0.402604 0.754219 0.435479 0.127875
H21   H     H_    0.633137 0.687054 0.572423 0.126913
H22   H     H_    0.893575 0.236470 0.561894 0.132884
H23   H     H_    0.958382 0.491285 0.058538 0.160435
H24   H     H_    0.132630 0.179918 0.445053 0.137023
H25   H     H_    0.393574 0.736468 0.561895 0.132895
H26   H     H_    0.632631 0.679918 0.445050 0.136992
H27   H     H_    0.889397 0.406485 0.570093 0.139538
H28   H     H_    0.108325 0.343822 0.440784 0.134741
H29   H     H_    0.389398 0.906483 0.570093 0.139539
H30   H     H_    0.608324 0.843821 0.440780 0.134738
H31   H     H_    0.529429 0.244231 0.057316 0.103745
H32   H     H_    0.482945 0.255864 0.946034 0.099300
H33   H     H_    0.029802 0.744075 0.057524 0.110024
H34   H     H_    0.009484 0.481865 0.934648 0.143858
H35   H     H_    0.984127 0.757205 0.946003 0.111319
H36   H     H_    0.810611 0.205759 0.954718 0.143602
H37   H     H_    0.142047 0.420609 0.080295 0.135258
H38   H     H_    0.286890 0.678297 0.962130 0.129370
H39   H     H_    0.637265 0.898048 0.080378 0.137135
H40   H     H_    0.827100 0.256396 0.079665 0.139088
H41   H     H_    0.126995 0.439362 0.952771 0.142973
H42   H     H_    0.308303 0.736348 0.086600 0.128652
H43   H     H_    0.624051 0.914968 0.952432 0.138760
H44   H     H_    0.243293 0.145774 0.030761 0.153648
H45   H     H_    0.930414 0.895751 0.438677 0.175929
H46   H     H_    0.906351 0.976715 0.924955 0.141753
H47   H     H_    0.715166 0.639491 0.036366 0.157099
H48   H     H_    0.369728 0.559782 0.924469 0.146480
H49   H     H_    0.621355 0.600767 0.056900 0.139730
H50   H     H_    0.410308 0.407475 0.916171 0.138553
H51   H     H_    0.145985 0.140114 0.046224 0.148793
H52   H     H_    0.863966 0.822436 0.919619 0.137843
H53   H     H_    0.602369 0.545047 0.935073 0.140340
H54   H     H_    0.426394 0.400367 0.043143 0.151315
H55   H     H_    0.127548 0.084410 0.924351 0.141523
H56   H     H_    0.021642 0.968895 0.562270 0.132806
H57   H     H_    0.877277 0.799383 0.045612 0.154788
H58   H     H_    0.695976 0.584764 0.914375 0.153490
H59   H     H_    0.380890 0.550571 0.052758 0.128797
H60   H     H_    0.224787 0.090928 0.908622 0.153711
H61   H     H_    0.921010 0.952646 0.050879 0.145393
H62   H     H_    0.514460 0.974021 0.559284 0.118342
H63   H     H_    0.510384 0.974211 0.428435 0.116169
H64   H     H_    0.014462 0.474020 0.559284 0.118358
H65   H     H_    0.010384 0.474210 0.428435 0.116218
H66   H     H_    0.430415 0.395753 0.438676 0.175934
H67   H     H_    0.521641 0.468895 0.562271 0.132804
H68   H     H_    0.517402 0.474806 0.435432 0.120892
O1    O     O_R   0.784290 0.290360 0.830540 -0.516505
O2    O     O_R   0.456020 0.282110 0.333230 -0.526009
O3    O     O_R   0.043980 0.782110 0.666770 -0.519192
O4    O     O_R   0.956020 0.782110 0.333230 -0.525482
O5    O     O_R   0.679070 0.374030 0.674430 -0.502908
O6    O     O_R   0.320930 0.374030 0.325570 -0.510173
O7    O     O_R   0.179070 0.874030 0.674430 -0.503015
O8    O     O_R   0.820930 0.874030 0.325570 -0.509236
O9    O     O_3   0.665360 0.165350 0.749070 -0.269332
O10   O     O_3   0.334640 0.165350 0.250930 -0.244385
O11   O     O_3   0.165360 0.665350 0.749070 -0.268663
O12   O     O_R   0.215710 0.290360 0.169460 -0.525098
O13   O     O_3   0.834640 0.665350 0.250930 -0.244543
O14   O     O_R   0.762610 0.041070 0.825230 -0.515057
O15   O     O_R   0.237390 0.041070 0.174770 -0.498432
O16   O     O_R   0.262610 0.541070 0.825230 -0.521305
O17   O     O_R   0.737390 0.541070 0.174770 -0.499122
O18   O     O_R   0.667390 0.924160 0.829970 -0.525993
O19   O     O_R   0.332610 0.924160 0.170030 -0.524839
O20   O     O_R   0.167390 0.424160 0.829970 -0.525251
O21   O     O_R   0.832610 0.424160 0.170030 -0.526929
O22   O     O_R   0.553980 0.081420 0.821780 -0.499113
O23   O     O_R   0.284290 0.790360 0.830540 -0.514341
O24   O     O_R   0.446020 0.081420 0.178220 -0.497251
O25   O     O_R   0.053980 0.581420 0.821780 -0.499190
O26   O     O_R   0.946020 0.581420 0.178220 -0.496678
O27   O     O_R   0.543210 0.283170 0.826740 -0.526347
O28   O     O_R   0.456790 0.283170 0.173260 -0.519755
O29   O     O_R   0.043210 0.783170 0.826740 -0.523788
O30   O     O_R   0.956790 0.783170 0.173260 -0.520788
O31   O     O_R   0.678350 0.375000 0.822720 -0.497256
O32   O     O_R   0.321650 0.375000 0.177280 -0.498292
O33   O     O_R   0.178350 0.875000 0.822720 -0.496949
O34   O     O_R   0.715710 0.790360 0.169460 -0.528258
O35   O     O_R   0.821650 0.875000 0.177280 -0.498962
O36   O     O_R   0.785060 0.289300 0.670580 -0.514248
O37   O     O_R   0.214940 0.289300 0.329420 -0.517637
O38   O     O_R   0.285060 0.789300 0.670580 -0.514136
O39   O     O_R   0.714940 0.789300 0.329420 -0.517449
O40   O     O_R   0.763330 0.040090 0.676940 -0.507682
O41   O     O_R   0.236670 0.040090 0.323060 -0.504044
O42   O     O_R   0.263330 0.540090 0.676940 -0.507732
O43   O     O_R   0.736670 0.540090 0.323060 -0.503784
O44   O     O_R   0.668160 0.923110 0.670000 -0.520289
O45   O     O_R   0.554690 0.080440 0.673480 -0.506375
O46   O     O_R   0.331840 0.923110 0.330000 -0.524027
O47   O     O_R   0.168160 0.423110 0.670000 -0.520682
O48   O     O_R   0.831840 0.423110 0.330000 -0.523310
O49   O     O_R   0.445310 0.080440 0.326520 -0.510763
O50   O     O_R   0.054690 0.580440 0.673480 -0.506308
O51   O     O_R   0.945310 0.580440 0.326520 -0.510435
O52   O     O_R   0.543980 0.282110 0.666770 -0.519094

loop_
_geom_bond_atom_site_label_1
_geom_bond_atom_site_label_2
_ccdc_geom_bond_type
C20   C38   A    
Cr10  O11   S    
C7    C10   D    
C56   O30   A    
C21   C26   A    
C19   H37   S    
C53   O22   A    
C21   H39   S    
Cr10  O25   S    
C12   C22   A    
C4    C53   S    
C64   C103  S    
C68   C86   S    
C32   H59   S    
Cr6   O16   S    
Cr6   O11   S    
C17   C91   A    
C65   C101  S    
C6    C55   S    
C35   C102  A    
C32   H54   S    
C85   H19   S    
C56   O26   A    
C6    H35   S    
C48   C61   S    
C86   H20   S    
C81   H10   S    
Cr10  O50   S    
C62   C105  S    
C59   H2    S    
C54   O24   A    
C31   H53   S    
C60   H45   S    
C64   C68   A    
C29   H44   S    
C98   O12   A    
C42   C109  S    
Cr6   O38   S    
C73   C90   S    
Cr3   O33   S    
C89   H24   S    
C35   C97   S    
C95   C112  S    
C90   H25   S    
C111  O6    A    
C36   O16   A    
Cr4   O8    S    
C100  O35   A    
C38   C99   S    
C109  O4    A    
C65   C83   A    
C33   H55   S    
C109  O51   A    
C74   C92   S    
C65   C70   A    
C29   C33   S    
C94   C111  S    
C112  O38   A    
Cr11  O13   S    
C34   H57   S    
C2    C32   S    
C67   C72   A    
C17   C39   A    
C61   H4    S    
C97   O1    A    
C82   H11   S    
C25   O19   A    
C78   H8    S    
C30   H46   S    
C51   H64   S    
C19   C37   A    
C76   C94   A    
C23   H41   S    
C104  O47   A    
C76   H6    S    
C78   C83   A    
C28   H48   S    
C89   H28   S    
C49   H62   S    
C20   C24   A    
C78   C96   A    
C8    C9    S    
C106  O45   A    
C98   O32   A    
C70   C74   A    
Cr2   O10   S    
Cr6   O23   S    
C58   C102  A    
C84   H18   S    
C43   C108  S    
Cr12  O52   S    
Cr5   O12   S    
Cr2   O2    S    
C18   C35   A    
C85   H15   S    
C112  O7    A    
Cr4   O13   S    
C86   H16   S    
C93   C110  S    
C55   O29   A    
C12   C58   A    
C61   H56   S    
C104  O42   A    
Cr12  O27   S    
C84   H14   S    
C103  O41   A    
C87   C92   S    
C110  O5    A    
C70   C87   S    
Cr8   O9    S    
C105  O43   A    
C27   H49   S    
C7    C56   S    
C29   H51   S    
C12   C47   S    
C50   H63   S    
C41   C49   A    
C37   C98   S    
C59   H67   S    
C92   H26   S    
C46   C48   A    
C16   C26   A    
C79   H9    S    
C63   C67   A    
C26   H43   S    
C67   C85   S    
Cr7   O17   S    
C41   C106  S    
C30   C34   S    
Cr4   O35   S    
C27   C31   S    
C51   C52   A    
C31   C102  S    
C74   C96   A    
C62   C79   A    
C28   C32   S    
C57   H68   S    
C55   O25   A    
C86   C90   S    
C3    O39   A    
C6    C11   D    
C62   C66   A    
C19   C23   A    
C63   C104  S    
Cr1   O36   S    
C68   C73   A    
C5    H31   S    
Cr3   O7    S    
Cr12  O5    S    
C77   C95   A    
C97   O31   A    
Cr3   O11   S    
C60   C61   S    
C90   H29   S    
C14   C23   A    
C34   H61   S    
C24   H42   S    
Cr9   O24   S    
C66   C71   A    
C13   C33   S    
C106  O52   A    
C22   H40   S    
C5    C54   S    
C15   C80   A    
C21   C39   A    
Cr12  O31   S    
Cr5   O41   S    
C44   C57   S    
C43   C48   A    
C20   H38   S    
C28   C69   S    
C3    O8    A    
C33   H60   S    
C1    C16   S    
C99   O33   A    
C41   C45   A    
C87   H17   S    
C108  O3    A    
C100  O34   A    
C1    O14   A    
C64   C82   A    
C13   C38   A    
C3    C96   S    
C36   O20   A    
C40   C107  S    
C7    H33   S    
Cr7   O43   S    
C15   C24   A    
C4    H32   S    
Cr11  O26   S    
C63   C81   A    
Cr10  O47   S    
Cr1   O9    S    
Cr11  O21   S    
C31   H58   S    
C42   C46   A    
C111  O37   A    
C14   C69   A    
Cr10  O20   S    
C57   C59   S    
C75   C79   A    
C17   C34   S    
C73   C95   A    
Cr5   O10   S    
C2    C69   A    
C27   H47   S    
C83   H13   S    
C44   C45   A    
C75   C93   A    
Cr1   O40   S    
Cr11  O48   S    
Cr9   O49   S    
Cr3   O3    S    
Cr6   O42   S    
C45   C59   S    
C85   C89   S    
C15   C25   S    
C87   H21   S    
C46   C60   S    
C1    O18   A    
C18   C22   A    
Cr1   O1    S    
Cr3   O29   S    
C60   H3    S    
C77   H7    S    
C84   C88   S    
Cr2   O28   S    
C30   C91   S    
Cr5   O15   S    
C27   C58   S    
C76   C81   A    
Cr9   O10   S    
C5    C8    D    
C54   O28   A    
C71   C93   A    
Cr7   O39   S    
C10   H23   S    
Cr12  O9    S    
Cr8   O45   S    
Cr1   O14   S    
Cr7   O13   S    
Cr8   O18   S    
C47   O17   A    
C72   C94   A    
C57   H66   S    
C110  O36   A    
Cr8   O44   S    
C14   C36   S    
C72   C89   S    
C2    C37   A    
C28   H50   S    
C39   C100  S    
C29   C80   S    
C99   O23   A    
C77   C82   A    
C43   C51   A    
C103  O46   A    
C40   C50   A    
Cr11  O51   S    
C47   O21   A    
Cr5   O37   S    
C88   H27   S    
C105  O48   A    
C101  O40   A    
C52   H65   S    
Cr9   O19   S    
Cr4   O30   S    
C53   O27   A    
C13   C80   A    
C18   H36   S    
C10   C11   S    
C66   C84   S    
C71   C88   S    
Cr4   O4    S    
C9    H12   S    
C75   H5    S    
C8    H1    S    
C40   C44   A    
C11   H34   S    
C16   C91   A    
C49   C50   A    
Cr2   O6    S    
C101  O44   A    
C108  O50   A    
C88   H22   S    
C107  O49   A    
C92   H30   S    
Cr2   O32   S    
C4    C9    D    
C25   O15   A    
Cr8   O22   S    
C30   H52   S    
C107  O2    A    
Cr9   O46   S    
Cr7   O34   S    
C42   C52   A    
