data_mof_unit_44270.cif
_audit_creation_date              2012-10-26T19:15:28-0400
_audit_creation_method            fapswitch 2.2
_symmetry_space_group_name_H-M    P1
_symmetry_Int_Tables_number       1
_space_group_crystal_system       triclinic
_cell_length_a                    15.947604
_cell_length_b                    10.882092
_cell_length_c                    9.602894
_cell_angle_alpha                 88.804119
_cell_angle_beta                  89.117503
_cell_angle_gamma                 91.92828
_cell_volume                      1664.99508776

loop_
_atom_site_label
_atom_site_type_symbol
_atom_type_description
_atom_site_fract_x
_atom_site_fract_y
_atom_site_fract_z
_atom_type_partial_charge
C1    C     C_R   0.500219 0.262528 0.500815 0.544119
C2    C     C_R   0.500882 0.940101 0.367631 0.227305
C3    C     C_R   0.500124 0.870805 0.494037 0.021372
C4    C     C_R   0.341410 0.499945 0.500906 0.539928
C5    C     C_R   0.502621 0.932964 0.619270 -0.013638
C6    C     C_3   0.444663 0.921895 0.743329 0.019396
C7    C     C_3   0.449053 0.061517 0.747987 -0.229170
C8    C     C_R   0.532609 0.597930 0.068686 0.125295
C9    C     C_R   0.456063 0.412791 0.078767 -0.005187
C10   C     C_R   0.453309 0.414795 0.929956 0.229869
C11   C     C_R   0.529543 0.600246 0.924088 0.113787
C12   C     C_R   0.041750 0.503334 0.626903 -0.128831
C13   C     C_3   0.606965 0.681298 0.909287 0.191748
C14   C     C_3   0.614841 0.669971 0.068835 0.171159
C15   C     C_R   0.498701 0.737328 0.498218 0.553697
C16   C     C_R   0.658330 0.494940 0.499691 0.525735
C17   C     C_R   0.954323 0.499125 0.625682 -0.147850
C18   C     C_R   0.912144 0.482022 0.500418 0.058771
C19   C     C_R   0.957655 0.468305 0.374959 0.146804
C20   C     C_R   0.045531 0.474286 0.377097 -0.102031
C21   C     C_R   0.087215 0.491308 0.502639 0.011781
C22   C     C_3   0.309765 0.370148 0.873967 -0.302476
C23   C     C_1   0.822427 0.484229 0.501210 -0.052103
C24   C     C_3   0.734282 0.718465 0.792230 0.031287
C25   C     C_3   0.712651 0.786078 0.656167 -0.264887
C26   C     C_3   0.777629 0.888320 0.620187 -0.497600
C27   C     C_3   0.734875 0.654983 0.204405 0.033968
C28   C     C_3   0.796270 0.750743 0.137433 -0.291456
C29   C     C_3   0.860733 0.796389 0.241892 -0.487277
C30   C     C_3   0.882672 0.329410 0.224363 -0.299638
C31   C     C_3   0.415774 0.901626 0.180966 -0.009126
C32   C     C_3   0.354239 0.795146 0.221457 -0.240400
C33   C     C_3   0.268206 0.812863 0.158337 -0.500098
C34   C     C_1   0.176880 0.495623 0.503563 -0.076711
C35   C     C_3   0.307172 0.921730 0.614152 -0.305767
C36   C     C_1   0.252123 0.498232 0.502967 -0.047244
C37   C     C_1   0.747347 0.487943 0.500363 -0.044154
C38   C     C_R   0.505661 0.059692 0.622709 -0.019294
C39   C     C_R   0.504180 0.129450 0.499620 -0.043606
C40   C     C_R   0.507067 0.068718 0.371833 -0.155666
Cu1   Cu    Cu3+1 0.500000 0.499980 0.640670 1.020701
Cu2   Cu    Cu3+1 0.500000 0.500020 0.359330 0.957545
H1    H     H_    0.073861 0.516590 0.724360 0.107287
H2    H     H_    0.389663 0.108087 0.726694 0.150729
H3    H     H_    0.399994 0.245582 0.905181 0.205342
H4    H     H_    0.284842 0.355092 0.981992 0.098677
H5    H     H_    0.270882 0.314209 0.802381 0.138425
H6    H     H_    0.304195 0.468876 0.845098 0.172042
H7    H     H_    0.794553 0.671951 0.776689 0.144068
H8    H     H_    0.744685 0.787577 0.873902 0.102869
H9    H     H_    0.709970 0.721551 0.568963 0.157026
H10   H     H_    0.650729 0.827874 0.666331 0.159999
H11   H     H_    0.781619 0.955271 0.705788 0.150041
H12   H     H_    0.483805 0.094690 0.840070 0.108265
H13   H     H_    0.758871 0.938041 0.524071 0.146958
H14   H     H_    0.840216 0.849063 0.602436 0.145225
H15   H     H_    0.772857 0.582476 0.251193 0.198323
H16   H     H_    0.698123 0.696512 0.290037 0.126995
H17   H     H_    0.830129 0.708983 0.049225 0.171868
H18   H     H_    0.761222 0.830921 0.099501 0.136936
H19   H     H_    0.898029 0.719124 0.281518 0.169335
H20   H     H_    0.904126 0.865849 0.190472 0.142164
H21   H     H_    0.828782 0.839760 0.330648 0.147232
H22   H     H_    0.949394 0.487518 0.160824 0.239964
H23   H     H_    0.420772 0.342298 0.137939 0.109815
H24   H     H_    0.934743 0.264290 0.217824 0.129831
H25   H     H_    0.847720 0.327433 0.125267 0.158943
H26   H     H_    0.838719 0.299334 0.310149 0.164684
H27   H     H_    0.424169 0.903619 0.066087 0.128648
H28   H     H_    0.388116 0.991079 0.207894 0.110715
H29   H     H_    0.379308 0.707463 0.184216 0.191185
H30   H     H_    0.346772 0.788703 0.336555 0.168305
H31   H     H_    0.240882 0.898710 0.196545 0.142617
H32   H     H_    0.225517 0.733933 0.189328 0.149199
H33   H     H_    0.273324 0.817675 0.042934 0.134069
H34   H     H_    0.591097 0.775420 0.874136 0.021649
H35   H     H_    0.331132 0.830869 0.801866 0.238730
H36   H     H_    0.261759 0.850591 0.577095 0.139187
H37   H     H_    0.342385 0.960947 0.522364 0.151974
H38   H     H_    0.271270 0.994984 0.664214 0.124088
H39   H     H_    0.610035 0.760207 0.120567 0.101826
H40   H     H_    0.919560 0.510184 0.722232 0.111103
H41   H     H_    0.081246 0.464891 0.281143 0.097271
H42   H     H_    0.509063 0.120270 0.274020 0.142745
H43   H     H_    0.474377 0.877235 0.833821 0.104041
N1    N     N_R   0.500520 0.500930 0.147930 -0.239922
N2    N     N_R   0.500520 0.500890 0.852020 -0.191204
N3    N     N_2   0.396092 0.333243 0.864431 -0.468079
N4    N     N_2   0.915745 0.452770 0.246316 -0.535308
N5    N     N_2   0.362375 0.865770 0.714217 -0.500260
O1    O     O_R   0.500000 0.319640 0.618810 -0.467583
O2    O     O_3   0.682872 0.596264 0.105901 -0.511247
O3    O     O_3   0.495494 0.883199 0.240191 -0.582588
O4    O     O_R   0.500010 0.319680 0.381230 -0.521034
O5    O     O_R   0.380300 0.499950 0.618760 -0.481395
O6    O     O_R   0.380310 0.499990 0.381180 -0.520273
O7    O     O_R   0.499990 0.680320 0.618770 -0.503112
O8    O     O_R   0.500000 0.680360 0.381190 -0.477227
O9    O     O_R   0.619690 0.500010 0.618820 -0.435764
O10   O     O_R   0.619700 0.500050 0.381240 -0.480634
O11   O     O_3   0.672197 0.627521 0.832597 -0.484820

loop_
_geom_bond_atom_site_label_1
_geom_bond_atom_site_label_2
_ccdc_geom_bond_type
C22   H6    S    
C4    C36   S    
Cu1   Cu2   S    
C40   H42   S    
C19   C20   A    
C26   H13   S    
C29   H21   S    
C32   H30   S    
Cu1   O5    S    
C10   N3    S    
C6    H43   S    
Cu2   O6    S    
C28   C29   S    
C18   C19   A    
C12   H1    S    
Cu2   O8    S    
C38   C39   A    
C35   H38   S    
C24   O11   S    
C4    O6    A    
C33   H33   S    
C31   H28   S    
C11   N2    A    
C1    O4    A    
C12   C17   A    
Cu1   O9    S    
Cu2   N1    S    
C22   N3    S    
C9    C10   A    
C34   C36   T    
C30   H25   S    
C16   C37   S    
C22   H5    S    
C1    O1    A    
C5    C38   A    
H22   N4    S    
C15   O7    A    
C30   N4    S    
C32   H29   S    
C28   H18   S    
C24   H8    S    
Cu1   N2    S    
C29   H19   S    
C10   N2    A    
C18   C23   S    
H3    N3    S    
C24   C25   S    
C27   H15   S    
C39   C40   A    
C16   O10   A    
C21   C34   S    
C25   C26   S    
C23   C37   T    
C12   C21   A    
C25   H9    S    
C19   N4    S    
Cu2   O10   S    
C9    N1    A    
C4    O5    A    
C31   C32   S    
C13   H34   S    
C17   H40   S    
C17   C18   A    
C27   O2    S    
C7    H2    S    
C14   O2    S    
C30   H24   S    
C33   H31   S    
Cu1   O1    S    
Cu1   O7    S    
C15   O8    A    
C13   O11   S    
C26   H11   S    
C3    C15   S    
C28   H17   S    
C24   H7    S    
C29   H20   S    
C8    C14   S    
C22   H4    S    
Cu2   O4    S    
C2    O3    S    
C3    C5    A    
C27   H16   S    
C26   H14   S    
C16   O9    A    
C6    C7    S    
C35   H36   S    
C14   H39   S    
C32   C33   S    
C2    C3    A    
C25   H10   S    
C31   O3    S    
C11   C13   S    
C5    C6    S    
C8    C11   A    
C35   H37   S    
C7    C38   S    
C8    N1    A    
C9    H23   S    
C1    C39   S    
C35   N5    S    
C2    C40   A    
C33   H32   S    
C31   H27   S    
C6    N5    S    
C20   C21   A    
C20   H41   S    
C27   C28   S    
H35   N5    S    
C7    H12   S    
C13   C14   S    
C30   H26   S    
