data_mof_unit_56067.cif
_audit_creation_date              2012-10-26T21:25:52-0400
_audit_creation_method            fapswitch 2.2
_symmetry_space_group_name_H-M    P1
_symmetry_Int_Tables_number       1
_space_group_crystal_system       triclinic
_cell_length_a                    10.91697
_cell_length_b                    10.954327
_cell_length_c                    12.701311
_cell_angle_alpha                 91.747236
_cell_angle_beta                  90.064851
_cell_angle_gamma                 89.839761
_cell_volume                      1518.21215782

loop_
_atom_site_label
_atom_site_type_symbol
_atom_type_description
_atom_site_fract_x
_atom_site_fract_y
_atom_site_fract_z
_atom_type_partial_charge
C1    C     C_R   0.261934 0.499009 0.502968 0.534205
C2    C     C_R   0.847492 0.600961 0.264596 -0.045239
C3    C     C_R   0.110965 0.561632 0.699548 0.057597
C4    C     C_R   0.893621 0.487685 0.294797 0.053232
C5    C     C_R   0.136707 0.686615 0.711648 -0.068335
C6    C     C_R   0.927679 0.400323 0.216624 -0.119745
C7    C     C_R   0.156298 0.738609 0.811820 -0.117571
C8    C     C_R   0.921571 0.428718 0.110366 -0.145365
C9    C     C_R   0.154711 0.665570 0.900104 -0.092834
C10   C     C_R   0.877373 0.542469 0.081125 -0.136588
C11   C     C_R   0.932811 0.511476 0.592506 -0.150178
C12   C     C_R   0.738282 0.499326 0.497350 0.542068
C13   C     C_R   0.068097 0.470194 0.410963 -0.149359
C14   C     C_R   0.872162 0.495776 0.495379 -0.010705
C15   C     C_R   0.128524 0.493747 0.506614 -0.013750
C16   C     C_R   0.498988 0.261774 0.501730 0.527742
C17   C     C_R   0.500144 0.738095 0.497955 0.546213
C18   C     C_R   0.941556 0.477219 0.402760 -0.037243
C19   C     C_R   0.059555 0.515697 0.598770 -0.043473
C20   C     C_2   0.450108 0.499065 0.034564 -0.078286
C21   C     C_2   0.543421 0.515229 0.966953 -0.069428
C22   C     C_1   0.527941 0.518876 0.852265 0.164099
C23   C     C_R   0.498385 0.871527 0.494951 -0.003719
C24   C     C_1   0.468778 0.487435 0.148358 0.152926
C25   C     C_R   0.651731 0.188639 0.842142 -0.149281
C26   C     C_R   0.377847 0.794834 0.146717 -0.125947
C27   C     C_R   0.632644 0.146897 0.739351 -0.174827
C28   C     C_R   0.387194 0.829977 0.252460 -0.172142
C29   C     C_R   0.514979 0.120720 0.703268 0.044983
C30   C     C_R   0.495679 0.880637 0.292160 0.049384
C31   C     C_R   0.413718 0.138220 0.770726 0.246306
C32   C     C_R   0.596269 0.897380 0.223584 0.257839
C33   C     C_R   0.431604 0.180648 0.876454 0.037271
C34   C     C_R   0.496143 0.127966 0.503703 -0.019952
C35   C     C_R   0.585539 0.866682 0.113985 0.030800
C36   C     C_R   0.552234 0.206273 0.913015 0.267402
C37   C     C_R   0.473769 0.815799 0.076474 0.261519
C38   C     C_R   0.500475 0.936026 0.592056 -0.128654
C39   C     C_R   0.487966 0.063591 0.406959 -0.150180
C40   C     C_3   0.687527 0.267188 0.049796 -0.148679
C41   C     C_3   0.409800 0.867469 0.913787 -0.128784
C42   C     C_3   0.245120 0.203340 0.682610 -0.115908
C43   C     C_3   0.720614 0.063625 0.257461 -0.143917
C44   C     C_3   0.320255 0.201178 0.947946 -0.218295
C45   C     C_R   0.495252 0.936807 0.400281 0.012659
C46   C     C_3   0.332235 0.146857 0.058302 -0.275136
C47   C     C_3   0.207941 0.112142 0.103407 -0.483333
C48   C     C_3   0.686834 0.903425 0.037985 -0.242851
C49   C     C_3   0.718666 0.808995 0.949657 -0.282293
C50   C     C_3   0.848426 0.826710 0.907980 -0.480066
C51   C     C_R   0.501267 0.062657 0.597633 0.010455
C52   C     C_R   0.131833 0.540501 0.888410 -0.124667
C53   C     C_R   0.839311 0.627802 0.158396 -0.117770
C54   C     C_R   0.107551 0.488930 0.788651 -0.107186
Cu1   Cu    Cu3+1 0.492140 0.492110 0.395880 0.974352
Cu2   Cu    Cu3+1 0.507860 0.507890 0.604120 0.976679
H1    H     H_    0.134205 0.744911 0.644280 0.110626
H2    H     H_    0.294068 0.752952 0.118589 0.118759
H3    H     H_    0.710823 0.131849 0.688002 0.120992
H4    H     H_    0.308930 0.818772 0.303617 0.126330
H5    H     H_    0.504577 0.887862 0.665305 0.133495
H6    H     H_    0.478472 0.112442 0.334464 0.131363
H7    H     H_    0.168057 0.706376 0.977671 0.108012
H8    H     H_    0.874092 0.564674 0.998753 0.110988
H9    H     H_    0.128527 0.484425 0.957005 0.098358
H10   H     H_    0.809040 0.717230 0.137260 0.140626
H11   H     H_    0.081163 0.393897 0.781409 0.082517
H12   H     H_    0.967164 0.313789 0.238337 0.093695
H13   H     H_    0.826077 0.671683 0.323270 0.138768
H14   H     H_    0.730375 0.337201 0.000768 0.122633
H15   H     H_    0.742644 0.181875 0.047641 0.093423
H16   H     H_    0.686637 0.303795 0.132148 0.159042
H17   H     H_    0.473713 0.945264 0.909168 0.118259
H18   H     H_    0.319617 0.898038 0.945656 0.119847
H19   H     H_    0.395990 0.831623 0.832139 0.162016
H20   H     H_    0.267923 0.294282 0.719156 0.132248
H21   H     H_    0.144072 0.193555 0.684696 0.120927
H22   H     H_    0.273001 0.200199 0.598693 0.139647
H23   H     H_    0.169136 0.836194 0.820922 0.115300
H24   H     H_    0.645211 0.109252 0.214264 0.118684
H25   H     H_    0.808088 0.082511 0.216765 0.113107
H26   H     H_    0.727005 0.106140 0.337670 0.150868
H27   H     H_    0.146460 0.193148 0.107672 0.145039
H28   H     H_    0.164804 0.039086 0.053521 0.143826
H29   H     H_    0.220428 0.077559 0.184029 0.149352
H30   H     H_    0.392152 0.065111 0.056228 0.171843
H31   H     H_    0.373988 0.215411 0.113607 0.209034
H32   H     H_    0.303407 0.300562 0.957103 0.120946
H33   H     H_    0.236635 0.163315 0.909592 0.173799
H34   H     H_    0.952581 0.363013 0.050750 0.090202
H35   H     H_    0.858710 0.920071 0.877394 0.151552
H36   H     H_    0.916824 0.812921 0.971360 0.149157
H37   H     H_    0.866783 0.759059 0.842944 0.158084
H38   H     H_    0.710047 0.715313 0.978231 0.174276
H39   H     H_    0.655262 0.818409 0.882098 0.201220
H40   H     H_    0.658348 0.989151 0.000849 0.138717
H41   H     H_    0.771925 0.924945 0.082356 0.168382
H42   H     H_    0.881500 0.529056 0.664510 0.143476
H43   H     H_    0.120349 0.455820 0.339073 0.147130
H44   H     H_    0.635510 0.522369 0.997846 0.098819
H45   H     H_    0.357160 0.495316 0.004875 0.104403
H46   H     H_    0.745892 0.204379 0.864796 0.097230
N1    N     N_1   0.480320 0.480250 0.239400 -0.199551
N2    N     N_1   0.519680 0.519750 0.760600 -0.197847
O1    O     O_R   0.313000 0.493330 0.412070 -0.511587
O2    O     O_3   0.460971 0.774200 0.973427 -0.588813
O3    O     O_3   0.297973 0.104985 0.735912 -0.605499
O4    O     O_3   0.707340 0.935898 0.265815 -0.585723
O5    O     O_R   0.687000 0.506670 0.587930 -0.508749
O6    O     O_R   0.326280 0.506660 0.587930 -0.496726
O7    O     O_R   0.673720 0.493340 0.412070 -0.494081
O8    O     O_R   0.493370 0.312980 0.412070 -0.512570
O9    O     O_R   0.506630 0.687020 0.587930 -0.506805
O10   O     O_R   0.506650 0.326310 0.587930 -0.498281
O11   O     O_R   0.493350 0.673690 0.412070 -0.489250
O12   O     O_3   0.565816 0.244814 0.018221 -0.597579

loop_
_geom_bond_atom_site_label_1
_geom_bond_atom_site_label_2
_ccdc_geom_bond_type
Cu1   Cu2   S    
C23   C45   A    
C40   H15   S    
Cu1   O8    S    
C27   C29   A    
C14   C18   A    
C30   C45   S    
C42   H20   S    
C17   O9    A    
C15   C19   A    
C48   H41   S    
C17   O11   A    
C34   C51   A    
C17   C23   S    
C40   H14   S    
C13   C18   A    
Cu1   O1    S    
C11   H42   S    
C47   H29   S    
C35   C37   A    
C3    C54   A    
C25   H46   S    
Cu1   N1    S    
C33   C36   A    
C22   N2    T    
C10   C53   A    
C16   C34   S    
C41   H18   S    
C20   C24   S    
C44   C46   S    
Cu2   O9    S    
C31   C33   A    
C20   H45   S    
C3    C19   S    
C1    C15   S    
C47   H27   S    
C49   H38   S    
C2    H13   S    
C48   H40   S    
C42   O3    S    
C39   C45   A    
C38   H5    S    
C4    C18   S    
C6    H12   S    
C21   C22   S    
C9    C52   A    
C35   C48   S    
Cu2   O6    S    
C12   O5    A    
C52   C54   A    
C28   H4    S    
C41   O2    S    
C34   C39   A    
C32   C35   A    
Cu2   N2    S    
C4    C6    A    
C5    C7    A    
C21   H44   S    
C6    C8    A    
C54   H11   S    
C43   H24   S    
C13   H43   S    
C2    C4    A    
C1    O6    A    
C41   H19   S    
C11   C19   A    
C26   C37   A    
C47   H28   S    
C49   H39   S    
C53   H10   S    
C26   H2    S    
C50   H36   S    
C48   C49   S    
C12   C14   S    
C42   H22   S    
C13   C15   A    
C43   H25   S    
C8    H34   S    
C36   O12   S    
Cu2   O5    S    
C16   O8    A    
C7    H23   S    
C46   H31   S    
C29   C51   S    
C7    C9    A    
C39   H6    S    
C46   C47   S    
C40   H16   S    
Cu1   O7    S    
C9    H7    S    
C33   C44   S    
C31   O3    S    
C10   H8    S    
C3    C5    A    
C2    C53   A    
C16   O10   A    
C50   H37   S    
C38   C51   A    
C25   C27   A    
C23   C38   A    
C26   C28   A    
C5    H1    S    
C24   N1    T    
C28   C30   A    
C37   O2    S    
C29   C31   A    
C27   H3    S    
C30   C32   A    
C40   O12   S    
Cu1   O11   S    
C11   C14   A    
C43   O4    S    
C44   H33   S    
C25   C36   A    
C41   H17   S    
C50   H35   S    
C20   C21   D    
C42   H21   S    
C8    C10   A    
C49   C50   S    
C32   O4    S    
C43   H26   S    
Cu2   O10   S    
C44   H32   S    
C12   O7    A    
C52   H9    S    
C1    O1    A    
C46   H30   S    
