data_mof_unit_7516.cif
_audit_creation_date              2012-12-10T17:36:49-0500
_audit_creation_method            fapswitch 2.2
_symmetry_space_group_name_H-M    P1
_symmetry_Int_Tables_number       1
_space_group_crystal_system       triclinic
_cell_length_a                    10.594023
_cell_length_b                    12.352746
_cell_length_c                    13.254434
_cell_angle_alpha                 116.755225
_cell_angle_beta                  76.205292
_cell_angle_gamma                 101.042244
_cell_volume                      1497.06130344

loop_
_atom_site_label
_atom_site_type_symbol
_atom_type_description
_atom_site_fract_x
_atom_site_fract_y
_atom_site_fract_z
_atom_type_partial_charge
C1    C     C_R   0.529958 0.854158 0.284556 0.768472
C2    C     C_3   0.013519 0.907653 0.523537 -0.195399
C3    C     C_3   0.958550 0.893126 0.419369 -0.262845
C4    C     C_3   0.877228 0.000001 0.499561 -0.069128
C5    C     C_R   0.460092 0.269112 0.033203 0.566895
C6    C     C_R   0.457256 0.227405 0.837291 -0.179426
C7    C     C_R   0.615587 0.820451 0.074044 0.118130
C8    C     C_R   0.629135 0.740464 0.956880 -0.190881
C9    C     C_R   0.605232 0.613292 0.916772 0.099742
C10   C     C_R   0.555040 0.562710 0.998694 0.101882
C11   C     C_R   0.556306 0.642836 0.116272 0.030087
C12   C     C_R   0.740289 0.999826 0.499828 0.821353
C13   C     C_R   0.513942 0.435928 0.971788 0.018011
C14   C     C_R   0.503600 0.391170 0.055524 0.001806
C15   C     C_R   0.536362 0.469317 0.161453 -0.162126
C16   C     C_R   0.564158 0.591670 0.188997 -0.193258
C17   C     C_R   0.477990 0.352789 0.867020 -0.294009
C18   C     C_R   0.433405 0.186204 0.924683 0.056166
C19   C     C_R   0.566810 0.772015 0.156966 -0.185633
C20   C     C_R   0.734054 0.361286 0.357407 -0.282808
C21   C     C_R   0.309586 0.752806 0.631795 0.066490
C22   C     C_R   0.261689 0.652768 0.658497 0.109315
C23   C     C_R   0.473634 0.144982 0.713905 0.844713
C24   C     C_R   0.336021 0.553230 0.610737 -0.271777
C25   C     C_R   0.457349 0.552734 0.538384 -0.025079
C26   C     C_R   0.502307 0.658246 0.517026 0.284973
C27   C     C_R   0.534851 0.450708 0.484218 -0.018905
C28   C     C_R   0.657395 0.459209 0.414651 0.172714
C29   C     C_R   0.702471 0.564922 0.400852 -0.310645
C30   C     C_R   0.625801 0.660387 0.449158 -0.198478
C31   C     C_R   0.496980 0.339531 0.494643 0.040212
C32   C     C_R   0.690607 0.254772 0.370370 0.085668
C33   C     C_R   0.259593 0.000387 0.500550 0.812194
C34   C     C_3   0.986474 0.092117 0.476959 -0.206875
C35   C     C_3   0.069919 0.985092 0.396605 -0.118073
C36   C     C_3   0.122506 0.000037 0.500811 -0.056918
C37   C     C_3   0.041486 0.107167 0.581288 -0.247722
C38   C     C_3   0.931234 0.014658 0.602106 0.659176
Cu1   Cu    Cu3+1 0.529830 0.098270 0.475420 0.933782
Cu2   Cu    Cu3+1 0.470170 0.901730 0.524580 0.934873
H1    H     H_    0.130457 0.973004 0.312061 0.148255
H2    H     H_    0.463128 0.383497 0.807555 0.176467
H3    H     H_    0.664978 0.777240 0.894162 0.162453
H4    H     H_    0.604273 0.645588 0.263468 0.162166
H5    H     H_    0.751299 0.180220 0.329877 0.112132
H6    H     H_    0.795622 0.571962 0.347005 0.154233
H7    H     H_    0.827588 0.367591 0.303947 0.138314
H8    H     H_    0.407932 0.325719 0.548768 0.113682
H9    H     H_    0.254265 0.830326 0.666339 0.142367
H10   H     H_    0.972891 0.167307 0.457579 0.158601
H11   H     H_    0.296622 0.477210 0.631765 0.131414
H12   H     H_    0.664771 0.728734 0.421011 0.185609
H13   H     H_    0.077805 0.194123 0.648019 0.137292
H14   H     H_    0.026441 0.832820 0.543685 0.148394
H15   H     H_    0.921504 0.806036 0.353247 0.140535
H16   H     H_    0.540119 0.436452 0.223782 0.208675
N1    N     N_R   0.575030 0.246270 0.438190 -0.179611
N2    N     N_R   0.425760 0.754330 0.561190 -0.224964
O1    O     O_R   0.537510 0.972500 0.318130 -0.584937
O2    O     O_R   0.487140 0.806530 0.359650 -0.577389
O3    O     O_R   0.708330 0.082950 0.479220 -0.597693
O4    O     O_R   0.657960 0.916980 0.520740 -0.587637
O5    O     O_R   0.512860 0.193470 0.640350 -0.584448
O6    O     O_R   0.462490 0.027500 0.681870 -0.575667
O7    O     O_R   0.342040 0.083020 0.479260 -0.578939
O8    O     O_R   0.291670 0.917050 0.520780 -0.597059
C39   C     C_3   0.667756 0.954566 0.109701 -0.370603
C40   C     C_3   0.767076 0.986039 0.019370 -0.833711
H17   H     H_    0.848563 0.927266 0.984134 0.253100
H18   H     H_    0.720964 0.976695 0.948754 0.271151
H19   H     H_    0.808411 0.082374 0.060136 0.250762
H20   H     H_    0.584848 0.011121 0.140271 0.245158
H21   H     H_    0.722346 0.981886 0.180636 0.208348
C41   C     C_3   0.661907 0.541057 0.790065 -0.390155
C42   C     C_3   0.769616 0.465007 0.773834 -0.773531
H22   H     H_    0.846603 0.523928 0.824082 0.240614
H23   H     H_    0.731517 0.390531 0.800911 0.268940
H24   H     H_    0.814679 0.423338 0.681710 0.235439
H25   H     H_    0.587289 0.487087 0.736423 0.192621
H26   H     H_    0.709117 0.603875 0.749645 0.199064
C43   C     C_3   0.131705 0.645756 0.735391 -0.419106
C44   C     C_3   0.052293 0.754773 0.781956 -0.859816
H27   H     H_    0.106890 0.839227 0.836428 0.244150
H28   H     H_    0.028252 0.766206 0.710408 0.256286
H29   H     H_    0.959230 0.738768 0.835520 0.252122
H30   H     H_    0.070796 0.562789 0.686343 0.212556
H31   H     H_    0.149976 0.635208 0.809527 0.207584
F1    F     F_    0.856183 0.029675 0.707532 -0.687727
C45   C     C_3   0.366524 0.061064 0.910105 -0.339152
C46   C     C_3   0.463265 0.974094 0.891367 -0.733056
H32   H     H_    0.412587 0.881060 0.870366 0.218811
H33   H     H_    0.544974 0.970585 0.820027 0.281126
H34   H     H_    0.502845 0.004312 0.971076 0.271214
H35   H     H_    0.292876 0.069555 0.988053 0.219234
H36   H     H_    0.308666 0.021236 0.839920 0.184739
F2    F     F_    0.442162 0.231067 0.117811 -0.695076

loop_
_geom_bond_atom_site_label_1
_geom_bond_atom_site_label_2
_ccdc_geom_bond_type
Cu2   O2    S    
C34   C37   S    
C32   H5    S    
C35   C36   S    
C8    H3    S    
C21   H9    S    
C43   C44   S    
C33   O7    A    
C7    C8    A    
C11   C19   A    
C29   C30   A    
C36   C37   S    
C39   H20   S    
C1    O1    A    
C15   C16   A    
Cu1   N1    S    
C33   C36   S    
Cu2   O4    S    
C34   C35   S    
C45   H35   S    
C42   H23   S    
C17   H2    S    
C3    H15   S    
C40   H17   S    
C39   H21   S    
C4    C12   S    
C9    C10   A    
C16   H4    S    
C43   H30   S    
C37   H13   S    
C24   H11   S    
C23   O5    A    
Cu2   O8    S    
C21   C22   A    
Cu1   O7    S    
C32   N1    A    
Cu1   O3    S    
C33   O8    A    
C6    C18   A    
C4    C34   S    
C34   H10   S    
Cu2   N2    S    
C41   C42   S    
C27   C31   A    
C39   C40   S    
C22   C43   S    
C24   C25   A    
C2    H14   S    
C1    O2    A    
Cu1   Cu2   S    
C8    C9    A    
C5    C18   A    
C20   C28   A    
C25   C26   A    
C1    C19   S    
C38   F1    S    
C45   H36   S    
C42   H22   S    
C37   C38   S    
C12   O4    A    
C11   C16   A    
C2    C38   S    
C46   H33   S    
C3    C35   S    
Cu1   O1    S    
C26   N2    A    
C5    C14   A    
C43   H31   S    
C23   O6    A    
C4    C38   S    
C26   C30   A    
C7    C19   A    
C31   H8    S    
C22   C24   A    
C9    C41   S    
C3    C4    S    
C5    F2    S    
C46   H34   S    
C20   C32   A    
C2    C36   S    
C6    C17   A    
C30   H12   S    
C28   C29   A    
C18   C45   S    
C10   C13   A    
C25   C27   A    
C44   H29   S    
Cu1   O5    S    
C44   H28   S    
Cu2   O6    S    
C13   C17   A    
C29   H6    S    
C41   H25   S    
C15   H16   S    
C31   N1    A    
C2    C3    S    
C21   N2    A    
C12   O3    A    
C46   H32   S    
C40   H19   S    
C6    C23   S    
C35   H1    S    
C42   H24   S    
C20   H7    S    
C10   C11   A    
C7    C39   S    
C40   H18   S    
C44   H27   S    
C27   C28   A    
C14   C15   A    
C41   H26   S    
C45   C46   S    
C13   C14   A    
