data_mof_unit_24363.cif
_audit_creation_date              2012-12-10T20:34:06-0500
_audit_creation_method            fapswitch 2.2
_symmetry_space_group_name_H-M    P1
_symmetry_Int_Tables_number       1
_space_group_crystal_system       triclinic
_cell_length_a                    9.967617
_cell_length_b                    10.867279
_cell_length_c                    13.578528
_cell_angle_alpha                 90.882614
_cell_angle_beta                  82.384394
_cell_angle_gamma                 89.005035
_cell_volume                      1457.4120278

loop_
_atom_site_label
_atom_site_type_symbol
_atom_type_description
_atom_site_fract_x
_atom_site_fract_y
_atom_site_fract_z
_atom_type_partial_charge
C1    C     C_R   0.499014 0.739330 0.502130 0.902476
C2    C     C_3   0.244371 0.936683 0.497676 -0.118835
C3    C     C_R   0.912963 0.517221 0.586234 0.200587
C4    C     C_R   0.475174 0.501113 0.685554 0.900547
C5    C     C_R   0.945773 0.467625 0.416651 -0.001334
C6    C     C_R   0.088567 0.470261 0.416890 -0.092991
C7    C     C_R   0.054761 0.515156 0.586510 0.092682
C8    C     C_3   0.046095 0.622253 0.656471 -0.261531
C9    C     C_3   0.892447 0.625677 0.655982 -0.303000
C10   C     C_R   0.501040 0.260550 0.503385 0.827030
C11   C     C_R   0.524530 0.500332 0.314451 0.882889
C12   C     C_1   0.456468 0.517957 0.788978 -0.098560
C13   C     C_1   0.541829 0.501367 0.210364 -0.157143
C14   C     C_2   0.549681 0.501941 0.018373 -0.235799
C15   C     C_2   0.449511 0.557822 0.978725 0.004909
C16   C     C_1   0.447859 0.536602 0.875915 0.002263
C17   C     C_1   0.549894 0.501881 0.122393 -0.012978
C18   C     C_R   0.345906 0.642371 0.033717 0.168255
C19   C     C_R   0.208351 0.628834 0.023644 -0.096001
C20   C     C_R   0.111617 0.713636 0.069113 -0.138809
C21   C     C_R   0.151131 0.812248 0.125032 -0.091760
C22   C     C_R   0.287695 0.827222 0.134784 -0.152095
C23   C     C_R   0.395171 0.939884 0.475704 -0.024838
C24   C     C_R   0.384865 0.742603 0.089565 -0.146832
C25   C     C_2   0.096087 0.592937 0.753510 0.480585
C26   C     C_2   0.808707 0.600651 0.754514 0.420231
C27   C     C_2   0.715611 0.115937 0.594199 0.348236
C28   C     C_R   0.185837 0.154825 0.578235 0.147417
C29   C     C_R   0.056401 0.210933 0.585415 -0.112113
C30   C     C_R   0.992360 0.258474 0.676361 -0.079674
C31   C     C_R   0.057754 0.256449 0.760716 -0.130857
C32   C     C_R   0.187844 0.206428 0.754835 -0.158550
C33   C     C_R   0.250605 0.154728 0.665423 -0.102384
C34   C     C_R   0.500718 0.870848 0.503782 -0.083006
C35   C     C_R   0.198833 0.122813 0.385449 0.101938
C36   C     C_R   0.283790 0.190166 0.314642 -0.115319
C37   C     C_R   0.246535 0.213525 0.220971 -0.187381
C38   C     C_R   0.126134 0.167524 0.195103 -0.089491
C39   C     C_R   0.040575 0.102042 0.264226 -0.153899
C40   C     C_R   0.073269 0.084898 0.359873 -0.207172
C41   C     C_2   0.193423 0.900787 0.603410 0.459872
C42   C     C_2   0.189056 0.856279 0.420871 0.382792
C43   C     C_R   0.897737 0.424833 0.324353 0.164092
C44   C     C_R   0.830444 0.312799 0.321547 -0.050569
C45   C     C_R   0.613109 0.931475 0.531095 -0.161263
C46   C     C_R   0.787688 0.270695 0.233147 -0.185877
C47   C     C_R   0.820043 0.335853 0.145622 -0.118494
C48   C     C_R   0.890851 0.445553 0.147077 -0.141738
C49   C     C_R   0.929055 0.490455 0.236197 -0.159679
C50   C     C_R   0.613458 0.059953 0.538056 -0.011991
C51   C     C_R   0.505514 0.128230 0.504183 -0.213791
C52   C     C_R   0.399548 0.064364 0.470488 0.000656
C53   C     C_3   0.246227 0.080383 0.483427 -0.085783
H1    H     H_    0.155621 0.446673 0.349721 0.159823
H2    H     H_    0.490618 0.756974 0.096055 0.133170
H3    H     H_    0.067528 0.508827 0.791860 0.061714
H4    H     H_    0.766775 0.677670 0.801091 0.076575
H5    H     H_    0.701170 0.208007 0.625595 0.100555
H6    H     H_    0.001474 0.215389 0.522249 0.131615
H7    H     H_    0.891189 0.297177 0.681549 0.169752
H8    H     H_    0.007339 0.293357 0.830724 0.140669
H9    H     H_    0.238666 0.204000 0.820487 0.135745
H10   H     H_    0.347034 0.108737 0.667038 0.150520
H11   H     H_    0.381112 0.222107 0.329561 0.140491
H12   H     H_    0.096205 0.699815 0.618639 0.217512
H13   H     H_    0.312983 0.264637 0.167493 0.141257
H14   H     H_    0.099029 0.182624 0.121589 0.135385
H15   H     H_    0.947935 0.064775 0.243984 0.133852
H16   H     H_    0.003286 0.036030 0.412510 0.186901
H17   H     H_    0.086306 0.912420 0.630253 0.110257
H18   H     H_    0.241781 0.849337 0.345882 0.080568
H19   H     H_    0.814317 0.256570 0.386836 0.133329
H20   H     H_    0.733406 0.185406 0.231877 0.121615
H21   H     H_    0.789820 0.301611 0.076760 0.131142
H22   H     H_    0.915425 0.495765 0.079121 0.128086
H23   H     H_    0.855900 0.708484 0.619557 0.167234
H24   H     H_    0.983703 0.575659 0.236632 0.144166
H25   H     H_    0.625273 0.444572 0.973064 0.185029
H26   H     H_    0.695155 0.878389 0.555667 0.201536
H27   H     H_    0.176167 0.553036 0.980205 0.125652
H28   H     H_    0.005960 0.703465 0.060576 0.127209
H29   H     H_    0.075853 0.877436 0.160002 0.136145
H30   H     H_    0.318508 0.905206 0.176387 0.136550
N1    N     N_R   0.857130 0.500860 0.500650 -0.134615
N2    N     N_R   0.142770 0.500820 0.500650 -0.100612
O1    O     O_R   0.385310 0.683210 0.499990 -0.587905
O2    O     O_2   0.790049 0.495892 0.783968 -0.627599
O3    O     O_2   0.814708 0.056238 0.611054 -0.614884
O4    O     O_2   0.269745 0.863152 0.660115 -0.548407
O5    O     O_2   0.084578 0.799647 0.441364 -0.610783
O6    O     O_R   0.614650 0.683240 0.500000 -0.634142
O7    O     O_R   0.368820 0.499950 0.640340 -0.597167
O8    O     O_R   0.598170 0.499990 0.640350 -0.598322
O9    O     O_R   0.385350 0.316760 0.500000 -0.607438
O10   O     O_R   0.614690 0.316790 0.500010 -0.658604
O11   O     O_R   0.401830 0.500010 0.359650 -0.627774
O12   O     O_R   0.631180 0.500050 0.359660 -0.595260
O13   O     O_2   0.168691 0.664817 0.790320 -0.544467
Zn1   Zn    Zn3+2 0.346870 0.499980 0.499990 0.983248
Zn2   Zn    Zn3+2 0.653130 0.500020 0.500010 0.954761

loop_
_geom_bond_atom_site_label_1
_geom_bond_atom_site_label_2
_ccdc_geom_bond_type
C11   O11   A    
C15   C18   S    
C41   O4    D    
C35   C53   S    
C39   H15   S    
C31   H8    S    
C35   C36   A    
C14   C17   S    
C25   H3    S    
C7    C8    S    
C7    N2    A    
C24   H2    S    
C29   C30   A    
C6    N2    A    
C18   C24   A    
O9    Zn1   S    
C36   C37   A    
C3    C7    A    
C30   C31   A    
C10   O9    A    
C2    C41   S    
C15   C16   S    
O11   Zn1   S    
C18   C19   A    
C26   O2    D    
C29   H6    S    
C8    C9    S    
C30   H7    S    
C9    C26   S    
C9    H23   S    
O6    Zn2   S    
C4    C12   S    
C27   C50   S    
C5    C43   S    
C8    H12   S    
C1    O6    A    
C20   H28   S    
C8    C25   S    
C48   H22   S    
C19   H27   S    
C6    H1    S    
C10   C51   S    
C44   C46   A    
C1    C34   S    
C38   C39   A    
C40   H16   S    
C51   C52   A    
N1    Zn2   S    
C12   C16   T    
C39   C40   A    
C5    N1    A    
O10   Zn2   S    
C43   C49   A    
C2    C53   S    
C42   O5    D    
C43   C44   A    
C37   C38   A    
N2    Zn1   S    
C47   C48   A    
C33   H10   S    
C23   C34   A    
C37   H13   S    
C50   C51   A    
C45   H26   S    
C34   C45   A    
C38   H14   S    
O1    Zn1   S    
O8    Zn2   S    
C48   C49   A    
C3    C9    S    
C28   C33   A    
C22   C24   A    
C2    C23   S    
O12   Zn2   S    
C52   C53   S    
C1    O1    A    
C46   C47   A    
C28   C29   A    
C31   C32   A    
C47   H21   S    
C10   O10   A    
C27   H5    S    
C28   C53   S    
C13   C17   T    
C11   O12   A    
C22   H30   S    
C19   C20   A    
C35   C40   A    
C32   H9    S    
C36   H11   S    
C32   C33   A    
C21   H29   S    
C11   C13   S    
C23   C52   A    
C5    C6    A    
C45   C50   A    
C2    C42   S    
C42   H18   S    
C49   H24   S    
C44   H19   S    
C14   H25   S    
C27   O3    D    
C26   H4    S    
C4    O8    A    
C25   O13   D    
C20   C21   A    
C3    N1    A    
C14   C15   D    
C21   C22   A    
C46   H20   S    
O7    Zn1   S    
C41   H17   S    
C4    O7    A    
