data_mof_unit_16916.cif
_audit_creation_date              2013-03-05T16:37:44-0500
_audit_creation_method            fapswitch 2.2
_symmetry_space_group_name_H-M    P1
_symmetry_Int_Tables_number       1
_space_group_crystal_system       triclinic
_cell_length_a                    18.821201
_cell_length_b                    18.514214
_cell_length_c                    19.140595
_cell_angle_alpha                 109.565473
_cell_angle_beta                  110.519272
_cell_angle_gamma                 109.080338
_cell_volume                      5085.56540056

loop_
_atom_site_label
_atom_site_type_symbol
_atom_site_description
_atom_site_fract_x
_atom_site_fract_y
_atom_site_fract_z
_atom_type_partial_charge
O1    O     O_R   0.408360 0.551710 0.460090 -0.638631
O2    O     O_R   0.408390 0.448280 0.356670 -0.571334
C1    C     C_R   0.380702 0.501107 0.380595 0.930433
O3    O     O_R   0.591600 0.643340 0.551710 -0.639752
O4    O     O_R   0.591630 0.539900 0.448290 -0.603917
C2    C     C_R   0.621262 0.621440 0.502552 0.842438
Zn1   Zn    Zn3+2 0.499980 0.569070 0.569050 1.044916
Zn2   Zn    Zn3+2 0.500020 0.430930 0.430950 1.130803
O5    O     O_R   0.591610 0.551720 0.643330 -0.567299
O6    O     O_R   0.591640 0.448290 0.539910 -0.597320
O7    O     O_R   0.408370 0.460100 0.551710 -0.616187
O8    O     O_R   0.408400 0.356660 0.448290 -0.599316
C3    C     C_R   0.621703 0.501549 0.619347 0.952699
C4    C     C_R   0.377414 0.379506 0.497074 0.937574
C5    C     C_R   0.725368 0.883952 0.766895 0.385008
C6    C     C_R   0.735705 0.864056 0.695195 -0.133821
H1    H     H_    0.730230 0.902300 0.663464 0.216406
C7    C     C_R   0.752612 0.795528 0.663822 -0.095003
C8    C     C_R   0.762526 0.748425 0.706877 -0.142179
H2    H     H_    0.776283 0.695948 0.683232 0.172730
C9    C     C_R   0.750091 0.765022 0.777309 0.489571
C10   C     C_R   0.728977 0.831605 0.806736 0.242550
C11   C     C_R   0.819750 0.831161 0.579052 0.430351
C12   C     C_R   0.810393 0.814272 0.497987 -0.128872
C13   C     C_R   0.734996 0.739355 0.419785 0.017618
C14   C     C_R   0.674789 0.678103 0.425141 -0.154089
H3    H     H_    0.616959 0.619904 0.366022 0.185545
C15   C     C_R   0.686093 0.691042 0.504701 -0.123843
C16   C     C_R   0.754535 0.770735 0.582425 -0.072347
C17   C     C_R   0.695284 0.775614 0.302708 -0.289459
H4    H     H_    0.699036 0.833374 0.347172 0.233018
C18   C     C_R   0.670297 0.758135 0.218271 0.166946
C19   C     C_R   0.659309 0.679869 0.158044 0.182199
C20   C     C_R   0.674238 0.620461 0.183316 0.343219
C21   C     C_R   0.701015 0.639659 0.269843 0.186158
C22   C     C_R   0.715484 0.720348 0.330919 -0.109522
H5    H     H_    0.623800 0.894552 0.537653 0.220978
C23   C     C_R   0.500446 0.805437 0.517400 0.302476
C24   C     C_R   0.421808 0.722215 0.458738 0.455387
C25   C     C_R   0.409826 0.665021 0.378773 -0.052388
C26   C     C_R   0.474954 0.692161 0.358625 -0.201201
H6    H     H_    0.466239 0.649491 0.297726 0.185999
C27   C     C_R   0.550995 0.774747 0.415875 -0.152613
H7    H     H_    0.600359 0.795566 0.399308 0.187103
C28   C     C_R   0.563809 0.830861 0.494453 -0.237243
C29   C     C_R   0.264573 0.574841 0.245431 -0.129495
H8    H     H_    0.275726 0.635073 0.243035 0.199906
C30   C     C_R   0.185827 0.495362 0.183248 -0.090149
C31   C     C_R   0.168811 0.416677 0.187064 -0.009553
C32   C     C_R   0.234745 0.419319 0.253532 0.459728
C33   C     C_R   0.313218 0.500323 0.315295 -0.126888
C34   C     C_R   0.327989 0.578586 0.312852 -0.092858
C35   C     C_R   0.015848 0.305374 0.143058 0.339543
C36   C     C_R   0.937213 0.224326 0.080446 -0.288756
H9    H     H_    0.885173 0.201280 0.093429 0.223640
C37   C     C_R   0.923438 0.173114 0.999477 -0.145203
H10   H     H_    0.861912 0.111837 0.951875 0.188459
C38   C     C_R   0.987547 0.201260 0.978945 0.579645
C39   C     C_R   0.067649 0.280590 0.041794 -0.314399
H11   H     H_    0.118680 0.301465 0.027486 0.216066
C40   C     C_R   0.082602 0.333080 0.123499 -0.080018
H12   H     H_    0.266287 0.645968 0.635904 0.221201
C41   C     C_R   0.312020 0.560896 0.661607 -0.142113
H13   H     H_    0.355466 0.608359 0.730279 0.214692
C42   C     C_R   0.304881 0.477930 0.627440 -0.052053
H14   H     H_    0.343700 0.462425 0.670327 0.233150
C43   C     C_R   0.250065 0.415794 0.538367 -0.052334
C44   C     C_R   0.199883 0.437748 0.482860 0.439996
C45   C     C_R   0.204386 0.520584 0.519106 0.320593
C46   C     C_R   0.262027 0.582171 0.607865 -0.233102
C47   C     C_R   0.179578 0.260004 0.504895 0.265661
C48   C     C_R   0.186720 0.184885 0.499071 -0.154008
C49   C     C_R   0.256356 0.175417 0.493636 0.076707
C50   C     C_R   0.314191 0.237889 0.487182 -0.169859
H15   H     H_    0.367132 0.230429 0.481524 0.190807
C51   C     C_R   0.309179 0.313224 0.495030 -0.119804
C52   C     C_R   0.244156 0.327318 0.507983 -0.108913
C53   C     C_R   0.334164 0.117155 0.576129 0.224716
C54   C     C_R   0.361922 0.054770 0.576136 0.057329
C55   C     C_R   0.332857 0.981410 0.496455 0.415467
C56   C     C_R   0.275663 0.970329 0.418272 0.454415
C57   C     C_R   0.245482 0.030618 0.419040 -0.446013
H16   H     H_    0.202432 0.022997 0.358839 0.231236
C58   C     C_R   0.273958 0.103668 0.496941 -0.072891
C59   C     C_R   0.785368 0.537333 0.626011 -0.222739
H17   H     H_    0.742039 0.549509 0.582974 0.114414
C60   C     C_R   0.861262 0.546067 0.623721 0.571496
C61   C     C_R   0.918171 0.530734 0.678263 0.017970
H18   H     H_    0.975784 0.534826 0.675534 0.199431
C62   C     C_R   0.901276 0.509402 0.736123 -0.167272
H19   H     H_    0.945927 0.494342 0.773625 0.195133
C63   C     C_R   0.826876 0.503998 0.741932 0.052172
C64   C     C_R   0.766472 0.514089 0.683419 0.013113
C65   C     C_R   0.688511 0.500910 0.683702 -0.101002
C66   C     C_R   0.668657 0.477751 0.739571 0.417938
C67   C     C_R   0.730204 0.471842 0.800667 0.149064
C68   C     C_R   0.810577 0.488122 0.803877 -0.299154
O9    O     O_R   0.051730 0.908360 0.460070 -0.632286
O10   O     O_R   0.948280 0.908380 0.356650 -0.624013
C69   C     C_R   0.998592 0.877284 0.380366 0.847262
O11   O     O_R   0.960110 0.908350 0.551690 -0.564441
O12   O     O_R   0.856660 0.908370 0.448270 -0.629229
C70   C     C_R   0.878983 0.877472 0.497163 0.953181
Zn3   Zn    Zn3+2 0.069080 0.999960 0.569030 1.124334
Zn4   Zn    Zn3+2 0.930920 0.999990 0.430930 1.155124
O13   O     O_R   0.051720 0.091580 0.643310 -0.608057
O14   O     O_R   0.948270 0.091600 0.539890 -0.544731
O15   O     O_R   0.143340 0.091590 0.551680 -0.596751
O16   O     O_R   0.039890 0.091610 0.448270 -0.587171
C71   C     C_R   0.001159 0.121245 0.620631 1.016400
C72   C     C_R   0.120368 0.117223 0.497604 0.913182
O17   O     O_R   0.051710 0.460040 0.908380 -0.564138
O18   O     O_R   0.948270 0.356620 0.908410 -0.622351
C73   C     C_R   0.998097 0.378988 0.879194 0.887389
O19   O     O_R   0.143330 0.551680 0.091590 -0.604400
O20   O     O_R   0.039890 0.448260 0.091620 -0.598811
C74   C     C_R   0.120170 0.497884 0.118321 0.928076
Zn5   Zn    Zn3+2 0.069060 0.569020 0.999970 1.093898
Zn6   Zn    Zn3+2 0.930920 0.430910 0.000010 1.121421
O21   O     O_R   0.051700 0.643310 0.091570 -0.617710
O22   O     O_R   0.948260 0.539890 0.091600 -0.545111
O23   O     O_R   0.960080 0.551670 0.908360 -0.630276
O24   O     O_R   0.856640 0.448250 0.908390 -0.576523
C75   C     C_R   0.000550 0.621329 0.119257 0.894171
C76   C     C_R   0.879114 0.495610 0.876124 0.862703
C77   C     C_R   0.120839 0.773645 0.554462 0.185824
C78   C     C_R   0.112188 0.791586 0.486887 0.433928
C79   C     C_R   0.032600 0.736416 0.404746 -0.180821
C80   C     C_R   0.964766 0.660304 0.390466 0.230361
C81   C     C_R   0.975657 0.642905 0.458161 -0.133268
H20   H     H_    0.924350 0.584338 0.447142 0.263870
C82   C     C_R   0.052330 0.697830 0.539310 0.336455
C83   C     C_R   0.027996 0.690179 0.265370 0.314938
C84   C     C_R   0.006279 0.690632 0.187617 -0.190131
C85   C     C_R   0.992669 0.758030 0.177480 0.062655
C86   C     C_R   0.988945 0.816881 0.241793 -0.130660
H21   H     H_    0.975659 0.867219 0.233711 0.195704
C87   C     C_R   0.002712 0.812390 0.316426 -0.130798
C88   C     C_R   0.024195 0.749628 0.329878 -0.002798
C89   C     C_R   0.040097 0.852436 0.115053 0.308368
C90   C     C_R   0.034844 0.861026 0.042482 0.307660
C91   C     C_R   0.968113 0.790385 0.958276 0.330878
C92   C     C_R   0.909802 0.711654 0.947230 -0.260471
H22   H     H_    0.857320 0.658038 0.883125 0.223639
C93   C     C_R   0.918216 0.701235 0.017981 -0.246625
H23   H     H_    0.872643 0.639242 0.007109 0.211019
C94   C     C_R   0.984218 0.770311 0.102248 0.053385
C95   C     C_R   0.264755 0.199352 0.848635 0.064607
C96   C     C_R   0.182926 0.195076 0.823326 0.229345
C97   C     C_R   0.165542 0.251554 0.793445 -0.145587
C98   C     C_R   0.235539 0.321176 0.801627 0.145488
C99   C     C_R   0.318765 0.327156 0.831129 0.234605
C100  C     C_R   0.331977 0.264197 0.850468 0.314816
C101  C     C_R   0.077600 0.312429 0.833746 0.248814
C102  C     C_R   0.997777 0.310887 0.815124 -0.196320
C103  C     C_R   0.918470 0.243903 0.736621 0.039629
C104  C     C_R   0.920143 0.179789 0.674273 0.319011
C105  C     C_R   0.000807 0.185190 0.689211 -0.178868
C106  C     C_R   0.079562 0.248734 0.771090 0.027841
C107  C     C_R   0.788027 0.202110 0.753004 0.478945
C108  C     C_R   0.706016 0.194149 0.734320 -0.190582
H24   H     H_    0.671896 0.167368 0.762740 0.229761
C109  C     C_R   0.665570 0.216856 0.676134 -0.184105
H25   H     H_    0.600383 0.206187 0.659794 0.242470
C110  C     C_R   0.705784 0.248498 0.635317 0.234487
C111  C     C_R   0.792527 0.264768 0.658598 0.146846
C112  C     C_R   0.832953 0.240032 0.717798 -0.091610
O25   O     O_3   0.710440 0.842176 0.871974 -0.739204
H26   H     H_    0.665965 0.860946 0.862463 0.368022
N1    N     N_R   0.628338 0.657674 0.069539 0.285997
O26   O     O_R   0.558451 0.659175 0.026201 -0.256598
O27   O     O_R   0.666123 0.629973 0.030147 -0.227163
O28   O     O_3   0.659486 0.543315 0.120770 -0.595999
H27   H     H_    0.686544 0.515288 0.148393 0.416589
N2    N     N_R   0.706322 0.574606 0.293472 0.231403
O29   O     O_R   0.640590 0.493551 0.246592 -0.315162
O30   O     O_R   0.769752 0.598665 0.368056 -0.385729
N3    N     N_R   0.516298 0.865248 0.599657 0.236946
O31   O     O_R   0.576589 0.948529 0.642469 -0.322030
O32   O     O_R   0.474342 0.836644 0.634778 -0.267398
O33   O     O_3   0.358201 0.700523 0.480495 -0.657347
H28   H     H_    0.306498 0.641638 0.434032 0.376554
O34   O     O_3   0.225069 0.345756 0.262159 -0.757724
H29   H     H_    0.170962 0.291462 0.211269 0.352986
O35   O     O_3   0.711971 0.954541 0.795443 -0.693358
H30   H     H_    0.726787 0.975348 0.856094 0.344035
N4    N     N_R   0.025373 0.358671 0.224080 0.257635
O36   O     O_R   0.972400 0.324020 0.247503 -0.257627
O37   O     O_R   0.080746 0.443560 0.270869 -0.276876
O38   O     O_3   0.970039 0.150190 0.897172 -0.654394
H31   H     H_    0.017142 0.184240 0.890008 0.363198
O39   O     O_3   0.146733 0.381261 0.394314 -0.656659
H32   H     H_    0.154628 0.329091 0.377082 0.352458
N5    N     N_R   0.147980 0.541389 0.466925 0.249808
O40   O     O_R   0.064368 0.484184 0.416321 -0.199495
O41   O     O_R   0.176081 0.622442 0.482403 -0.340948
N6    N     N_R   0.109741 0.270430 0.512784 0.224263
O42   O     O_R   0.057171 0.281045 0.456792 -0.288865
O43   O     O_R   0.093189 0.260718 0.570500 -0.340153
N7    N     N_R   0.372076 0.197156 0.655893 0.252090
O44   O     O_R   0.456455 0.242727 0.710175 -0.276904
O45   O     O_R   0.323004 0.226934 0.672890 -0.371065
N8    N     N_R   0.419485 0.066356 0.656898 0.257085
O46   O     O_R   0.400680 0.080052 0.717685 -0.262429
O47   O     O_R   0.492611 0.066973 0.671354 -0.334545
O48   O     O_3   0.355738 0.916929 0.491847 -0.631754
H33   H     H_    0.376739 0.919036 0.548014 0.409387
O49   O     O_3   0.248676 0.898152 0.341992 -0.674974
H34   H     H_    0.208424 0.898817 0.292655 0.376614
O50   O     O_3   0.587508 0.459794 0.731005 -0.695421
H35   H     H_    0.576852 0.433221 0.765876 0.415405
O51   O     O_3   0.880714 0.568119 0.568097 -0.690733
H36   H     H_    0.834509 0.577448 0.534260 0.349660
N9    N     N_R   0.711892 0.452175 0.860915 0.217419
O52   O     O_R   0.711853 0.511086 0.921591 -0.298628
O53   O     O_R   0.677822 0.370590 0.844093 -0.303966
O54   O     O_3   0.058739 0.672710 0.600520 -0.650420
H37   H     H_    0.121062 0.703615 0.646513 0.375829
N10   N     N_R   0.199200 0.833281 0.638521 0.227823
O55   O     O_R   0.193705 0.865532 0.706924 -0.294994
O56   O     O_R   0.276172 0.860461 0.646428 -0.234390
O57   O     O_3   0.182944 0.863971 0.504270 -0.689164
H38   H     H_    0.170571 0.867354 0.451364 0.344504
N11   N     N_R   0.886769 0.596920 0.306242 0.264397
O58   O     O_R   0.853782 0.621877 0.253169 -0.414781
O59   O     O_R   0.846503 0.513531 0.283028 -0.248040
N12   N     N_R   0.057048 0.631145 0.280165 0.193537
O60   O     O_R   0.000357 0.548936 0.248619 -0.262333
O61   O     O_R   0.139861 0.661866 0.331587 -0.315421
O62   O     O_3   0.754920 0.711731 0.812694 -0.757814
H39   H     H_    0.746174 0.730611 0.862400 0.399746
O63   O     O_3   0.098616 0.922878 0.198503 -0.828504
H40   H     H_    0.108820 0.978701 0.198130 0.350365
O64   O     O_3   0.095691 0.935530 0.051709 -0.668077
H41   H     H_    0.151684 0.964097 0.106558 0.361092
N13   N     N_R   0.960703 0.796913 0.883476 0.251526
O65   O     O_R   0.927702 0.726026 0.810439 -0.408141
O66   O     O_R   0.984554 0.872985 0.886905 -0.266425
O67   O     O_3   0.411414 0.267586 0.869721 -0.583899
H42   H     H_    0.404991 0.209462 0.860730 0.402000
N14   N     N_R   0.280006 0.138979 0.874725 0.249927
O68   O     O_R   0.348012 0.168934 0.948816 -0.264291
O69   O     O_R   0.223107 0.054397 0.826985 -0.246925
N15   N     N_R   0.121943 0.140603 0.838050 0.242500
O70   O     O_R   0.148913 0.145415 0.912917 -0.280627
O71   O     O_R   0.040405 0.084443 0.776951 -0.312845
N16   N     N_R   0.225569 0.390862 0.789019 0.262854
O72   O     O_R   0.150773 0.374936 0.732329 -0.294061
O73   O     O_R   0.289051 0.472966 0.840989 -0.266455
N17   N     N_R   0.390344 0.395747 0.838826 0.307103
O74   O     O_R   0.379079 0.410525 0.775074 -0.326246
O75   O     O_R   0.468746 0.438676 0.906645 -0.187486
O76   O     O_3   0.891617 0.908669 0.652837 -0.661366
H43   H     H_    0.899800 0.903965 0.704783 0.388612
N18   N     N_R   0.156906 0.378412 0.916572 0.184263
O77   O     O_R   0.196168 0.460220 0.935056 -0.280353
O78   O     O_R   0.199812 0.353900 0.964222 -0.423651
N19   N     N_R   0.839057 0.105218 0.598656 0.206467
O79   O     O_R   0.794846 0.114321 0.535871 -0.297093
O80   O     O_R   0.813246 0.026660 0.589652 -0.386001
O81   O     O_3   0.825376 0.172352 0.804733 -0.692825
H44   H     H_    0.785505 0.147127 0.823537 0.358289
N20   N     N_R   0.654939 0.258428 0.567096 0.243373
O82   O     O_R   0.611328 0.298418 0.579154 -0.405505
O83   O     O_R   0.630904 0.205530 0.487994 -0.249471
N21   N     N_R   0.839123 0.305944 0.623612 0.231846
O84   O     O_R   0.924152 0.343284 0.661325 -0.376725
O85   O     O_R   0.798561 0.312952 0.557728 -0.269957
N22   N     N_R   0.658253 0.821475 0.195258 0.253405
O86   O     O_R   0.632866 0.871052 0.233741 -0.311214
O87   O     O_R   0.683670 0.838300 0.144653 -0.293119

loop_
_geom_bond_atom_site_label_1
_geom_bond_atom_site_label_2
_geom_bond_distance
_ccdc_geom_bond_type
N5    O41   1.301111 A    
N8    O46   1.301178 A    
C41   C42   1.391348 A    
C25   C26   1.400798 A    
C104  C105  1.404964 A    
C23   N3    1.442607 S    
C66   C67   1.392934 A    
C26   H6    1.083596 S    
C73   C102  1.431036 S    
C55   O48   1.382262 S    
C8    H2    1.080706 S    
C43   C52   1.493771 S    
C47   C52   1.394250 A    
C11   O76   1.384849 S    
C79   C80   1.418297 A    
N18   O78   1.300149 A    
C108  H24   1.082362 S    
C62   H19   1.078700 S    
C96   C97   1.421488 A    
N20   O82   1.300319 A    
N2    O30   1.301263 A    
O28   H27   0.987880 S    
O20   C74   1.274705 A    
Zn1   O7    2.007343 S    
N8    O47   1.300598 A    
O51   H36   0.991890 S    
C14   H3    1.085973 S    
C110  C111  1.425936 A    
C50   C51   1.390136 A    
C77   C78   1.409004 A    
C91   C92   1.399634 A    
C11   C16   1.403028 A    
C25   C34   1.482920 S    
C15   C16   1.411843 A    
C109  C110  1.399140 A    
C79   C88   1.496522 S    
C7    C8    1.397993 A    
O1    C1    1.278677 A    
O16   C72   1.280085 A    
C98   N16   1.446754 S    
O76   H43   0.989599 S    
C20   C21   1.423638 A    
O7    C4    1.272372 A    
N9    O53   1.301042 A    
O24   C76   1.277698 A    
N1    O26   1.301332 A    
C44   O39   1.380999 S    
N17   O75   1.301374 A    
C5    C6    1.397282 A    
N13   O66   1.301359 A    
C29   C34   1.378726 A    
N18   O77   1.300523 A    
N21   O85   1.299752 A    
C67   N9    1.434927 S    
N15   O70   1.301568 A    
H12   C46   1.083001 S    
O12   Zn4   2.023173 S    
C92   C93   1.393104 A    
N14   O68   1.301384 A    
Zn5   O23   2.013854 S    
C107  C112  1.410744 A    
C82   O54   1.380589 S    
N6    O43   1.299028 A    
O5    C3    1.278645 A    
C45   N5    1.433421 S    
C23   C28   1.405495 A    
C78   O57   1.379892 S    
C108  C109  1.387457 A    
C107  O81   1.381535 S    
O18   Zn6   2.037713 S    
C109  H25   1.083183 S    
C59   C64   1.417640 A    
C5    C10   1.423780 A    
C2    C15   1.432641 S    
N12   O60   1.300270 A    
C37   C38   1.392968 A    
N7    O44   1.301363 A    
C42   C43   1.404221 A    
C38   O38   1.376924 S    
C98   C99   1.417538 A    
C110  N20   1.433342 S    
C12   C13   1.418317 A    
C17   C18   1.398324 A    
C32   O34   1.387422 S    
C49   C58   1.485808 S    
C71   C105  1.447449 S    
C48   C49   1.411707 A    
C10   O25   1.380435 S    
Zn6   O22   2.012501 S    
N5    O40   1.300395 A    
C48   C72   1.434816 S    
C39   H11   1.076782 S    
O11   C70   1.288424 A    
C20   O28   1.383036 S    
C9    C10   1.416673 A    
N11   O58   1.300268 A    
C26   C27   1.390917 A    
C18   N22   1.438880 S    
N6    O42   1.300384 A    
C53   N7    1.436881 S    
C80   N11   1.441724 S    
C19   N1    1.436420 S    
C89   C94   1.415012 A    
Zn3   O13   2.019469 S    
C93   C94   1.398348 A    
C63   C68   1.419776 A    
C47   N6    1.439868 S    
C36   C37   1.393364 A    
C101  N18   1.444103 S    
N16   O73   1.301676 A    
C49   C50   1.380142 A    
C23   C24   1.417973 A    
O10   Zn4   2.019344 S    
C29   C30   1.393913 A    
C39   C40   1.401450 A    
C31   C40   1.490453 S    
C97   C106  1.499645 S    
C100  O67   1.382759 S    
C30   C74   1.440016 S    
O12   C70   1.272638 A    
C104  N19   1.437235 S    
N3    O31   1.301737 A    
C85   C86   1.385465 A    
C75   C84   1.433950 S    
C51   C52   1.416134 A    
C93   H23   1.080577 S    
C68   C76   1.449019 S    
N13   O65   1.300788 A    
C50   H15   1.085936 S    
O49   H34   0.989052 S    
N10   O55   1.301201 A    
C7    C16   1.486858 S    
C1    C33   1.427773 S    
O48   H33   0.988675 S    
C6    H1    1.082913 S    
C103  C112  1.492080 S    
O19   C74   1.287490 A    
C13   C14   1.378333 A    
O33   H28   0.988293 S    
C57   H16   1.079824 S    
C56   C57   1.406483 A    
N19   O79   1.300505 A    
C33   C34   1.403608 A    
N11   O59   1.301864 A    
N14   O69   1.301262 A    
C21   C22   1.419033 A    
C4    C51   1.434931 S    
C81   C82   1.393006 A    
O34   H29   0.987842 S    
O38   H31   0.989905 S    
N10   O56   1.301369 A    
C83   C84   1.402193 A    
Zn4   O14   2.030813 S    
O17   Zn5   2.012414 S    
C62   C63   1.417120 A    
O10   C69   1.290079 A    
C41   C46   1.390606 A    
C77   C82   1.413802 A    
C17   H4    1.082489 S    
Zn2   O8    2.032521 S    
O19   Zn5   2.020974 S    
C67   C68   1.416776 A    
C19   C20   1.409181 A    
C111  N21   1.454386 S    
C65   C66   1.396227 A    
C32   C33   1.403027 A    
C60   O51   1.378744 S    
C89   C90   1.423560 A    
C43   C44   1.422256 A    
C27   C28   1.391014 A    
C101  C102  1.405241 A    
C24   O33   1.383867 S    
C69   C87   1.445673 S    
C56   O49   1.380217 S    
O17   C73   1.278876 A    
O3    C2    1.273625 A    
C30   C31   1.418721 A    
N12   O61   1.300629 A    
C61   C62   1.393304 A    
C83   C88   1.394373 A    
O11   Zn3   2.016124 S    
C85   C94   1.494284 S    
N22   O87   1.301380 A    
C27   H7    1.080110 S    
C105  C106  1.426112 A    
O14   C71   1.294878 A    
C54   C55   1.418448 A    
C38   C39   1.405262 A    
Zn2   O6    2.023341 S    
C37   H10   1.080424 S    
C35   C40   1.420853 A    
C78   C79   1.425513 A    
N19   O80   1.300986 A    
Zn3   O15   2.023426 S    
O67   H42   0.989229 S    
C77   N10   1.437000 S    
C86   C87   1.396018 A    
O18   C73   1.277706 A    
O13   C71   1.267853 A    
C36   H9    1.082397 S    
Zn1   O5    2.011945 S    
Zn4   O16   2.016207 S    
C29   H8    1.085236 S    
O25   H26   0.990105 S    
C11   C12   1.408486 A    
C8    C9    1.399045 A    
O1    Zn1   2.023341 S    
C66   O50   1.387839 S    
C14   C15   1.384501 A    
C44   C45   1.414813 A    
C6    C7    1.399714 A    
O2    Zn2   2.011946 S    
C99   N17   1.437483 S    
C83   N12   1.436389 S    
C95   N14   1.436770 S    
O8    C4    1.292052 A    
C55   C56   1.400351 A    
O6    C3    1.277602 A    
C59   H17   1.080766 S    
O4    Zn2   2.007343 S    
N3    O32   1.301190 A    
N16   O72   1.299839 A    
O15   C72   1.277843 A    
C35   C36   1.406587 A    
C84   C85   1.413015 A    
Zn6   O24   2.021055 S    
C64   C65   1.408891 A    
C57   C58   1.398168 A    
O3    Zn1   2.032521 S    
C97   C98   1.425319 A    
O20   Zn6   2.013729 S    
C17   C22   1.401252 A    
C3    C65   1.425567 S    
C54   N8    1.435719 S    
C21   N2    1.441161 S    
O39   H32   0.989242 S    
C12   C70   1.440478 S    
O23   C76   1.287639 A    
O2    C1    1.280002 A    
N17   O74   1.299616 A    
O62   H39   0.989500 S    
C42   H14   1.079153 S    
N2    O29   1.301469 A    
N20   O83   1.301239 A    
C90   C91   1.407404 A    
C18   C19   1.410506 A    
C89   O63   1.377541 S    
C90   O64   1.381187 S    
C53   C54   1.414764 A    
O35   H30   0.988506 S    
O4    C2    1.289221 A    
C111  C112  1.429544 A    
N1    O27   1.301011 A    
C96   N15   1.440228 S    
O9    Zn3   2.030732 S    
C9    O62   1.379678 S    
N9    O52   1.300426 A    
O54   H37   0.989038 S    
C91   N13   1.439012 S    
C63   C64   1.402881 A    
O21   C75   1.272491 A    
N15   O71   1.299258 A    
C81   H20   1.082695 S    
C95   C96   1.408712 A    
O50   H35   0.988437 S    
C35   N4    1.440588 S    
C45   C46   1.401824 A    
C107  C108  1.400418 A    
Zn5   O21   2.037841 S    
N4    O37   1.300146 A    
O9    C69   1.274729 A    
C87   C88   1.419354 A    
C13   C22   1.492865 S    
C41   H13   1.082430 S    
C24   C25   1.425202 A    
C53   C58   1.414631 A    
C59   C60   1.402171 A    
C101  C106  1.393776 A    
C103  C104  1.391455 A    
C61   H18   1.083016 S    
C60   C61   1.389644 A    
N7    O45   1.298566 A    
C31   C32   1.404538 A    
O64   H41   0.990251 S    
N21   O84   1.301033 A    
C102  C103  1.411786 A    
O22   C75   1.285385 A    
O81   H44   0.991758 S    
C80   C81   1.400430 A    
C86   H21   1.084808 S    
N4    O36   1.301725 A    
C99   C100  1.404119 A    
C47   C48   1.411951 A    
C95   C100  1.410982 A    
N22   O86   1.301541 A    
H5    C28   1.082150 S    
O57   H38   0.985036 S    
C5    O35   1.379830 S    
C92   H22   1.077087 S    
O63   H40   0.990573 S    
