data_mof_unit_33662.cif
_audit_creation_date              2012-10-26T19:52:27-0400
_audit_creation_method            fapswitch 2.2
_symmetry_space_group_name_H-M    P1
_symmetry_Int_Tables_number       1
_space_group_crystal_system       triclinic
_cell_length_a                    9.537207
_cell_length_b                    10.839719
_cell_length_c                    13.451996
_cell_angle_alpha                 90.003577
_cell_angle_beta                  72.708515
_cell_angle_gamma                 89.568782
_cell_volume                      1327.7829264

loop_
_atom_site_label
_atom_site_type_symbol
_atom_type_description
_atom_site_fract_x
_atom_site_fract_y
_atom_site_fract_z
_atom_type_partial_charge
C1    C     C_R   0.498433 0.737480 0.502698 0.544314
C2    C     C_R   0.374239 0.502355 0.814639 0.000058
C3    C     C_R   0.370513 0.937669 0.509946 0.007996
C4    C     C_R   0.421486 0.504390 0.700087 0.537416
C5    C     C_R   0.493364 0.870074 0.514247 -0.041267
C6    C     C_R   0.611574 0.932467 0.532715 -0.115573
C7    C     C_R   0.617014 0.060867 0.528972 0.203141
C8    C     C_R   0.499046 0.128464 0.510323 0.008124
C9    C     C_R   0.373232 0.064549 0.508320 -0.005279
C10   C     C_3   0.286875 0.071291 0.432147 -0.269460
C11   C     C_3   0.283864 0.931233 0.434166 -0.257619
C12   C     C_R   0.437314 0.503610 0.978350 0.037026
C13   C     C_R   0.948032 0.409218 0.449213 0.177671
C14   C     C_R   0.900833 0.582955 0.557534 -0.004288
C15   C     C_R   0.049604 0.582737 0.557799 -0.012767
C16   C     C_R   0.500479 0.262080 0.501222 0.559353
C17   C     C_R   0.095824 0.409645 0.448767 0.171588
C18   C     C_3   0.147803 0.384462 0.334724 -0.289145
C19   C     C_3   0.988721 0.381461 0.335729 -0.286071
C20   C     C_R   0.578583 0.501426 0.300106 0.540073
C21   C     C_R   0.778079 0.616026 0.032715 -0.133677
C22   C     C_R   0.623504 0.517592 0.187183 -0.003005
C23   C     C_R   0.468810 0.539851 0.872704 0.031079
C24   C     C_R   0.238675 0.448678 0.865938 -0.130437
C25   C     C_R   0.200718 0.424658 0.971777 -0.142712
C26   C     C_R   0.299619 0.448594 0.027120 -0.122367
C27   C     C_R   0.543655 0.525897 0.031308 0.033131
C28   C     C_R   0.673060 0.592452 0.981002 0.051370
C29   C     C_R   0.694260 0.638004 0.880896 -0.138656
C30   C     C_R   0.592541 0.614035 0.828263 -0.118666
C31   C     C_R   0.525189 0.484740 0.133186 -0.132750
C32   C     C_R   0.752675 0.579892 0.135856 -0.141814
Cu1   Cu    Cu3+1 0.359330 0.500020 0.500010 0.939969
Cu2   Cu    Cu3+1 0.640670 0.499980 0.499990 0.953073
H1    H     H_    0.830384 0.605546 0.176676 0.122640
H2    H     H_    0.959811 0.457304 0.289608 0.149458
H3    H     H_    0.789501 0.693293 0.843244 0.101959
H4    H     H_    0.952278 0.288289 0.319956 0.113902
H5    H     H_    0.877179 0.666475 0.994614 0.111421
H6    H     H_    0.434124 0.428082 0.173458 0.101645
H7    H     H_    0.163502 0.421366 0.823515 0.139305
H8    H     H_    0.263224 0.425154 0.108302 0.096472
H9    H     H_    0.095737 0.383234 0.010631 0.121775
H10   H     H_    0.610229 0.657550 0.753390 0.128657
H11   H     H_    0.704809 0.882131 0.543116 0.148650
H12   H     H_    0.176840 0.114235 0.466591 0.157205
H13   H     H_    0.792016 0.151324 0.469772 0.323690
H14   H     H_    0.351405 0.109570 0.355664 0.124907
H15   H     H_    0.172197 0.893428 0.470045 0.144165
H16   H     H_    0.346483 0.888112 0.358872 0.141618
H17   H     H_    0.825978 0.652081 0.602043 0.102532
H18   H     H_    0.086011 0.651213 0.602971 0.114731
H19   H     H_    0.206954 0.464442 0.290614 0.146830
H20   H     H_    0.204831 0.293912 0.315869 0.115878
N1    N     N_R   0.852320 0.499070 0.499340 -0.227647
N2    N     N_R   0.148230 0.499110 0.499340 -0.232581
O1    O     O_R   0.381190 0.680360 0.500000 -0.499741
O2    O     O_R   0.618780 0.680320 0.499990 -0.522725
O3    O     O_R   0.323230 0.500000 0.650990 -0.506172
O4    O     O_R   0.560820 0.499960 0.650980 -0.494472
O5    O     O_R   0.381220 0.319680 0.500010 -0.499833
O6    O     O_R   0.618810 0.319640 0.500000 -0.471396
O7    O     O_R   0.439180 0.500040 0.349020 -0.507122
O8    O     O_R   0.676770 0.500000 0.349010 -0.511567
O9    O     O_3   0.741097 0.116332 0.539108 -0.684011

loop_
_geom_bond_atom_site_label_1
_geom_bond_atom_site_label_2
_ccdc_geom_bond_type
C16   O5    A    
C20   O8    A    
C2    C4    S    
C23   C30   A    
C10   H12   S    
C6    C7    A    
C11   H15   S    
C6    H11   S    
C1    O1    A    
C7    O9    S    
C9    C10   S    
C22   C32   A    
C14   H17   S    
C21   H5    S    
C13   C17   A    
Cu1   O7    S    
C30   H10   S    
C15   N2    A    
C25   H9    S    
C20   O7    A    
Cu2   O8    S    
C17   C18   S    
Cu2   N1    S    
Cu1   O3    S    
C11   H16   S    
C1    O2    A    
C24   C25   A    
Cu2   O4    S    
C24   H7    S    
C12   C23   A    
C4    O4    A    
C29   C30   A    
C16   O6    A    
Cu1   N2    S    
C3    C9    A    
C4    O3    A    
Cu1   O5    S    
C28   C29   A    
C19   H4    S    
C21   C28   A    
C20   C22   S    
C14   N1    A    
C10   H14   S    
C17   N2    A    
C19   H2    S    
C2    C24   A    
C5    C6    A    
C21   C32   A    
C1    C5    S    
C3    C11   S    
C22   C31   A    
C13   C19   S    
C12   C27   A    
C27   C31   A    
C32   H1    S    
C7    C8    A    
Cu1   Cu2   S    
C31   H6    S    
C26   H8    S    
C2    C23   A    
C8    C16   S    
C18   C19   S    
C10   C11   S    
C29   H3    S    
C27   C28   A    
Cu2   O2    S    
C18   H20   S    
C14   C15   A    
Cu1   O1    S    
C18   H19   S    
C3    C5    A    
C25   C26   A    
C15   H18   S    
H13   O9    S    
Cu2   O6    S    
C12   C26   A    
C8    C9    A    
C13   N1    A    
