data_mof_unit_24837.cif
_audit_creation_date              2012-12-10T20:31:05-0500
_audit_creation_method            fapswitch 2.2
_symmetry_space_group_name_H-M    P1
_symmetry_Int_Tables_number       1
_space_group_crystal_system       triclinic
_cell_length_a                    15.011162
_cell_length_b                    10.673497
_cell_length_c                    9.851107
_cell_angle_alpha                 89.92695
_cell_angle_beta                  90.348898
_cell_angle_gamma                 90.058342
_cell_volume                      1578.32869998

loop_
_atom_site_label
_atom_site_type_symbol
_atom_type_description
_atom_site_fract_x
_atom_site_fract_y
_atom_site_fract_z
_atom_type_partial_charge
C1    C     C_R   0.502818 0.259886 0.500119 0.882960
C2    C     C_R   0.907589 0.525011 0.626579 0.080787
C3    C     C_R   0.952258 0.457868 0.260019 -0.233924
C4    C     C_R   0.044607 0.458766 0.259069 -0.225762
C5    C     C_R   0.091681 0.482067 0.379325 0.135268
C6    C     C_R   0.046177 0.505032 0.501888 0.056519
C7    C     C_R   0.093637 0.527854 0.622919 0.089644
C8    C     C_R   0.048848 0.549134 0.744477 -0.263716
C9    C     C_R   0.955815 0.547454 0.748672 0.102013
C10   C     C_R   0.183802 0.481302 0.379423 -0.262100
C11   C     C_R   0.230649 0.503463 0.499842 -0.076475
C12   C     C_R   0.326564 0.500841 0.499770 0.895948
C13   C     C_R   0.185823 0.527736 0.620918 -0.250016
C14   C     C_R   0.517113 0.063652 0.623517 0.141604
C15   C     C_R   0.517435 0.128546 0.500884 -0.104393
C16   C     C_R   0.535293 0.064970 0.379497 -0.227342
C17   C     C_R   0.535542 0.935385 0.379439 -0.225467
C18   C     C_R   0.517901 0.871352 0.500761 -0.103200
C19   C     C_R   0.517460 0.935852 0.623484 0.125672
C20   C     C_3   0.453825 0.928054 0.739378 -0.474172
C21   C     C_3   0.453194 0.070038 0.739089 -0.493611
C22   C     C_R   0.459425 0.405352 0.071007 0.218948
C23   C     C_R   0.503079 0.740064 0.499968 0.882462
C24   C     C_R   0.547188 0.586668 0.072355 -0.140503
C25   C     C_R   0.547191 0.586691 0.928256 -0.142367
C26   C     C_R   0.459488 0.405274 0.928310 0.218968
C27   C     C_3   0.363259 0.371357 0.921645 -0.513171
C28   C     C_3   0.363131 0.372023 0.075525 -0.520446
C29   C     C_R   0.673392 0.499943 0.500430 0.888660
C30   C     C_R   0.814863 0.521474 0.623593 -0.272964
C31   C     C_R   0.769251 0.500450 0.501637 -0.073353
C32   C     C_R   0.814811 0.480143 0.380909 -0.259619
C33   C     C_R   0.906699 0.480868 0.380846 0.135320
C34   C     C_R   0.953467 0.504176 0.503253 0.031172
H1    H     H_    0.777116 0.536019 0.715203 0.173783
H2    H     H_    0.543074 0.886489 0.283886 0.166207
H3    H     H_    0.388661 0.886025 0.710074 0.205773
H4    H     H_    0.485314 0.887349 0.831850 0.201285
H5    H     H_    0.387728 0.110453 0.708959 0.199703
H6    H     H_    0.484027 0.111480 0.831610 0.203098
H7    H     H_    0.583882 0.658029 0.127035 0.144413
H8    H     H_    0.583897 0.658059 0.874075 0.147552
H9    H     H_    0.321572 0.446772 0.876617 0.214821
H10   H     H_    0.352169 0.276787 0.877900 0.198774
H11   H     H_    0.322037 0.448761 0.117835 0.212434
H12   H     H_    0.778851 0.462781 0.286904 0.162319
H13   H     H_    0.351752 0.277993 0.120877 0.202918
H14   H     H_    0.916281 0.438283 0.166794 0.145839
H15   H     H_    0.079153 0.440686 0.164791 0.141874
H16   H     H_    0.218722 0.461980 0.286146 0.151238
H17   H     H_    0.222522 0.546563 0.713756 0.152109
H18   H     H_    0.086729 0.566239 0.836763 0.142376
H19   H     H_    0.542688 0.114174 0.283956 0.169614
N1    N     N_R   0.499390 0.499140 0.142800 -0.106610
N2    N     N_R   0.499390 0.499180 0.857150 -0.106440
O1    O     O_R   0.500010 0.316790 0.614690 -0.615479
O2    O     O_R   0.500000 0.316760 0.385350 -0.624919
O3    O     O_R   0.367850 0.499990 0.614680 -0.627393
O4    O     O_R   0.367840 0.499950 0.385340 -0.621385
O5    O     O_R   0.500000 0.683240 0.614650 -0.622190
O6    O     O_R   0.499990 0.683210 0.385310 -0.624859
O7    O     O_R   0.632160 0.500050 0.614660 -0.628653
O8    O     O_R   0.632150 0.500010 0.385320 -0.627921
Zn1   Zn    Zn3+2 0.500010 0.500020 0.653130 0.941560
Zn2   Zn    Zn3+2 0.499990 0.499980 0.346870 0.942315
C35   C     C_3   0.911412 0.566177 0.885107 -0.432792
C36   C     C_3   0.873309 0.698812 0.899425 -0.328477
C37   C     C_3   0.822954 0.712851 0.032748 -0.894842
H20   H     H_    0.766262 0.645937 0.036437 0.255477
H21   H     H_    0.868143 0.695084 0.120391 0.273247
H22   H     H_    0.796353 0.809553 0.040957 0.249321
H23   H     H_    0.928739 0.767938 0.897161 0.226651
H24   H     H_    0.827235 0.720839 0.814135 0.220451
H25   H     H_    0.859081 0.493973 0.900623 0.195061
H26   H     H_    0.960723 0.551770 0.968276 0.198404

loop_
_geom_bond_atom_site_label_1
_geom_bond_atom_site_label_2
_ccdc_geom_bond_type
C8    C9    A    
O8    Zn2   S    
C28   H13   S    
C19   C20   S    
C6    C34   A    
C26   N2    A    
C29   O8    A    
C7    C8    A    
C22   N1    A    
N1    Zn2   S    
C26   C27   S    
C30   H1    S    
C14   C21   S    
C1    O1    A    
C18   C19   A    
C30   C31   A    
C3    C33   A    
C24   N1    A    
C15   C16   A    
C35   H25   S    
C3    H14   S    
C36   H23   S    
C16   H19   S    
O7    Zn1   S    
C13   H17   S    
C12   O4    A    
C27   H10   S    
C16   C17   A    
O1    Zn1   S    
C36   H24   S    
C17   H2    S    
C8    H18   S    
C12   O3    A    
C2    C34   A    
C35   C36   S    
C22   C28   S    
C24   H7    S    
C17   C18   A    
O3    Zn1   S    
C23   O5    A    
C28   H11   S    
C36   C37   S    
C24   C25   A    
C37   H20   S    
C18   C23   S    
C1    O2    A    
C20   H4    S    
C31   C32   A    
C21   H5    S    
C23   O6    A    
N2    Zn1   S    
C33   C34   A    
C1    C15   S    
C3    C4    A    
C10   H16   S    
C27   H9    S    
C29   O7    A    
C32   H12   S    
C14   C19   A    
C25   N2    A    
O2    Zn2   S    
C4    C5    A    
C25   H8    S    
C11   C12   S    
C6    C7    A    
C2    C30   A    
C4    H15   S    
O5    Zn1   S    
C32   C33   A    
C5    C10   A    
C29   C31   S    
C9    C35   S    
C20   H3    S    
C11   C13   A    
C5    C6    A    
C21   H6    S    
C37   H22   S    
C35   H26   S    
C10   C11   A    
O6    Zn2   S    
C7    C13   A    
C20   C21   S    
C37   H21   S    
C22   C26   A    
C27   C28   S    
C14   C15   A    
C2    C9    A    
O4    Zn2   S    
