data_mof_unit_23596.cif
_audit_creation_date              2012-12-11T14:19:18-0500
_audit_creation_method            fapswitch 2.2
_symmetry_space_group_name_H-M    P1
_symmetry_Int_Tables_number       1
_space_group_crystal_system       triclinic
_cell_length_a                    19.458087
_cell_length_b                    7.227154
_cell_length_c                    17.751318
_cell_angle_alpha                 90.000536
_cell_angle_beta                  107.91547
_cell_angle_gamma                 89.99973
_cell_volume                      2375.26484853

loop_
_atom_site_label
_atom_site_type_symbol
_atom_type_description
_atom_site_fract_x
_atom_site_fract_y
_atom_site_fract_z
_atom_type_partial_charge
O1    O     O_R   0.414820 0.494320 0.416790 -0.549502
O2    O     O_R   0.585180 0.994320 0.583210 -0.549505
O3    O     O_R   0.560270 0.819500 0.430140 -0.541241
O4    O     O_R   0.439730 0.319500 0.569860 -0.541239
C1    C     C_R   0.583706 0.655369 0.417682 0.732520
C2    C     C_R   0.416293 0.155371 0.582318 0.732531
O5    O     O_R   0.413840 0.823740 0.407440 -0.512517
O6    O     O_R   0.586160 0.323740 0.592560 -0.512520
O7    O     O_R   0.437710 0.998590 0.560350 -0.536083
O8    O     O_R   0.562290 0.498590 0.439650 -0.536085
C3    C     C_R   0.388334 0.655426 0.384022 0.771050
C4    C     C_R   0.611666 0.155427 0.615978 0.771045
O9    O     O_3   0.508000 0.662290 0.550200 -0.377200
O10   O     O_3   0.492000 0.162290 0.449800 -0.377195
V1    V     V_3+5 0.498520 0.935380 0.490690 1.543135
V2    V     V_3+5 0.501480 0.435380 0.509310 1.543137
C5    C     C_2   0.779515 0.268447 0.797687 -0.144634
C6    C     C_2   0.220485 0.768446 0.202314 -0.144629
C7    C     C_2   0.817624 0.111511 0.820855 -0.261421
C8    C     C_2   0.182375 0.611512 0.179146 -0.261421
H1    H     H_    0.801314 0.396604 0.827534 0.175556
H2    H     H_    0.198688 0.896602 0.172466 0.175554
H3    H     H_    0.795885 0.979354 0.795652 0.157575
H4    H     H_    0.204112 0.479356 0.204350 0.157576
C9    C     C_2   0.705756 0.278313 0.738489 0.018747
C10   C     C_2   0.294243 0.778311 0.261513 0.018756
C11   C     C_2   0.680046 0.144533 0.682770 -0.319974
C12   C     C_2   0.319954 0.644532 0.317231 -0.319987
H5    H     H_    0.712376 0.022484 0.682743 0.144119
H6    H     H_    0.287624 0.522484 0.317257 0.144121
C13   C     C_R   0.306140 0.009775 0.609422 -0.056055
C14   C     C_R   0.693853 0.509751 0.390570 -0.056062
C15   C     C_R   0.361323 0.147161 0.625353 -0.158286
C16   C     C_R   0.638675 0.647153 0.374645 -0.158291
C17   C     C_R   0.363751 0.282763 0.682245 -0.146962
C18   C     C_R   0.636246 0.782759 0.317755 -0.146956
C19   C     C_R   0.315376 0.281033 0.726282 0.103582
C20   C     C_R   0.684617 0.781022 0.273714 0.103633
C21   C     C_R   0.260887 0.145261 0.712292 0.086648
C22   C     C_R   0.739105 0.645240 0.287700 0.086616
C23   C     C_R   0.253038 0.013604 0.650431 -0.020794
C24   C     C_R   0.746951 0.513564 0.349555 -0.020827
C25   C     C_R   0.319625 0.419750 0.782274 -0.204891
C26   C     C_R   0.680360 0.919732 0.217716 -0.204894
C27   C     C_R   0.272415 0.423330 0.827836 -0.006294
C28   C     C_R   0.727562 0.923299 0.172145 -0.006293
C29   C     C_R   0.223177 0.274208 0.822239 -0.025435
C30   C     C_R   0.776813 0.774197 0.177753 -0.025393
C31   C     C_R   0.214053 0.143051 0.760164 -0.001682
C32   C     C_R   0.785939 0.643035 0.239827 -0.001667
C33   C     C_R   0.157967 0.010739 0.745498 0.036670
C34   C     C_R   0.842023 0.510714 0.254489 0.036737
C35   C     C_R   0.147271 0.890763 0.680727 -0.165386
C36   C     C_R   0.852709 0.390699 0.319247 -0.165340
C37   C     C_R   0.191976 0.892972 0.632484 -0.040639
C38   C     C_R   0.808004 0.392894 0.367489 -0.040657
C39   C     C_R   0.184069 0.248775 0.877133 0.365374
C40   C     C_R   0.815929 0.748780 0.122864 0.365333
C41   C     C_R   0.125652 0.123240 0.860507 -0.188189
C42   C     C_R   0.874346 0.623242 0.139490 -0.188163
C43   C     C_R   0.111231 0.007462 0.793096 -0.059368
C44   C     C_R   0.888762 0.507450 0.206895 -0.059311
H7    H     H_    0.405180 0.388785 0.693888 0.165538
H8    H     H_    0.594819 0.888789 0.306116 0.165553
H9    H     H_    0.358173 0.531401 0.787904 0.166254
H10   H     H_    0.641808 0.031386 0.212080 0.166165
H11   H     H_    0.101774 0.796885 0.664691 0.170182
H12   H     H_    0.898199 0.296791 0.335272 0.170161
O11   O     O_R   0.937810 0.773680 0.060480 -0.509374
O12   O     O_R   0.062190 0.273680 0.939520 -0.509379
O13   O     O_R   0.086190 0.439740 0.092580 -0.534983
O14   O     O_R   0.913810 0.939740 0.907420 -0.534975
C45   C     C_R   0.112980 0.607912 0.114145 0.789157
C46   C     C_R   0.887020 0.107911 0.885855 0.789193
O15   O     O_R   0.939760 0.444210 0.069890 -0.539268
O16   O     O_R   0.060240 0.944210 0.930110 -0.539263
O17   O     O_R   0.914790 0.269640 0.916760 -0.546246
O18   O     O_R   0.085210 0.769640 0.083240 -0.546244
C47   C     C_R   0.919956 0.612792 0.085729 0.776931
C48   C     C_R   0.080044 0.112791 0.914271 0.776977
O19   O     O_3   0.992050 0.601530 0.949880 -0.378095
O20   O     O_3   0.007950 0.101530 0.050120 -0.378092
V3    V     V_3+5 0.001480 0.328340 0.009300 1.604670
V4    V     V_3+5 0.998520 0.828340 0.990700 1.604677
C49   C     C_2   0.046521 0.885607 0.772450 0.796038
O21   O     O_2   0.053509 0.717356 0.773273 -0.524503
O22   O     O_R   0.977805 0.964596 0.754711 -0.669887
H13   H     H_    0.938013 0.868307 0.742929 0.297347
C50   C     C_2   0.953471 0.385586 0.227540 0.796017
O23   O     O_2   0.946479 0.217337 0.226675 -0.524483
O24   O     O_R   0.022189 0.464568 0.245326 -0.669884
H14   H     H_    0.061978 0.368271 0.257089 0.297349
C51   C     C_2   0.166742 0.778302 0.560159 0.805064
O25   O     O_2   0.151750 0.851038 0.494905 -0.526833
O26   O     O_R   0.156405 0.588322 0.566906 -0.646111
H15   H     H_    0.138282 0.524762 0.513522 0.315238
C52   C     C_2   0.833228 0.278158 0.439796 0.805006
O27   O     O_2   0.848235 0.350846 0.505064 -0.526819
O28   O     O_R   0.843540 0.088165 0.433013 -0.646119
H16   H     H_    0.861670 0.024574 0.486388 0.315231
C53   C     C_2   0.662045 0.442698 0.745229 0.819465
O29   O     O_2   0.598388 0.425077 0.740798 -0.555238
O30   O     O_R   0.694816 0.616773 0.760273 -0.665799
H17   H     H_    0.659928 0.717651 0.764387 0.304123
C54   C     C_2   0.337954 0.942695 0.254775 0.819472
O31   O     O_2   0.401610 0.925069 0.259199 -0.555234
O32   O     O_R   0.305184 0.116774 0.239740 -0.665798
H18   H     H_    0.340070 0.217647 0.235623 0.304121
C55   C     C_2   0.306810 0.859654 0.552847 0.791314
O33   O     O_2   0.295917 0.895545 0.482803 -0.541943
O34   O     O_R   0.320197 0.677637 0.580008 -0.665305
H19   H     H_    0.319137 0.587366 0.535946 0.290781
C56   C     C_2   0.693179 0.359633 0.447144 0.791324
O35   O     O_2   0.704090 0.395523 0.517192 -0.541937
O36   O     O_R   0.679763 0.177621 0.419976 -0.665307
H20   H     H_    0.680827 0.087353 0.464039 0.290780
C57   C     C_2   0.270091 0.597780 0.871218 0.873868
O37   O     O_2   0.212223 0.660232 0.873024 -0.523139
O38   O     O_R   0.333755 0.696294 0.906315 -0.651206
H21   H     H_    0.324895 0.815201 0.932209 0.315187
C58   C     C_2   0.729849 0.097715 0.128725 0.873763
O39   O     O_2   0.787729 0.160336 0.127002 -0.523153
O40   O     O_R   0.666120 0.195993 0.093478 -0.651092
H22   H     H_    0.674951 0.314916 0.067569 0.315205
Cl1   Cl    Cl    0.217295 0.340081 0.974610 -0.621723
Cl2   Cl    Cl    0.782719 0.840119 0.025391 -0.621743

loop_
_geom_bond_atom_site_label_1
_geom_bond_atom_site_label_2
_ccdc_geom_bond_type
O22   H13   S    
C42   C47   S    
O4    V2    S    
C51   O25   D    
C11   H5    S    
C26   H10   S    
O26   H15   S    
O1    C3    A    
C37   C51   S    
O2    C4    A    
O16   V4    S    
C2    O7    A    
C52   O27   D    
O40   H22   S    
C29   C31   A    
C49   O21   D    
O5    C3    A    
C54   O32   S    
C53   O29   D    
C17   C19   A    
C57   O38   S    
C39   Cl1   S    
C39   C41   A    
C36   H12   S    
O17   V3    S    
C40   C42   A    
O36   H20   S    
C44   C50   S    
C42   C44   A    
C27   C29   A    
C23   C37   A    
C24   C38   A    
C6    C10   S    
C8    H4    S    
C34   C36   A    
C31   C33   A    
C46   O17   A    
C33   C43   A    
C32   C34   A    
O32   H18   S    
C13   C15   A    
C28   C58   S    
C14   C56   S    
C50   O24   S    
C16   C18   A    
O6    C4    A    
C18   H8    S    
C30   C32   A    
O6    V2    S    
C38   C52   S    
C9    C53   S    
C10   C54   S    
C52   O28   S    
C26   C28   A    
O13   V3    S    
C35   C37   A    
C28   C30   A    
C41   C43   A    
C49   O22   S    
O12   C48   A    
C21   C23   A    
O24   H14   S    
O13   C45   A    
C5    C7    D    
C4    C11   S    
C45   O18   A    
C5    H1    S    
C33   C35   A    
C14   C16   A    
C19   C25   A    
C7    H3    S    
C20   C26   A    
O2    V1    S    
C29   C39   A    
O28   H16   S    
C25   H9    S    
C1    C16   S    
C13   C55   S    
O1    V2    S    
O12   V3    S    
C25   C27   A    
C58   O39   D    
O14   V4    S    
C43   C49   S    
O14   C46   A    
C21   C31   A    
C40   Cl2   S    
O11   C47   A    
O4    C2    A    
C18   C20   A    
O19   V4    S    
O3    V1    S    
C56   O35   D    
C27   C57   S    
C13   C23   A    
O34   H19   S    
C6    H2    S    
C7    C46   S    
O16   C48   A    
C22   C24   A    
O3    C1    A    
C41   C48   S    
C17   H7    S    
O38   H21   S    
C36   C38   A    
C30   C40   A    
C9    C11   D    
C54   O31   D    
C10   C12   D    
C2    C15   S    
C5    C9    S    
C55   O34   S    
O7    V1    S    
C12   H6    S    
C19   C21   A    
O11   V4    S    
C34   C44   A    
C57   O37   D    
C20   C22   A    
O15   V3    S    
C51   O26   S    
C3    C12   S    
C22   C32   A    
O5    V1    S    
C15   C17   A    
C8    C45   S    
C6    C8    D    
C35   H11   S    
C58   O40   S    
O18   V4    S    
C1    O8    A    
C53   O30   S    
O20   V3    S    
O9    V2    S    
O30   H17   S    
C14   C24   A    
O10   V1    S    
O8    V2    S    
C50   O23   D    
C55   O33   D    
O15   C47   A    
C56   O36   S    
