data_mof_unit_14457.cif
_audit_creation_date              2012-12-11T14:38:15-0500
_audit_creation_method            fapswitch 2.2
_symmetry_space_group_name_H-M    P1
_symmetry_Int_Tables_number       1
_space_group_crystal_system       triclinic
_cell_length_a                    19.613978
_cell_length_b                    11.152864
_cell_length_c                    19.696356
_cell_angle_alpha                 90.043126
_cell_angle_beta                  96.447994
_cell_angle_gamma                 89.910179
_cell_volume                      4281.35639723

loop_
_atom_site_label
_atom_site_type_symbol
_atom_type_description
_atom_site_fract_x
_atom_site_fract_y
_atom_site_fract_z
_atom_type_partial_charge
C1    C     C_R   0.724566 0.955782 0.361124 0.550775
C2    C     C_R   0.275880 0.956583 0.638656 0.548646
C3    C     C_R   0.224566 0.455781 0.361124 0.550775
C4    C     C_R   0.775880 0.456585 0.638655 0.548638
C5    C     C_3   0.690008 0.484252 0.453588 -0.245206
C6    C     C_3   0.309319 0.485904 0.546730 -0.253794
C7    C     C_3   0.190007 0.984249 0.453589 -0.245206
C8    C     C_3   0.809314 0.985912 0.546731 -0.253807
C9    C     C_3   0.824157 0.481387 0.530802 -0.239874
C10   C     C_3   0.176145 0.479407 0.468743 -0.242297
C11   C     C_3   0.324156 0.981386 0.530803 -0.239874
C12   C     C_3   0.676143 0.979404 0.468743 -0.242302
C13   C     C_3   0.760656 0.297881 0.552005 -0.262534
C14   C     C_3   0.241971 0.297196 0.448257 -0.263611
C15   C     C_3   0.260657 0.797878 0.552005 -0.262537
C16   C     C_3   0.741976 0.797196 0.448258 -0.263611
C17   C     C_3   0.762033 0.431823 0.565461 0.055701
C18   C     C_3   0.238856 0.430905 0.434464 0.050146
C19   C     C_3   0.262033 0.931820 0.565462 0.055695
C20   C     C_3   0.738856 0.930906 0.434465 0.050143
C21   C     C_3   0.745391 0.395368 0.434051 0.078399
C22   C     C_3   0.254583 0.395718 0.566107 0.058726
C23   C     C_3   0.245392 0.895368 0.434051 0.078397
C24   C     C_3   0.754582 0.895717 0.566108 0.058700
C25   C     C_3   0.818852 0.445510 0.455214 -0.089896
C26   C     C_3   0.180922 0.443657 0.544319 -0.092684
C27   C     C_3   0.318852 0.945512 0.455215 -0.089896
C28   C     C_3   0.680918 0.943640 0.544316 -0.092688
C29   C     C_3   0.734855 0.280182 0.476143 -0.271260
C30   C     C_3   0.266365 0.280479 0.524532 -0.266151
C31   C     C_3   0.234857 0.780180 0.476143 -0.271261
C32   C     C_3   0.766371 0.780480 0.524533 -0.266142
C33   C     C_3   0.487106 0.302804 0.962800 -0.262555
C34   C     C_3   0.513133 0.302776 0.037185 -0.263104
C35   C     C_3   0.987107 0.802804 0.962800 -0.262555
C36   C     C_3   0.013134 0.802776 0.037185 -0.263104
C37   C     C_3   0.429874 0.099074 0.970452 -0.080564
C38   C     C_3   0.570144 0.098541 0.029508 -0.081100
C39   C     C_3   0.929874 0.599075 0.970452 -0.080564
C40   C     C_3   0.070144 0.598540 0.029507 -0.081100
C41   C     C_3   0.557826 0.119346 0.951330 -0.239507
C42   C     C_3   0.442207 0.119976 0.048626 -0.239624
C43   C     C_3   0.057826 0.619345 0.951330 -0.239507
C44   C     C_3   0.942207 0.619977 0.048626 -0.239624
C45   C     C_R   0.560044 0.183316 0.347491 0.539437
C46   C     C_R   0.464094 0.180382 0.661714 0.552173
C47   C     C_R   0.060042 0.683316 0.347491 0.539437
C48   C     C_R   0.964094 0.680382 0.661714 0.552171
C49   C     C_3   0.485228 0.172204 0.934081 0.057118
C50   C     C_3   0.514859 0.172222 0.065887 0.055268
C51   C     C_3   0.985228 0.672204 0.934081 0.057118
C52   C     C_3   0.014859 0.672222 0.065887 0.055268
C53   C     C_1   0.760294 0.425074 0.903441 -0.013237
C54   C     C_1   0.239684 0.425006 0.096550 -0.012213
C55   C     C_1   0.260294 0.925074 0.903442 -0.013236
C56   C     C_1   0.739685 0.925006 0.096550 -0.012212
C57   C     C_1   0.745742 0.402502 0.033318 -0.056099
C58   C     C_1   0.254222 0.402512 0.966673 -0.056340
C59   C     C_1   0.245743 0.902502 0.033318 -0.056099
C60   C     C_1   0.754222 0.902512 0.966673 -0.056339
C61   C     C_1   0.751290 0.412598 0.962620 -0.062132
C62   C     C_1   0.248681 0.412550 0.037366 -0.062190
C63   C     C_1   0.251290 0.912598 0.962620 -0.062132
C64   C     C_1   0.748681 0.912549 0.037366 -0.062190
C65   C     C_1   0.742069 0.388716 0.093542 -0.006439
C66   C     C_1   0.257898 0.388750 0.906445 -0.006806
C67   C     C_1   0.242069 0.888716 0.093542 -0.006439
C68   C     C_1   0.757898 0.888750 0.906445 -0.006806
C69   C     C_R   0.737878 0.359086 0.362121 0.618451
C70   C     C_R   0.261869 0.359998 0.638165 0.611836
C71   C     C_R   0.237878 0.859086 0.362121 0.618453
C72   C     C_R   0.761868 0.860001 0.638166 0.611795
C73   C     C_R   0.722492 0.953820 0.163572 0.546824
C74   C     C_R   0.277499 0.953820 0.836431 0.541931
C75   C     C_R   0.222492 0.453820 0.163572 0.546824
C76   C     C_R   0.777499 0.453820 0.836431 0.541925
C77   C     C_R   0.535039 0.179295 0.139819 0.554684
C78   C     C_R   0.465014 0.179269 0.860158 0.548994
C79   C     C_R   0.035040 0.679296 0.139819 0.554684
C80   C     C_R   0.965015 0.679269 0.860158 0.548996
C81   C     C_R   0.735547 0.356673 0.163073 0.567389
C82   C     C_R   0.264437 0.356667 0.836912 0.565214
C83   C     C_R   0.235547 0.856673 0.163073 0.567390
C84   C     C_R   0.764437 0.856667 0.836912 0.565203
C85   C     C_1   0.489983 0.173332 0.596735 0.003366
C86   C     C_1   0.538200 0.176538 0.414354 -0.029808
C87   C     C_1   0.989980 0.673332 0.596734 0.003340
C88   C     C_1   0.038197 0.676538 0.414353 -0.029808
C89   C     C_1   0.522889 0.173168 0.471821 -0.091045
C90   C     C_1   0.506016 0.171731 0.539514 -0.074817
C91   C     C_1   0.022884 0.673168 0.471820 -0.091053
C92   C     C_1   0.006011 0.671731 0.539513 -0.074840
C93   C     C_3   0.691153 0.484025 0.532185 -0.245454
C94   C     C_3   0.309137 0.484496 0.468154 -0.241137
C95   C     C_3   0.191152 0.984020 0.532186 -0.245455
C96   C     C_3   0.809135 0.984502 0.468155 -0.241130
Cr1   Cr    Cr6+3 0.765780 0.160710 0.267420 1.033547
Cr2   Cr    Cr6+3 0.234220 0.160710 0.732580 1.042431
Cr3   Cr    Cr6+3 0.265780 0.660710 0.267420 1.033548
Cr4   Cr    Cr6+3 0.734220 0.660710 0.732580 1.042444
Cr5   Cr    Cr6+3 0.612200 0.009560 0.248850 1.072122
Cr6   Cr    Cr6+3 0.387800 0.009560 0.751150 1.074250
Cr7   Cr    Cr6+3 0.112200 0.509560 0.248850 1.072120
Cr8   Cr    Cr6+3 0.887800 0.509560 0.751150 1.074231
Cr9   Cr    Cr6+3 0.616030 0.323720 0.248510 1.034954
Cr10  Cr    Cr6+3 0.383970 0.323720 0.751490 1.029878
Cr11  Cr    Cr6+3 0.116030 0.823720 0.248510 1.034954
Cr12  Cr    Cr6+3 0.883970 0.823720 0.751490 1.029867
H1    H     H_    0.674518 0.570520 0.551465 0.132275
H2    H     H_    0.325903 0.570299 0.448367 0.133404
H3    H     H_    0.174515 0.070513 0.551467 0.132275
H4    H     H_    0.825901 0.070304 0.448368 0.133404
H5    H     H_    0.759954 0.204067 0.456111 0.133753
H6    H     H_    0.240963 0.204237 0.544100 0.134437
H7    H     H_    0.259958 0.704066 0.456111 0.133757
H8    H     H_    0.740972 0.704235 0.544101 0.134435
H9    H     H_    0.873690 0.445206 0.555884 0.131931
H10   H     H_    0.126889 0.442775 0.443447 0.135136
H11   H     H_    0.373689 0.945207 0.555884 0.131937
H12   H     H_    0.626888 0.942777 0.443443 0.135144
H13   H     H_    0.856252 0.371309 0.450830 0.119850
H14   H     H_    0.144009 0.368785 0.548516 0.142973
H15   H     H_    0.356253 0.871314 0.450830 0.119856
H16   H     H_    0.644011 0.868755 0.548505 0.143003
H17   H     H_    0.434583 0.342697 0.955909 0.149946
H18   H     H_    0.565700 0.342217 0.044092 0.149434
H19   H     H_    0.934585 0.842698 0.955909 0.149946
H20   H     H_    0.065701 0.842216 0.044092 0.149434
H21   H     H_    0.521429 0.361665 0.936006 0.157813
H22   H     H_    0.478871 0.362022 0.063976 0.158395
H23   H     H_    0.021430 0.861664 0.936006 0.157813
H24   H     H_    0.978873 0.862023 0.063976 0.158395
H25   H     H_    0.378042 0.135098 0.952197 0.074667
H26   H     H_    0.622004 0.134198 0.047765 0.074103
H27   H     H_    0.878043 0.635099 0.952197 0.074669
H28   H     H_    0.122005 0.634197 0.047765 0.074103
H29   H     H_    0.403509 0.184978 0.063871 0.102054
H30   H     H_    0.596595 0.183960 0.936087 0.100756
H31   H     H_    0.903509 0.684980 0.063871 0.102053
H32   H     H_    0.096595 0.683958 0.936087 0.100757
H33   H     H_    0.565313 0.036922 0.921293 0.167087
H34   H     H_    0.434627 0.037700 0.078654 0.166727
H35   H     H_    0.065313 0.536921 0.921294 0.167086
H36   H     H_    0.934627 0.537701 0.078654 0.166726
H37   H     H_    0.649554 0.423637 0.545778 0.126301
H38   H     H_    0.351345 0.424340 0.455491 0.126818
H39   H     H_    0.149553 0.923629 0.545778 0.126301
H40   H     H_    0.851345 0.924348 0.455496 0.126820
H41   H     H_    0.637669 0.458670 0.430470 0.137596
H42   H     H_    0.361737 0.462235 0.570558 0.144659
H43   H     H_    0.137668 0.958666 0.430471 0.137597
H44   H     H_    0.861732 0.962255 0.570562 0.144667
H45   H     H_    0.701036 0.572979 0.434161 0.148041
H46   H     H_    0.296935 0.574564 0.565561 0.125119
H47   H     H_    0.201035 0.072978 0.434163 0.148036
H48   H     H_    0.796921 0.074569 0.565561 0.125095
H49   H     H_    0.328817 0.077678 0.538185 0.092669
H50   H     H_    0.671758 0.075800 0.461083 0.082752
H51   H     H_    0.828819 0.577679 0.538183 0.092672
H52   H     H_    0.171757 0.575801 0.461077 0.082749
H53   H     H_    0.813547 0.261667 0.563221 0.132245
H54   H     H_    0.189779 0.259400 0.435572 0.132481
H55   H     H_    0.313548 0.761665 0.563222 0.132246
H56   H     H_    0.689784 0.759398 0.435573 0.132480
H57   H     H_    0.727246 0.252701 0.585613 0.124107
H58   H     H_    0.277901 0.253708 0.416501 0.169329
H59   H     H_    0.227246 0.752697 0.585612 0.124158
H60   H     H_    0.777906 0.753712 0.416502 0.169335
H61   H     H_    0.679019 0.260999 0.471635 0.100968
H62   H     H_    0.322429 0.262201 0.530262 0.111705
H63   H     H_    0.179021 0.760996 0.471634 0.100965
H64   H     H_    0.822435 0.762209 0.530264 0.111716
O1    O     O_R   0.783100 0.287550 0.345460 -0.522805
O2    O     O_R   0.216900 0.287550 0.654540 -0.505242
O3    O     O_R   0.283100 0.787550 0.345460 -0.522802
O4    O     O_R   0.716900 0.787550 0.654540 -0.505210
O5    O     O_R   0.554710 0.081900 0.170950 -0.450488
O6    O     O_R   0.445290 0.081900 0.829050 -0.453159
O7    O     O_R   0.054710 0.581900 0.170950 -0.450489
O8    O     O_R   0.945290 0.581900 0.829050 -0.453161
O9    O     O_R   0.545650 0.284910 0.163740 -0.529885
O10   O     O_R   0.454350 0.284910 0.836260 -0.533288
O11   O     O_R   0.045650 0.784910 0.163740 -0.529885
O12   O     O_R   0.954350 0.784910 0.836260 -0.533287
O13   O     O_R   0.677950 0.374280 0.185410 -0.492509
O14   O     O_R   0.322050 0.374280 0.814590 -0.495682
O15   O     O_R   0.177950 0.874280 0.185410 -0.492509
O16   O     O_R   0.822050 0.874280 0.814590 -0.495689
O17   O     O_3   0.664670 0.164660 0.254930 -0.301998
O18   O     O_3   0.335330 0.164660 0.745070 -0.287109
O19   O     O_3   0.164670 0.664660 0.254930 -0.301997
O20   O     O_3   0.835330 0.664660 0.745070 -0.287102
O21   O     O_R   0.760020 0.037400 0.337700 -0.519717
O22   O     O_R   0.239980 0.037400 0.662300 -0.520014
O23   O     O_R   0.260020 0.537400 0.337700 -0.519718
O24   O     O_R   0.739980 0.537400 0.662300 -0.520014
O25   O     O_R   0.666600 0.921990 0.332020 -0.522121
O26   O     O_R   0.333400 0.921990 0.667980 -0.521385
O27   O     O_R   0.166600 0.421990 0.332020 -0.522120
O28   O     O_R   0.833400 0.421990 0.667980 -0.521392
O29   O     O_R   0.557260 0.082670 0.312540 -0.487960
O30   O     O_R   0.442740 0.082670 0.687460 -0.492903
O31   O     O_R   0.057260 0.582670 0.312540 -0.487962
O32   O     O_R   0.942740 0.582670 0.687460 -0.492918
O33   O     O_R   0.548410 0.285740 0.316480 -0.502544
O34   O     O_R   0.451590 0.285740 0.683520 -0.516841
O35   O     O_R   0.048410 0.785740 0.316480 -0.502545
O36   O     O_R   0.951590 0.785740 0.683520 -0.516830
O37   O     O_R   0.680500 0.375040 0.327000 -0.511331
O38   O     O_R   0.319500 0.375040 0.673000 -0.509888
O39   O     O_R   0.180500 0.875040 0.327000 -0.511330
O40   O     O_R   0.819500 0.875040 0.673000 -0.509903
O41   O     O_R   0.780350 0.286720 0.192720 -0.493978
O42   O     O_R   0.219650 0.286720 0.807280 -0.490194
O43   O     O_R   0.280350 0.786720 0.192720 -0.493977
O44   O     O_R   0.719650 0.786720 0.807280 -0.490187
O45   O     O_R   0.757470 0.036630 0.196110 -0.497929
O46   O     O_R   0.242530 0.036630 0.803890 -0.500284
O47   O     O_R   0.257470 0.536630 0.196110 -0.497929
O48   O     O_R   0.742530 0.536630 0.803890 -0.500283
O49   O     O_R   0.663840 0.921160 0.179280 -0.474498
O50   O     O_R   0.336160 0.921160 0.820720 -0.476585
O51   O     O_R   0.163840 0.421160 0.179280 -0.474500
O52   O     O_R   0.836160 0.421160 0.820720 -0.476588
C97   C     C_2   0.573407 0.963948 0.042618 0.286215
H65   H     H_    0.609275 0.910513 0.017455 0.116712
O53   O     O_2   0.536126 0.912626 0.078768 -0.477141
C98   C     C_2   0.426501 0.964467 0.957344 0.286676
H66   H     H_    0.390618 0.911396 0.982539 0.116450
O54   O     O_2   0.463723 0.912733 0.921180 -0.476865
C99   C     C_2   0.073407 0.463947 0.042618 0.286215
H67   H     H_    0.109274 0.410512 0.017455 0.116712
O55   O     O_2   0.036126 0.412626 0.078768 -0.477142
C100  C     C_2   0.926500 0.464468 0.957344 0.286677
H68   H     H_    0.890617 0.411397 0.982540 0.116451
O56   O     O_2   0.963722 0.412733 0.921181 -0.476867
C101  C     C_2   0.341892 0.046601 0.411835 0.179961
H69   H     H_    0.387169 0.097627 0.430338 0.119055
O57   O     O_2   0.312015 0.070584 0.355717 -0.506822
C102  C     C_2   0.658213 0.044219 0.588218 0.187334
H70   H     H_    0.641562 0.128899 0.565514 0.107832
O58   O     O_2   0.654846 0.029784 0.649177 -0.489335
C103  C     C_2   0.841895 0.546595 0.411833 0.179961
H71   H     H_    0.887175 0.597610 0.430331 0.119067
O59   O     O_2   0.812014 0.570586 0.355719 -0.506831
C104  C     C_2   0.158231 0.544255 0.588216 0.187312
H72   H     H_    0.141544 0.628909 0.565499 0.107837
O60   O     O_2   0.154914 0.529865 0.649190 -0.489346

loop_
_geom_bond_atom_site_label_1
_geom_bond_atom_site_label_2
_ccdc_geom_bond_type
C94   H38   S    
C39   C51   S    
C58   C62   S    
C10   H52   S    
C9    H9    S    
C25   C103  S    
C14   C18   S    
C43   H35   S    
C35   C36   S    
C8    C96   S    
Cr12  O36   S    
C83   O15   A    
C98   O54   D    
Cr7   O19   S    
C9    C25   S    
C36   H20   S    
C16   H56   S    
C67   C83   S    
C40   H28   S    
C11   C19   S    
Cr3   O43   S    
C69   O1    A    
C48   O36   A    
C82   O14   A    
C11   H49   S    
Cr8   O32   S    
C13   C29   S    
C16   C20   S    
C8    H44   S    
C10   C18   S    
C75   O47   A    
C72   O40   A    
C97   O53   D    
Cr5   O17   S    
C74   O46   A    
Cr6   O26   S    
Cr2   O2    S    
Cr5   O25   S    
Cr7   O7    S    
Cr11  O39   S    
C9    H51   S    
Cr9   O13   S    
C103  H71   S    
C6    C22   S    
Cr3   O23   S    
Cr9   O37   S    
C49   C78   S    
Cr2   O22   S    
C3    C18   S    
C46   O34   A    
C48   O32   A    
C95   H3    S    
Cr1   O21   S    
C37   C42   S    
C12   H50   S    
C51   C80   S    
C30   H62   S    
C21   C25   S    
C59   C67   T    
C43   C51   S    
C82   O42   A    
C55   C74   S    
C13   H57   S    
C41   C49   S    
C37   C98   S    
C81   O41   A    
C57   C61   S    
C79   O11   A    
C78   O6    A    
C6    C94   S    
Cr8   O20   S    
C55   C63   T    
Cr11  O11   S    
Cr4   O4    S    
C3    O27   A    
C56   C64   T    
C93   H37   S    
C73   O49   A    
C23   C27   S    
C14   H58   S    
C52   C79   S    
Cr11  O35   S    
C36   C52   S    
Cr2   O18   S    
C46   C85   S    
Cr7   O51   S    
C5    C93   S    
C44   C52   S    
Cr1   O17   S    
C32   H64   S    
C20   C96   S    
C75   O51   A    
C12   H12   S    
C101  H69   S    
C42   H29   S    
C102  O58   D    
Cr8   O28   S    
Cr6   O6    S    
C15   H59   S    
Cr4   O20   S    
C100  O56   D    
C14   C30   S    
C31   H7    S    
C98   H66   S    
Cr12  O40   S    
C58   C66   T    
C97   H65   S    
Cr7   O31   S    
Cr4   O24   S    
C24   C72   S    
C96   H40   S    
C104  O60   D    
C34   C50   S    
Cr1   O1    S    
Cr12  O12   S    
C73   O45   A    
C68   C84   S    
Cr9   O17   S    
Cr6   O18   S    
C95   H39   S    
Cr10  O14   S    
C38   C41   S    
C11   H11   S    
C26   C104  S    
C77   O9    A    
C81   O13   A    
C27   H15   S    
C39   H27   S    
C54   C62   T    
C103  O59   D    
C40   C52   S    
C21   C29   S    
C15   C31   S    
C94   H2    S    
C3    O23   A    
C21   C69   S    
C78   O10   A    
C5    C21   S    
C23   C31   S    
C14   H54   S    
C15   C19   S    
C24   C32   S    
C42   H34   S    
C10   H10   S    
C23   C71   S    
C66   C82   S    
C37   C49   S    
C65   C81   S    
C88   C91   T    
C11   C27   S    
C34   H18   S    
C12   C20   S    
C22   C70   S    
C33   H17   S    
C33   C34   S    
C48   C87   S    
C47   O31   A    
C43   H32   S    
C99   O55   D    
Cr7   O27   S    
C32   H8    S    
C40   C99   S    
C35   H19   S    
C70   O2    A    
Cr4   O48   S    
C41   H30   S    
C6    H46   S    
Cr12  O20   S    
C42   C50   S    
C38   C97   S    
C7    H43   S    
C4    C17   S    
C9    C17   S    
C33   H21   S    
Cr3   O47   S    
C44   H31   S    
C71   O39   A    
C25   H13   S    
C101  O57   D    
C35   C51   S    
C18   C94   S    
Cr1   O45   S    
C84   O16   A    
C53   C76   S    
C17   C93   S    
C100  H68   S    
Cr10  O18   S    
C53   C61   T    
C13   H53   S    
C50   C77   S    
C35   H23   S    
C91   C92   S    
C19   C95   S    
Cr6   O50   S    
C30   H6    S    
Cr5   O49   S    
C4    O24   A    
C29   H5    S    
C104  H72   S    
Cr4   O44   S    
C1    C20   S    
C45   O33   A    
C56   C73   S    
C22   C30   S    
C36   H24   S    
C2    C19   S    
C2    O26   A    
Cr12  O16   S    
C1    O25   A    
C24   C28   S    
C80   O12   A    
C57   C65   T    
C86   C89   T    
Cr10  O34   S    
C39   C100  S    
C83   O43   A    
C85   C90   T    
C28   H16   S    
Cr9   O33   S    
C39   C44   S    
C38   C50   S    
C47   O35   A    
C16   C32   S    
C7    C95   S    
C41   H33   S    
C74   O50   A    
C59   C63   S    
C96   H4    S    
C27   C101  S    
C13   C17   S    
C60   C64   S    
C60   C68   T    
Cr9   O9    S    
C40   C43   S    
Cr2   O46   S    
C45   C86   S    
Cr6   O30   S    
C80   O8    A    
Cr5   O29   S    
C47   C88   S    
Cr3   O19   S    
C10   C26   S    
Cr8   O8    S    
C7    C23   S    
C31   H63   S    
C16   H60   S    
C5    H45   S    
C5    H41   S    
C102  H70   S    
C8    C24   S    
C71   O3    A    
C29   H61   S    
C69   O37   A    
C37   H25   S    
C38   H26   S    
Cr2   O42   S    
C8    H48   S    
C72   O4    A    
C77   O5    A    
Cr3   O3    S    
Cr5   O5    S    
C2    O22   A    
C54   C75   S    
C6    H42   S    
C84   O44   A    
C76   O52   A    
C4    O28   A    
C79   O7    A    
C7    H47   S    
C34   H22   S    
C45   O29   A    
C22   C26   S    
Cr11  O19   S    
C99   H67   S    
C1    O21   A    
C76   O48   A    
Cr11  O15   S    
Cr1   O41   S    
C44   H36   S    
C26   H14   S    
C70   O38   A    
C12   C28   S    
C89   C90   S    
C87   C92   T    
C33   C49   S    
Cr8   O52   S    
C15   H55   S    
C28   C102  S    
Cr10  O10   S    
C93   H1    S    
C46   O30   A    
Cr10  O38   S    
