data_mof_unit_50685.cif
_audit_creation_date              2012-12-11T15:21:11-0500
_audit_creation_method            fapswitch 2.2
_symmetry_space_group_name_H-M    P1
_symmetry_Int_Tables_number       1
_space_group_crystal_system       triclinic
_cell_length_a                    18.365345
_cell_length_b                    18.353805
_cell_length_c                    51.335249
_cell_angle_alpha                 90.001105
_cell_angle_beta                  89.993079
_cell_angle_gamma                 120.149774
_cell_volume                      14962.8415864

loop_
_atom_site_label
_atom_site_type_symbol
_atom_type_description
_atom_site_fract_x
_atom_site_fract_y
_atom_site_fract_z
_atom_type_partial_charge
C1    C     C_R   0.409699 0.583824 0.287449 0.529296
C2    C     C_R   0.491697 0.409542 0.853019 -0.058500
C3    C     C_R   0.369822 0.897948 0.093120 0.470268
C4    C     C_R   0.499387 0.035651 0.399110 0.427088
C5    C     C_R   0.494806 0.031406 0.100233 0.422807
C6    C     C_R   0.500625 0.920825 0.354104 -0.046219
C7    C     C_R   0.499897 0.919375 0.145658 -0.043798
C8    C     C_R   0.496202 0.888677 0.329034 -0.125713
C9    C     C_R   0.496171 0.888692 0.170912 -0.124264
C10   C     C_R   0.365718 0.888082 0.321444 -0.134939
C11   C     C_R   0.363624 0.884349 0.177986 -0.134968
C12   C     C_R   0.370455 0.920492 0.346402 -0.053497
C13   C     C_R   0.558317 0.484248 0.635893 0.239067
C14   C     C_R   0.367580 0.915133 0.152837 -0.054413
C15   C     C_R   0.436827 0.935273 0.363150 0.232731
C16   C     C_R   0.434687 0.931077 0.136274 0.232281
C17   C     C_R   0.436968 0.001419 0.442507 -0.057397
C18   C     C_R   0.433267 0.994825 0.056769 -0.059023
C19   C     C_R   0.367501 0.927466 0.432483 0.023588
C20   C     C_R   0.365436 0.919512 0.066787 0.040259
C21   C     C_R   0.296380 0.880253 0.448871 0.034492
C22   C     C_R   0.294971 0.870338 0.050354 0.001122
C23   C     C_R   0.139705 0.552605 0.410221 0.453253
C24   C     C_R   0.560267 0.477672 0.865252 0.238921
C25   C     C_R   0.142436 0.556008 0.089525 0.459748
C26   C     C_R   0.500818 0.057622 0.425463 0.024770
C27   C     C_R   0.495725 0.052706 0.073835 0.003435
C28   C     C_R   0.427578 0.870085 0.312641 0.006053
C29   C     C_R   0.426916 0.868973 0.187154 0.005458
C30   C     C_R   0.563060 0.136813 0.686043 0.010868
C31   C     C_R   0.561775 0.134812 0.813646 0.010652
C32   C     C_R   0.396382 0.970444 0.514181 -0.007086
C33   C     C_R   0.393586 0.962121 0.985094 0.040210
C34   C     C_R   0.527599 0.104000 0.506745 0.049518
C35   C     C_R   0.579961 0.514650 0.482683 0.029237
C36   C     C_R   0.522659 0.097657 0.992467 0.009162
C37   C     C_R   0.468254 0.042564 0.524136 0.030341
C38   C     C_R   0.464358 0.035168 0.975107 0.034357
C39   C     C_R   0.346771 0.905115 0.531761 -0.172638
C40   C     C_R   0.345323 0.896037 0.967588 -0.112532
C41   C     C_R   0.356007 0.915647 0.558730 0.010477
C42   C     C_R   0.354504 0.906381 0.940596 0.018205
C43   C     C_R   0.425263 0.989885 0.569249 0.031022
C44   C     C_R   0.422428 0.981607 0.930018 0.024050
C45   C     C_R   0.482867 0.051729 0.551630 -0.049290
C46   C     C_R   0.579361 0.501255 0.018642 0.015863
C47   C     C_R   0.478974 0.044354 0.947615 -0.048486
C48   C     C_R   0.074600 0.587410 0.351821 -0.043897
C49   C     C_R   0.076173 0.591468 0.148391 -0.042179
C50   C     C_R   0.556510 0.122170 0.561354 0.027947
C51   C     C_R   0.551641 0.115802 0.937877 0.034882
C52   C     C_R   0.569382 0.133973 0.588364 0.423115
C53   C     C_R   0.564450 0.127726 0.910883 0.422150
C54   C     C_R   0.442702 0.002731 0.596447 0.434306
C55   C     C_R   0.439672 0.994842 0.902798 0.435229
C56   C     C_R   0.473207 0.108738 0.648014 -0.055302
C57   C     C_R   0.509920 0.518802 0.472761 0.036063
C58   C     C_R   0.470226 0.103859 0.851416 -0.055661
C59   C     C_R   0.491684 0.132151 0.674195 -0.138593
C60   C     C_R   0.490000 0.129485 0.825433 -0.138463
C61   C     C_R   0.613073 0.113591 0.671390 -0.135300
C62   C     C_R   0.610752 0.109853 0.828105 -0.134541
C63   C     C_R   0.594663 0.090564 0.645209 -0.054634
C64   C     C_R   0.591046 0.084615 0.854085 -0.053734
C65   C     C_R   0.525753 0.089835 0.633196 0.240855
C66   C     C_R   0.521831 0.083330 0.866080 0.241063
C67   C     C_R   0.380135 0.961835 0.486765 -0.025908
C68   C     C_R   0.509918 0.506485 0.028568 0.034736
C69   C     C_R   0.377191 0.953613 0.012489 0.031606
C70   C     C_R   0.443302 0.019319 0.469612 0.005843
C71   C     C_R   0.439415 0.012322 0.029637 0.007835
C72   C     C_R   0.098336 0.603781 0.325740 -0.130842
C73   C     C_R   0.098748 0.605541 0.174564 -0.131747
C74   C     C_R   0.512399 0.095240 0.479326 0.044861
C75   C     C_R   0.507333 0.089008 0.019886 -0.013575
C76   C     C_R   0.301495 0.900298 0.475790 -0.034883
C77   C     C_R   0.299343 0.890666 0.023536 -0.044052
C78   C     C_R   0.561731 0.136939 0.434711 -0.129053
C79   C     C_R   0.449309 0.519006 0.489920 0.023297
C80   C     C_R   0.554655 0.132777 0.064554 -0.062598
C81   C     C_R   0.604711 0.167243 0.517219 -0.093107
C82   C     C_R   0.599148 0.161939 0.981973 -0.158722
C83   C     C_R   0.617547 0.178070 0.543892 -0.104245
C84   C     C_R   0.611948 0.172630 0.955310 -0.108853
C85   C     C_R   0.563196 0.158893 0.460840 -0.002647
C86   C     C_R   0.556391 0.153838 0.038253 0.004656
C87   C     C_R   0.552259 0.532602 0.401118 0.424166
C88   C     C_R   0.553647 0.523376 0.100148 0.425875
C89   C     C_R   0.422018 0.530587 0.408323 0.429454
C90   C     C_R   0.449614 0.507224 0.011419 0.022652
C91   C     C_R   0.423317 0.521168 0.092898 0.430660
C92   C     C_R   0.405043 0.479524 0.350901 -0.062057
C93   C     C_R   0.409083 0.473747 0.150733 -0.061150
C94   C     C_R   0.388754 0.491939 0.325387 -0.144002
C95   C     C_R   0.392142 0.488508 0.175912 -0.143397
C96   C     C_R   0.142736 0.499627 0.326927 -0.134188
C97   C     C_R   0.143223 0.501551 0.172578 -0.134178
C98   C     C_R   0.516985 0.629488 0.324764 -0.017063
C99   C     C_R   0.517041 0.628575 0.175162 -0.016034
C100  C     C_R   0.531130 0.616521 0.350863 -0.021225
C101  C     C_R   0.640469 0.518500 0.464798 -0.118734
C102  C     C_R   0.531886 0.613004 0.149402 -0.020475
C103  C     C_R   0.474253 0.542951 0.364093 0.211490
C104  C     C_R   0.476870 0.536959 0.137003 0.212292
C105  C     C_R   0.500410 0.523045 0.445384 -0.029742
C106  C     C_R   0.500793 0.511545 0.055924 -0.031161
C107  C     C_R   0.561802 0.526580 0.428109 0.031431
C108  C     C_R   0.562360 0.515469 0.073193 0.029303
C109  C     C_R   0.631489 0.524427 0.438138 -0.101079
C110  C     C_R   0.631406 0.511988 0.063172 -0.088209
C111  C     C_R   0.429481 0.523862 0.435308 0.033258
C112  C     C_R   0.409843 0.583727 0.212594 0.530192
C113  C     C_R   0.639725 0.504757 0.036517 -0.121358
C114  C     C_R   0.430155 0.513032 0.065968 0.033755
C115  C     C_R   0.441643 0.568136 0.312240 -0.027398
C116  C     C_R   0.442842 0.567002 0.188170 -0.027473
C117  C     C_R   0.571751 0.440441 0.687359 0.011251
C118  C     C_R   0.572582 0.438837 0.813089 0.010814
C119  C     C_R   0.587554 0.507471 0.510018 0.028928
C120  C     C_R   0.586633 0.493713 0.991298 0.019265
C121  C     C_R   0.119113 0.483546 0.353054 -0.049991
C122  C     C_R   0.120312 0.487408 0.146339 -0.049222
C123  C     C_R   0.462157 0.521349 0.517247 0.021646
C124  C     C_R   0.367255 0.517693 0.452339 -0.114883
C125  C     C_R   0.462880 0.510345 0.984124 0.020927
C126  C     C_R   0.529818 0.513110 0.527188 0.033758
C127  C     C_R   0.529868 0.501068 0.974149 0.035236
C128  C     C_R   0.650989 0.494596 0.520897 -0.116240
C129  C     C_R   0.648887 0.479084 0.980383 -0.142495
C130  C     C_R   0.659005 0.490230 0.547655 -0.101187
C131  C     C_R   0.656988 0.475118 0.953588 -0.108044
C132  C     C_R   0.604033 0.498054 0.564749 0.030197
C133  C     C_R   0.603475 0.485467 0.936514 0.031242
C134  C     C_R   0.539549 0.510055 0.554604 -0.031253
C135  C     C_R   0.367658 0.506273 0.048952 -0.113862
C136  C     C_R   0.539971 0.498899 0.946727 -0.030674
C137  C     C_R   0.484474 0.518516 0.571855 0.031421
C138  C     C_R   0.486299 0.509834 0.929542 0.030795
C139  C     C_R   0.493817 0.513600 0.598877 0.420416
C140  C     C_R   0.496274 0.506381 0.902506 0.420271
C141  C     C_R   0.610947 0.492044 0.591836 0.425738
C142  C     C_R   0.610865 0.480723 0.909376 0.425397
C143  C     C_R   0.490855 0.413508 0.647534 -0.058569
C144  C     C_R   0.633471 0.529146 0.850931 -0.052725
C145  C     C_2   0.283597 0.654631 0.448416 0.265178
C146  C     C_R   0.410024 0.532780 0.535089 -0.139576
C147  C     C_2   0.289929 0.647957 0.051766 0.264198
C148  C     C_2   0.213960 0.816557 0.437677 0.372119
C149  C     C_2   0.213038 0.803912 0.061195 0.310261
C150  C     C_2   0.290368 0.846021 0.574517 0.299856
C151  C     C_2   0.290297 0.835484 0.924861 0.309805
C152  C     C_2   0.222571 0.871572 0.491153 0.208912
C153  C     C_2   0.218755 0.857852 0.008816 0.220205
C154  C     C_2   0.608044 0.250649 0.466504 0.197550
C155  C     C_2   0.598564 0.245003 0.031550 0.201994
C156  C     C_2   0.582368 0.706182 0.311300 0.248351
C157  C     C_R   0.412037 0.523972 0.966374 -0.139988
C158  C     C_2   0.580465 0.708357 0.187709 0.247193
C159  C     C_R   0.043313 0.510885 0.447003 -0.047774
C160  C     C_R   0.048174 0.525065 0.052593 -0.052557
C161  C     C_R   0.420991 0.531257 0.561790 -0.108542
C162  C     C_R   0.423609 0.523692 0.939677 -0.107944
C163  C     C_R   0.376919 0.515642 0.479069 -0.149158
C164  C     C_R   0.087054 0.528995 0.365738 0.239317
C165  C     C_R   0.377202 0.503850 0.022234 -0.150439
C166  C     C_R   0.591789 0.176544 0.712055 0.545901
C167  C     C_R   0.591594 0.176252 0.787892 0.545878
C168  C     C_R   0.824767 0.415789 0.712486 0.547162
C169  C     C_R   0.824986 0.415970 0.787458 0.547180
C170  C     C_R   0.584385 0.408860 0.712384 0.547394
C171  C     C_R   0.584496 0.408668 0.787688 0.547171
C172  C     C_R   0.975154 0.475621 0.429303 0.035918
C173  C     C_R   0.979826 0.494788 0.070178 0.030097
C174  C     C_R   0.892567 0.433721 0.438696 -0.106832
C175  C     C_R   0.088993 0.534141 0.133980 0.237390
C176  C     C_R   0.898047 0.462766 0.060681 -0.089974
C177  C     C_R   0.127189 0.553898 0.437433 0.024369
C178  C     C_R   0.131470 0.560466 0.062328 0.028026
C179  C     C_R   0.134982 0.561845 0.313250 0.010167
C180  C     C_R   0.135112 0.562780 0.186704 0.009763
C181  C     C_R   0.870486 0.428948 0.687777 0.012178
C182  C     C_R   0.871761 0.430363 0.811994 0.011680
C183  C     C_R   0.926842 0.454230 0.510839 0.023231
C184  C     C_R   0.932162 0.466925 0.988798 0.023187
C185  C     C_R   0.079300 0.520505 0.519229 0.029677
C186  C     C_R   0.497297 0.391865 0.673089 -0.138572
C187  C     C_R   0.085033 0.544336 0.980180 0.024286
C188  C     C_R   0.995261 0.482442 0.528524 0.039796
C189  C     C_R   0.000646 0.499860 0.971019 0.038893
C190  C     C_R   0.175957 0.591382 0.287688 0.548644
C191  C     C_R   0.175919 0.591441 0.212318 0.548726
C192  C     C_R   0.844592 0.420411 0.521132 -0.154151
C193  C     C_R   0.849373 0.419749 0.978786 -0.152361
C194  C     C_R   0.829968 0.411758 0.547749 -0.122813
C195  C     C_R   0.834428 0.407801 0.952250 -0.121687
C196  C     C_R   0.896522 0.437025 0.565295 0.029833
C197  C     C_R   0.639679 0.509893 0.825011 -0.137328
C198  C     C_R   0.901109 0.441540 0.934521 0.032177
C199  C     C_R   0.979476 0.472537 0.555800 -0.029253
C200  C     C_R   0.984479 0.487931 0.943775 -0.029630
C201  C     C_R   0.046623 0.498222 0.573567 0.032297
C202  C     C_R   0.051607 0.522329 0.925797 0.034917
C203  C     C_R   0.029974 0.488994 0.600478 0.425641
C204  C     C_R   0.034526 0.509506 0.898949 0.426331
C205  C     C_R   0.881919 0.428435 0.592251 0.429595
C206  C     C_R   0.886026 0.429754 0.907631 0.429031
C207  C     C_R   0.895544 0.369216 0.648949 -0.052660
C208  C     C_R   0.637537 0.514016 0.676091 -0.136669
C209  C     C_R   0.896988 0.373666 0.851460 -0.051410
C210  C     C_R   0.865449 0.359715 0.674366 -0.135062
C211  C     C_R   0.865809 0.361948 0.826109 -0.134877
C212  C     C_R   0.911275 0.508836 0.675937 -0.133722
C213  C     C_R   0.914686 0.511484 0.822983 -0.136095
C214  C     C_R   0.415501 0.824291 0.287746 0.548565
C215  C     C_R   0.415424 0.824154 0.212222 0.548735
C216  C     C_R   0.941734 0.518190 0.650559 -0.052233
C217  C     C_R   0.945979 0.523022 0.848277 -0.052762
C218  C     C_R   0.931714 0.447977 0.636782 0.243657
C219  C     C_R   0.497585 0.390397 0.827130 -0.138534
C220  C     C_R   0.934853 0.453805 0.862875 0.239569
C221  C     C_R   0.942656 0.460671 0.483586 0.026515
C222  C     C_R   0.948307 0.480340 0.015930 0.017290
C223  C     C_R   0.027096 0.502266 0.474298 0.036986
C224  C     C_R   0.032559 0.519048 0.025257 0.028489
C225  C     C_R   0.095283 0.534663 0.492064 0.021175
C226  C     C_R   0.100909 0.550809 0.007507 0.006019
C227  C     C_R   0.876545 0.426092 0.465189 -0.143444
C228  C     C_R   0.882561 0.456143 0.034180 -0.132914
C229  C     C_R   0.194541 0.594719 0.455536 -0.008663
C230  C     C_R   0.630758 0.535758 0.650521 -0.052488
C231  C     C_R   0.199681 0.596420 0.044382 -0.013430
C232  C     C_R   0.144722 0.542151 0.537530 -0.141923
C233  C     C_R   0.150680 0.580408 0.961501 -0.148148
C234  C     C_R   0.128673 0.531862 0.564099 -0.110522
C235  C     C_R   0.134164 0.569323 0.934969 -0.108669
C236  C     C_R   0.177708 0.582882 0.482181 -0.157946
C237  C     C_R   0.183303 0.588363 0.017683 -0.182650
C238  C     C_R   0.990726 0.482412 0.402438 0.422888
C239  C     C_R   0.994402 0.497793 0.097043 0.424320
C240  C     C_R   0.370882 0.905264 0.406140 0.462677
Cr1   Cr    Cr6+3 0.456550 0.732290 0.250000 1.033277
Cr2   Cr    Cr6+3 0.275740 0.543450 0.250000 1.027889
Cr3   Cr    Cr6+3 0.267710 0.724260 0.250000 1.029910
Cr4   Cr    Cr6+3 0.543450 0.275740 0.750000 1.027337
Cr5   Cr    Cr6+3 0.724260 0.267710 0.750000 1.025455
Cr6   Cr    Cr6+3 0.732290 0.456550 0.750000 1.025291
H1    H     H_    0.171176 0.466584 0.317911 0.137548
H2    H     H_    0.186878 0.597863 0.921576 0.164223
H3    H     H_    0.969127 0.579082 0.641110 0.139475
H4    H     H_    0.974736 0.585016 0.857049 0.145106
H5    H     H_    0.230795 0.616711 0.495022 0.091173
H6    H     H_    0.237670 0.613561 0.005206 0.085164
H7    H     H_    0.312123 0.874723 0.309341 0.135764
H8    H     H_    0.309449 0.870020 0.189941 0.136424
H9    H     H_    0.320963 0.931692 0.353055 0.147952
H10   H     H_    0.317014 0.924237 0.145912 0.147274
H11   H     H_    0.128634 0.438097 0.363717 0.140701
H12   H     H_    0.171440 0.467935 0.181344 0.138637
H13   H     H_    0.129904 0.442546 0.135355 0.145849
H14   H     H_    0.452091 0.150036 0.684801 0.134035
H15   H     H_    0.451134 0.148587 0.814966 0.134168
H16   H     H_    0.419895 0.108582 0.638950 0.137606
H17   H     H_    0.416830 0.103507 0.860494 0.137638
H18   H     H_    0.299750 0.843789 0.524707 0.128767
H19   H     H_    0.299056 0.834506 0.974747 0.098703
H20   H     H_    0.544561 0.875041 0.322939 0.175518
H21   H     H_    0.545647 0.877098 0.177286 0.177447
H22   H     H_    0.552038 0.931501 0.366848 0.151065
H23   H     H_    0.049805 0.622704 0.361551 0.150756
H24   H     H_    0.551952 0.931085 0.133054 0.153053
H25   H     H_    0.604852 0.184326 0.421142 0.156473
H26   H     H_    0.596213 0.180859 0.078194 0.211877
H27   H     H_    0.657754 0.207787 0.505072 0.127177
H28   H     H_    0.652012 0.203160 0.994070 0.124372
H29   H     H_    0.668725 0.116840 0.679778 0.134028
H30   H     H_    0.666616 0.113460 0.819753 0.134653
H31   H     H_    0.839331 0.405614 0.425491 0.163541
H32   H     H_    0.844975 0.441835 0.073802 0.190042
H33   H     H_    0.677053 0.229325 0.550809 0.159394
H34   H     H_    0.051982 0.627800 0.138985 0.154794
H35   H     H_    0.670963 0.224472 0.948372 0.160282
H36   H     H_    0.635597 0.075868 0.634003 0.131595
H37   H     H_    0.631413 0.068948 0.865205 0.131785
H38   H     H_    0.585860 0.664180 0.361203 0.181131
H39   H     H_    0.585494 0.660608 0.138631 0.179661
H40   H     H_    0.679937 0.527606 0.425339 0.169875
H41   H     H_    0.679864 0.515191 0.075966 0.177250
H42   H     H_    0.445550 0.334766 0.681163 0.138057
H43   H     H_    0.698311 0.548382 0.814732 0.136288
H44   H     H_    0.434804 0.373030 0.636357 0.138703
H45   H     H_    0.209260 0.565365 0.531954 0.097959
H46   H     H_    0.686645 0.582245 0.860170 0.140265
H47   H     H_    0.708746 0.480428 0.554946 0.165176
H48   H     H_    0.705711 0.463796 0.946253 0.166018
H49   H     H_    0.694747 0.485727 0.509281 0.119468
H50   H     H_    0.691495 0.468485 0.992024 0.108439
H51   H     H_    0.834103 0.297322 0.682913 0.134619
H52   H     H_    0.832903 0.298721 0.818181 0.134770
H53   H     H_    0.696997 0.519124 0.470737 0.115754
H54   H     H_    0.695776 0.504452 0.030529 0.121343
H55   H     H_    0.331723 0.442747 0.316457 0.144562
H56   H     H_    0.216123 0.618792 0.966510 0.095728
H57   H     H_    0.336202 0.439052 0.185253 0.145692
H58   H     H_    0.361380 0.421890 0.360897 0.140398
H59   H     H_    0.366747 0.414380 0.141344 0.140030
H60   H     H_    0.310401 0.514475 0.445016 0.165185
H61   H     H_    0.310893 0.503297 0.056268 0.167261
H62   H     H_    0.360966 0.544991 0.529056 0.100687
H63   H     H_    0.363819 0.537315 0.972519 0.105103
H64   H     H_    0.695641 0.552769 0.686588 0.135213
H65   H     H_    0.444838 0.335168 0.818570 0.138488
H66   H     H_    0.378842 0.539666 0.574590 0.164885
H67   H     H_    0.916238 0.563299 0.685807 0.139491
H68   H     H_    0.382581 0.533989 0.926934 0.166837
H69   H     H_    0.683109 0.590768 0.641724 0.139238
H70   H     H_    0.434972 0.369174 0.863934 0.139137
H71   H     H_    0.325239 0.509376 0.490703 0.104176
H72   H     H_    0.325511 0.497358 0.010552 0.107858
H73   H     H_    0.887130 0.314656 0.638253 0.130817
H74   H     H_    0.887986 0.319843 0.862710 0.136063
H75   H     H_    0.765762 0.385168 0.554572 0.165923
H76   H     H_    0.769857 0.371553 0.945635 0.158460
H77   H     H_    0.789636 0.401174 0.509235 0.115822
H78   H     H_    0.920605 0.565440 0.812520 0.140088
H79   H     H_    0.794186 0.388979 0.990924 0.109878
H80   H     H_    0.811107 0.390704 0.470515 0.100729
H81   H     H_    0.817972 0.432664 0.028682 0.142103
H82   H     H_    0.091562 0.652002 0.315744 0.143641
H83   H     H_    0.091577 0.652992 0.184906 0.143652
H84   H     H_    0.334018 0.658602 0.460475 0.087498
H85   H     H_    0.337562 0.645624 0.039868 0.086279
H86   H     H_    0.180138 0.753390 0.445703 0.161388
H87   H     H_    0.178434 0.743217 0.051618 0.089968
H88   H     H_    0.272990 0.781387 0.570162 0.094529
H89   H     H_    0.181197 0.550180 0.577263 0.164690
H90   H     H_    0.275055 0.771516 0.929298 0.074750
H91   H     H_    0.219398 0.914158 0.505181 0.140827
H92   H     H_    0.167521 0.793880 0.011648 0.092763
H93   H     H_    0.661280 0.293723 0.454590 0.089865
H94   H     H_    0.580515 0.265496 0.014113 0.117044
H95   H     H_    0.589225 0.707306 0.290323 0.129778
H96   H     H_    0.588491 0.712586 0.208656 0.131820
N1    N     N_R   0.072064 0.520141 0.393334 -0.398582
N2    N     N_R   0.484971 0.526739 0.109564 -0.391540
N3    N     N_R   0.555617 0.499090 0.608473 -0.389655
N4    N     N_R   0.557077 0.490550 0.892798 -0.389564
N5    N     N_R   0.074750 0.527649 0.106308 -0.396447
N6    N     N_R   0.948427 0.454648 0.609351 -0.394642
N7    N     N_R   0.952500 0.463390 0.890300 -0.394001
N8    N     N_R   0.436068 0.959251 0.389961 -0.394928
N9    N     N_R   0.433566 0.953906 0.109363 -0.395974
N10   N     N_R   0.512162 0.075222 0.605486 -0.397248
N11   N     N_R   0.508113 0.068245 0.893765 -0.397293
N12   N     N_R   0.483185 0.535064 0.391636 -0.390993
O1    O     O_R   0.475290 0.813700 0.278840 -0.500201
O2    O     O_2   0.395277 0.940804 0.887075 -0.451702
O3    O     O_2   0.554451 0.084408 0.384267 -0.503496
O4    O     O_2   0.548518 0.081688 0.115125 -0.500132
O5    O     O_2   0.631457 0.196937 0.596729 -0.480184
O6    O     O_2   0.625700 0.191474 0.902517 -0.478910
O7    O     O_2   0.605000 0.535187 0.386020 -0.504718
O8    O     O_2   0.606788 0.526950 0.115261 -0.499437
O9    O     O_2   0.665153 0.478871 0.600646 -0.481725
O10   O     O_2   0.664139 0.466331 0.900467 -0.481473
O11   O     O_2   0.361601 0.533633 0.399616 -0.473152
O12   O     O_R   0.475290 0.813700 0.221160 -0.501026
O13   O     O_2   0.363056 0.524588 0.101574 -0.473167
O14   O     O_2   0.446796 0.521794 0.613925 -0.508089
O15   O     O_2   0.450703 0.517100 0.887532 -0.508717
O16   O     O_R   0.448450 0.657720 0.276690 -0.510393
O17   O     O_R   0.448450 0.657720 0.223310 -0.511416
O18   O     O_R   0.524710 0.338410 0.721160 -0.514081
O19   O     O_R   0.524710 0.338410 0.778840 -0.513975
O20   O     O_R   0.551550 0.209270 0.723310 -0.494482
O21   O     O_R   0.551550 0.209270 0.776690 -0.494393
O22   O     O_R   0.661590 0.186300 0.721160 -0.513534
O23   O     O_2   0.210261 0.578508 0.401438 -0.410694
O24   O     O_R   0.661590 0.186300 0.778840 -0.513164
O25   O     O_R   0.790730 0.342280 0.723310 -0.497151
O26   O     O_R   0.790730 0.342280 0.776690 -0.496254
O27   O     O_R   0.813700 0.475290 0.721160 -0.513084
O28   O     O_R   0.813700 0.475290 0.778840 -0.514031
O29   O     O_R   0.657720 0.448450 0.723310 -0.495282
O30   O     O_R   0.657720 0.448450 0.776690 -0.495480
O31   O     O_3   0.666667 0.333333 0.750000 -0.230625
O32   O     O_R   0.338410 0.524710 0.278840 -0.511515
O33   O     O_R   0.338410 0.524710 0.221160 -0.511112
O34   O     O_2   0.211588 0.575681 0.098374 -0.414222
O35   O     O_R   0.209270 0.551550 0.276690 -0.495136
O36   O     O_R   0.209270 0.551550 0.223310 -0.494176
O37   O     O_R   0.186300 0.661590 0.278840 -0.510737
O38   O     O_R   0.186300 0.661590 0.221160 -0.511837
O39   O     O_R   0.342280 0.790730 0.276690 -0.496171
O40   O     O_R   0.342280 0.790730 0.223310 -0.496595
O41   O     O_3   0.333333 0.666667 0.250000 -0.228105
O42   O     O_2   0.931956 0.453820 0.387040 -0.502720
O43   O     O_2   0.935457 0.472721 0.112301 -0.499208
O44   O     O_2   0.810097 0.398240 0.600613 -0.454151
O45   O     O_2   0.087748 0.511400 0.616040 -0.498448
O46   O     O_2   0.813658 0.390348 0.899533 -0.458655
O47   O     O_2   0.301751 0.704509 0.430522 -0.419659
O48   O     O_2   0.312791 0.698608 0.069604 -0.410484
O49   O     O_2   0.182508 0.835166 0.419796 -0.464777
O50   O     O_2   0.181880 0.818088 0.080149 -0.453124
O51   O     O_2   0.250500 0.859514 0.590943 -0.428101
O52   O     O_2   0.249151 0.847010 0.908403 -0.415748
O53   O     O_2   0.162473 0.800251 0.489263 -0.519472
O54   O     O_2   0.208186 0.903406 0.993826 -0.456904
O55   O     O_2   0.582942 0.279542 0.483406 -0.500317
O56   O     O_2   0.092411 0.538997 0.883242 -0.497410
O57   O     O_2   0.652680 0.298385 0.045631 -0.533715
O58   O     O_2   0.631286 0.768769 0.323646 -0.506622
O59   O     O_2   0.626658 0.770167 0.174613 -0.507603
O60   O     O_2   0.317299 0.836849 0.397708 -0.421699
O61   O     O_2   0.318553 0.828470 0.101487 -0.410883
O62   O     O_2   0.397574 0.949032 0.612157 -0.452465

loop_
_geom_bond_atom_site_label_1
_geom_bond_atom_site_label_2
_ccdc_geom_bond_type
C194  C196  A    
C63   C65   A    
C58   H17   S    
C198  C206  A    
C87   O7    D    
Cr4   O21   S    
Cr5   O25   S    
C39   C41   A    
C21   C76   A    
C6    C8    A    
C102  H39   S    
C82   H28   S    
C83   H33   S    
C155  O57   D    
C88   C108  A    
C1    O16   A    
C58   C60   A    
C184  C193  A    
C156  H95   S    
C61   C63   A    
C80   C86   A    
Cr6   O28   S    
C147  C231  S    
C117  C170  S    
Cr1   O17   S    
C14   H10   S    
C70   C74   A    
C207  C210  A    
C68   C90   A    
C154  H93   S    
C34   C81   A    
C230  H69   S    
C33   C69   A    
C89   N12   Am   
C195  C198  A    
C40   H19   S    
C148  O49   D    
C215  O12   A    
C207  H73   S    
Cr2   O41   S    
C92   H58   S    
C41   C43   A    
C31   C62   A    
C42   C44   A    
C140  N4    Am   
C155  H94   S    
C50   C83   A    
C146  C161  A    
C98   C156  S    
C159  C172  A    
C127  C136  A    
C99   C116  A    
C187  C226  A    
C25   C178  A    
C142  N4    Am   
C123  C126  A    
C49   H34   S    
C80   H26   S    
C64   C66   A    
C174  C227  A    
Cr4   O18   S    
C43   C54   A    
C4    C26   A    
C100  H38   S    
C232  C234  A    
C138  C162  A    
C62   H30   S    
C78   H25   S    
C160  C178  A    
C187  C233  A    
Cr3   O37   S    
C160  C224  A    
Cr2   O35   S    
C31   C167  S    
C113  H54   S    
C82   C84   A    
C90   C165  A    
C6    H22   S    
C8    C28   A    
C4    N8    Am   
C59   H14   S    
C37   C45   A    
C49   C175  A    
C150  H88   S    
C18   C71   A    
C139  N3    Am   
C111  C124  A    
C94   C115  A    
C48   C164  A    
C84   H35   S    
C221  C227  A    
C218  N6    S    
C33   C38   A    
C188  C199  A    
C56   C59   A    
C87   N12   Am   
C229  C236  A    
C210  H51   S    
C163  H71   S    
C183  C188  A    
C137  C161  A    
C223  C225  A    
C44   C55   A    
C201  C234  A    
C240  O60   D    
C118  C171  S    
C170  O18   A    
C169  C182  S    
C25   N5    Am   
C119  C126  A    
C122  H13   S    
C87   C107  A    
C126  C134  A    
C200  C202  A    
C168  C181  S    
C30   C61   A    
C125  C127  A    
C95   H57   S    
C205  O44   D    
C198  C200  A    
C1    C115  S    
C53   N11   Am   
C157  C162  A    
C172  C238  A    
C10   H7    S    
C160  C173  A    
C124  H60   S    
C117  C208  A    
C4    O3    D    
C55   N11   Am   
C150  O51   D    
C105  C107  A    
C133  C142  A    
C26   C78   A    
C96   C121  A    
C45   C50   A    
C19   C21   A    
C216  C218  A    
C101  H53   S    
C176  H32   S    
C117  C186  A    
C29   C215  S    
C35   C119  A    
C11   H8    S    
C50   C52   A    
C162  H68   S    
C5    O4    D    
C16   N9    S    
C77   C153  S    
C13   C230  A    
C5    C27   A    
C216  H3    S    
C62   C64   A    
C213  H78   S    
C13   C143  A    
C208  H64   S    
C96   H1    S    
C124  C163  A    
C40   C42   A    
C165  H72   S    
C166  O22   A    
C93   C95   A    
C226  C237  A    
C201  C203  A    
C212  H67   S    
C167  O24   A    
C48   C72   A    
C196  C199  A    
C227  H80   S    
C81   C83   A    
C151  O52   D    
C172  C174  A    
C97   H12   S    
C52   N10   Am   
C176  C228  A    
C33   C40   A    
C23   C177  A    
C144  C197  A    
C54   O62   D    
C120  C129  A    
C21   C148  S    
C27   C80   A    
C97   C180  A    
C181  C210  A    
C51   C53   A    
C192  C194  A    
C228  H81   S    
C46   C68   A    
C36   C75   A    
C219  H65   S    
C145  O47   D    
C95   C116  A    
C185  C225  A    
C30   C59   A    
C238  O42   D    
C46   C120  A    
C237  H6    S    
C32   C37   A    
C222  C224  A    
C42   C151  S    
C43   C45   A    
C91   N2    Am   
Cr6   O30   S    
C32   C67   A    
C109  H40   S    
C78   C85   A    
C132  C134  A    
Cr1   O12   S    
C197  H43   S    
C89   O11   D    
C235  H2    S    
C112  C116  S    
C91   O13   D    
C132  C141  A    
C156  O58   D    
C185  C232  A    
C145  C229  S    
C46   C113  A    
C225  C236  A    
C7    H24   S    
C180  C191  S    
C152  H91   S    
C173  C239  A    
C54   N10   Am   
C91   C114  A    
C67   C70   A    
C23   N1    Am   
C119  C128  A    
C98   C115  A    
C106  C108  A    
C153  O54   D    
C169  O28   A    
C108  C110  A    
C14   C16   A    
C85   C154  S    
C74   C85   A    
C105  C111  A    
Cr6   O29   S    
C174  H31   S    
Cr1   O16   S    
Cr4   O31   S    
C63   H36   S    
C121  H11   S    
Cr1   O41   S    
C34   C37   A    
C88   O8    D    
C183  C192  A    
C134  C137  A    
C144  H46   S    
C217  C220  A    
C137  C139  A    
C202  C204  A    
C181  C212  A    
C167  O21   A    
C168  O27   A    
C39   H18   S    
C125  C157  A    
C76   C152  S    
C101  C109  A    
C166  O20   A    
C149  O50   D    
C194  H75   S    
C9    H21   S    
C7    C9    A    
C32   C39   A    
C13   N3    S    
C202  C235  A    
C73   C180  A    
C73   H83   S    
C110  H41   S    
C24   N4    S    
C190  O37   A    
C182  C213  A    
C205  N6    Am   
C152  O53   D    
Cr3   O40   S    
C141  O9    D    
Cr2   O36   S    
C22   C149  S    
C146  H62   S    
C12   H9    S    
C107  C109  A    
C203  O45   D    
C169  O26   A    
Cr5   O26   S    
C120  C127  A    
C206  N7    Am   
C148  H86   S    
C8    H20   S    
C234  H89   S    
C3    N9    Am   
C41   C150  S    
C215  O40   A    
C100  C103  A    
C131  H48   S    
C31   C60   A    
C56   H16   S    
C86   C155  S    
C52   O5    D    
Cr6   O27   S    
C151  H90   S    
C158  H96   S    
Cr2   O32   S    
C143  H44   S    
C123  C146  A    
C222  C228  A    
Cr5   O24   S    
C191  O38   A    
C161  H66   S    
C142  O10   D    
C135  C165  A    
C3    C20   A    
Cr6   O31   S    
C34   C74   A    
C66   N11   S    
C7    C16   A    
C20   C22   A    
C98   C100  A    
C164  N1    S    
C2    C219  A    
C143  C186  A    
C53   O6    D    
C211  H52   S    
Cr5   O22   S    
C10   C28   A    
C207  C218  A    
C65   N10   S    
C22   C77   A    
Cr4   O20   S    
C35   C101  A    
C128  C130  A    
C55   O2    D    
C158  O59   D    
C47   C51   A    
C204  N7    Am   
C72   H82   S    
Cr2   O33   S    
C35   C57   A    
C36   C38   A    
C178  C231  A    
C3    O61   D    
C170  O29   A    
C24   C144  A    
C190  O35   A    
C182  C211  A    
C5    N9    Am   
C90   C125  A    
C81   H27   S    
C112  O17   A    
C96   C179  A    
C153  H92   S    
Cr1   O1    S    
Cr3   O38   S    
C99   C102  A    
C140  O15   D    
C199  C201  A    
C88   N2    Am   
C141  N3    Am   
C175  N5    S    
C51   C84   A    
C122  C175  A    
C171  O30   A    
C128  H49   S    
C57   C105  A    
Cr5   O31   S    
C57   C79   A    
C130  C132  A    
C232  H45   S    
C147  H85   S    
C135  H61   S    
C171  O19   A    
C184  C222  A    
C130  H47   S    
C157  H63   S    
C106  C114  A    
C193  H79   S    
C17   C26   A    
C220  N7    S    
C177  C229  A    
C11   C14   A    
C147  O48   D    
C56   C65   A    
C191  O36   A    
C149  H87   S    
C196  C205  A    
C69   C71   A    
C75   C86   A    
C92   C103  A    
C209  C211  A    
C6    C15   A    
C58   C66   A    
C212  C216  A    
C36   C82   A    
C193  C195  A    
C133  C136  A    
C114  C135  A    
C12   C15   A    
C206  O46   D    
C195  H76   S    
C18   C20   A    
C44   C47   A    
C183  C221  A    
C17   C70   A    
C68   C106  A    
C159  C177  A    
C93   C104  A    
C92   C94   A    
Cr3   O41   S    
C25   O34   D    
C112  O33   A    
C28   C214  S    
Cr4   O19   S    
C30   C166  S    
C136  C138  A    
C213  C217  A    
C185  C188  A    
C129  H50   S    
C121  C164  A    
C79   C123  A    
C209  H74   S    
C97   C122  A    
C15   N8    S    
C61   H29   S    
C102  C104  A    
C233  C235  A    
C110  C113  A    
C38   C47   A    
C10   C12   A    
C189  C200  A    
C204  O56   D    
C48   H23   S    
C233  H56   S    
C2    C24   A    
C2    H70   S    
C217  H4    S    
C239  O43   D    
C236  H5    S    
C192  H77   S    
C104  N2    S    
C173  C176  A    
C23   O23   D    
C93   H59   S    
C154  O55   D    
C209  C220  A    
C240  N8    Am   
C60   H15   S    
C18   C27   A    
C79   C163  A    
C131  C133  A    
C224  C226  A    
C138  C140  A    
C9    C29   A    
C89   C111  A    
C214  O39   A    
C231  C237  A    
C238  N1    Am   
C221  C223  A    
C186  H42   S    
C19   C240  A    
C103  N12   S    
C71   C75   A    
C214  O1    A    
C64   H37   S    
C69   C77   A    
C179  C190  S    
C239  N5    Am   
C203  N6    Am   
C159  C223  A    
C17   C19   A    
C49   C73   A    
C145  H84   S    
C187  C189  A    
C11   C29   A    
C1    O32   A    
C99   C158  S    
C118  C219  A    
C168  O25   A    
C184  C189  A    
C67   C76   A    
C94   H55   S    
C72   C179  A    
C139  O14   D    
C118  C197  A    
Cr3   O39   S    
C208  C230  A    
C129  C131  A    
