data_mof_unit_26105.cif
_audit_creation_date              2012-12-10T18:41:22-0500
_audit_creation_method            fapswitch 2.2
_symmetry_space_group_name_H-M    P1
_symmetry_Int_Tables_number       1
_space_group_crystal_system       triclinic
_cell_length_a                    15.19115
_cell_length_b                    13.98079
_cell_length_c                    10.863727
_cell_angle_alpha                 90.878998
_cell_angle_beta                  92.28401
_cell_angle_gamma                 90.077115
_cell_volume                      2305.17608454

loop_
_atom_site_label
_atom_site_type_symbol
_atom_type_description
_atom_site_fract_x
_atom_site_fract_y
_atom_site_fract_z
_atom_type_partial_charge
C1    C     C_R   0.330483 0.499784 0.499572 0.968455
C2    C     C_R   0.670405 0.499977 0.496271 0.899329
C3    C     C_R   0.190368 0.441942 0.580354 0.218366
C4    C     C_R   0.813310 0.411071 0.475026 0.256661
C5    C     C_R   0.097598 0.442519 0.578698 0.342810
C6    C     C_R   0.905944 0.410772 0.469277 0.344944
C7    C     C_R   0.050330 0.495788 0.488779 -0.108990
C8    C     C_R   0.953444 0.496596 0.486673 -0.144935
C9    C     C_R   0.536094 0.108712 0.600955 -0.175583
C10   C     C_R   0.464828 0.105109 0.401454 -0.258476
C11   C     C_R   0.539982 0.209209 0.596441 0.549688
C12   C     C_R   0.460242 0.205645 0.404742 0.523975
C13   C     C_R   0.500163 0.054361 0.501843 0.030645
C14   C     C_R   0.424592 0.891952 0.460202 0.251287
C15   C     C_R   0.573924 0.894198 0.544745 0.284220
C16   C     C_R   0.429999 0.791611 0.448675 0.519000
C17   C     C_R   0.569931 0.792762 0.552411 0.396879
C18   C     C_R   0.499058 0.945769 0.503270 -0.145244
C19   C     C_R   0.497162 0.499445 0.262710 0.895040
C20   C     C_R   0.497542 0.500657 0.737019 0.888207
C21   C     C_R   0.526881 0.572830 0.065563 -0.159636
C22   C     C_R   0.523443 0.576267 0.941518 -0.156521
C23   C     C_R   0.490818 0.498748 0.129584 -0.124794
C24   C     C_R   0.488870 0.501686 0.869050 -0.136169
C25   C     C_R   0.443486 0.427523 0.060545 0.299422
C26   C     C_R   0.446679 0.425796 0.929120 0.316749
C27   C     C_3   0.578524 0.665508 0.939119 0.666455
C28   C     C_3   0.583802 0.659458 0.083045 0.684217
C29   C     C_R   0.095168 0.549345 0.401891 0.351100
C30   C     C_R   0.908972 0.583474 0.502994 0.393952
C31   C     C_R   0.187736 0.552908 0.408179 0.244157
C32   C     C_R   0.817273 0.585727 0.496105 0.215678
C33   C     C_R   0.234405 0.498754 0.496644 -0.219631
C34   C     C_R   0.768001 0.499242 0.488225 -0.293781
Cu1   Cu    Cu3+1 0.500000 0.596430 0.500000 1.006004
Cu2   Cu    Cu3+1 0.500000 0.403570 0.500000 1.032480
H1    H     H_    0.563740 0.073556 0.681589 0.199783
H2    H     H_    0.436617 0.066766 0.321919 0.210195
N1    N     N_R   0.500000 0.258690 0.500000 -0.274621
N2    N     N_R   0.500000 0.741330 0.500000 -0.316818
O1    O     O_R   0.371460 0.581430 0.500010 -0.556325
O2    O     O_R   0.628540 0.581430 0.499990 -0.569674
O3    O     O_R   0.371470 0.418560 0.500010 -0.587246
O4    O     O_R   0.628530 0.418560 0.499990 -0.561086
O5    O     O_R   0.499990 0.581450 0.319660 -0.592935
O6    O     O_R   0.500010 0.581450 0.680340 -0.596580
O7    O     O_R   0.500010 0.418580 0.319660 -0.550640
O8    O     O_R   0.499990 0.418580 0.680340 -0.530648
O9    O     O_3   0.391355 0.364922 0.121916 -0.696660
H3    H     H_    0.341636 0.343968 0.066169 0.335240
O10   O     O_3   0.409313 0.352052 0.858763 -0.671666
H4    H     H_    0.410001 0.293220 0.908426 0.340845
O11   O     O_3   0.345405 0.934106 0.425953 -0.667697
H5    H     H_    0.339300 0.994139 0.474373 0.330842
O12   O     O_3   0.649479 0.944471 0.580236 -0.715082
H6    H     H_    0.698733 0.899645 0.596971 0.379122
O13   O     O_3   0.361460 0.746355 0.385941 -0.626910
H7    H     H_    0.387195 0.694117 0.337352 0.371059
O14   O     O_3   0.637206 0.748168 0.616651 -0.680679
H8    H     H_    0.611264 0.694031 0.659074 0.405321
O15   O     O_3   0.658714 0.651564 0.879984 -0.766989
H9    H     H_    0.684599 0.589812 0.907082 0.319389
O16   O     O_3   0.542305 0.733395 0.149115 -0.758481
H10   H     H_    0.480966 0.740275 0.115328 0.329545
O17   O     O_3   0.527480 0.741837 0.890281 -0.580194
C35   C     C_3   0.574473 0.829113 0.898887 0.096617
H11   H     H_    0.629424 0.828903 0.834430 0.213920
H12   H     H_    0.601329 0.844026 0.993725 0.146450
C36   C     C_3   0.512041 0.910354 0.865252 -0.756647
H13   H     H_    0.458317 0.914047 0.931570 0.256268
H14   H     H_    0.548462 0.979276 0.868882 0.209748
H15   H     H_    0.482617 0.898642 0.771102 0.241338
O18   O     O_3   0.667142 0.633326 0.134923 -0.599949
C37   C     C_3   0.723518 0.713528 0.147390 0.098656
H16   H     H_    0.705712 0.757729 0.228601 0.188162
H17   H     H_    0.721161 0.758687 0.064043 0.145120
C38   C     C_3   0.817818 0.678956 0.166160 -0.770509
H18   H     H_    0.838862 0.641752 0.081212 0.237944
H19   H     H_    0.862085 0.740884 0.186795 0.229608
H20   H     H_    0.823153 0.628278 0.243561 0.255587
O19   O     O_3   0.048542 0.601929 0.314093 -0.532422
C39   C     C_3   0.037787 0.547917 0.203235 0.053729
H21   H     H_    0.971122 0.514926 0.199461 0.140796
H22   H     H_    0.087661 0.490002 0.192567 0.131138
C40   C     C_3   0.044744 0.614222 0.094029 -0.783532
H23   H     H_    0.113729 0.639053 0.086736 0.245752
H24   H     H_    0.024433 0.575793 0.007383 0.187475
H25   H     H_    0.001758 0.677534 0.105179 0.262788
O20   O     O_3   0.954885 0.669009 0.513118 -0.495157
C41   C     C_3   0.974242 0.689623 0.638851 0.093715
H26   H     H_    0.025535 0.639986 0.675834 0.099955
H27   H     H_    0.914404 0.684882 0.694769 0.160763
C42   C     C_3   0.010391 0.790871 0.651797 -0.694105
H28   H     H_    0.960515 0.842722 0.616465 0.259239
H29   H     H_    0.026625 0.807760 0.750324 0.188919
H30   H     H_    0.071060 0.797637 0.598760 0.259928
O21   O     O_3   0.234566 0.604984 0.325663 -0.700877
H31   H     H_    0.194753 0.649793 0.281278 0.381940
O22   O     O_3   0.778435 0.674407 0.497802 -0.629978
H32   H     H_    0.738874 0.677412 0.423325 0.357149
O23   O     O_3   0.240010 0.388854 0.664216 -0.675750
H33   H     H_    0.200941 0.350069 0.714510 0.368787
O24   O     O_3   0.765823 0.326469 0.465676 -0.692413
H34   H     H_    0.805918 0.270758 0.466305 0.366681
O25   O     O_3   0.053369 0.384998 0.658642 -0.524758
C43   C     C_3   0.034267 0.438372 0.765617 0.044906
H35   H     H_    0.979733 0.489321 0.745256 0.127827
H36   H     H_    0.093048 0.478310 0.803994 0.137496
C44   C     C_3   0.004243 0.370172 0.863408 -0.750401
H37   H     H_    0.057829 0.319011 0.887599 0.246289
H38   H     H_    0.987082 0.410855 0.947615 0.182119
H39   H     H_    0.945256 0.329665 0.828303 0.265311
O26   O     O_3   0.950503 0.325238 0.454909 -0.527337
C45   C     C_3   0.961516 0.307829 0.328188 0.037238
H40   H     H_    0.008391 0.360188 0.291512 0.124786
H41   H     H_    0.897588 0.311318 0.274308 0.146863
C46   C     C_3   0.999837 0.208383 0.310751 -0.710630
H42   H     H_    0.954229 0.153822 0.345609 0.250638
H43   H     H_    0.009470 0.194067 0.211362 0.196559
H44   H     H_    0.064447 0.203124 0.361774 0.261332
O27   O     O_3   0.585255 0.254625 0.692353 -0.705620
H45   H     H_    0.617259 0.308542 0.657710 0.366727
O28   O     O_3   0.412641 0.247301 0.310527 -0.669447
H46   H     H_    0.384577 0.304627 0.344743 0.376898

loop_
_geom_bond_atom_site_label_1
_geom_bond_atom_site_label_2
_ccdc_geom_bond_type
C15   C18   A    
C35   H12   S    
O12   H6    S    
C42   H28   S    
C7    C29   A    
O18   C37   S    
C14   C18   A    
Cu1   Cu2   S    
C45   H40   S    
C41   H26   S    
C1    C33   S    
O28   H46   S    
C5    O25   S    
C38   H18   S    
O23   H33   S    
C37   H17   S    
C13   C18   S    
C24   C26   A    
C46   H43   S    
C19   O7    A    
C38   H20   S    
C35   C36   S    
C43   H35   S    
C3    C33   A    
C4    O24   S    
Cu2   O7    S    
C36   H14   S    
Cu1   O2    S    
C9    C13   A    
C27   O15   S    
C1    O3    A    
C20   C24   S    
C2    O4    A    
C37   C38   S    
C31   C33   A    
O15   H9    S    
C2    C34   S    
C40   H24   S    
C35   H11   S    
O14   H8    S    
C42   H29   S    
C21   C22   A    
C11   O27   S    
C30   O20   S    
C28   O18   S    
O21   H31   S    
C38   H19   S    
C4    C34   A    
C37   H16   S    
O10   H4    S    
C7    C8    S    
C4    C6    A    
C46   H44   S    
C5    C7    A    
C6    C8    A    
C25   C26   A    
C40   H23   S    
C39   H21   S    
O19   C39   S    
C17   N2    A    
C15   O12   S    
C36   H15   S    
C19   C23   S    
C6    O26   S    
C29   O19   S    
C27   O17   S    
C41   H27   S    
O22   H32   S    
C9    H1    S    
C11   N1    A    
C9    C11   A    
O27   H45   S    
C20   O8    A    
C10   C12   A    
C17   O14   S    
C1    O1    A    
C21   C28   S    
C16   N2    A    
O9    H3    S    
C42   H30   S    
C39   H22   S    
C22   C27   S    
C21   C23   A    
C22   C24   A    
C44   H39   S    
Cu1   O5    S    
O24   H34   S    
C41   C42   S    
O26   C45   S    
C40   H25   S    
C15   C17   A    
Cu2   N1    S    
C3    C5    A    
C10   C13   A    
C45   H41   S    
C19   O5    A    
O11   H5    S    
C31   O21   S    
C39   C40   S    
O25   C43   S    
C32   O22   S    
C10   H2    S    
C8    C30   A    
C12   N1    A    
C44   H38   S    
Cu1   N2    S    
C29   C31   A    
C46   H42   S    
C30   C32   A    
C3    O23   S    
O13   H7    S    
C12   O28   S    
C43   H36   S    
C2    O2    A    
Cu2   O8    S    
C14   C16   A    
C16   O13   S    
C23   C25   A    
C36   H13   S    
Cu1   O1    S    
C25   O9    S    
C45   C46   S    
Cu2   O4    S    
O16   H10   S    
C28   O16   S    
C14   O11   S    
O17   C35   S    
C44   H37   S    
C27   C28   S    
Cu2   O3    S    
O20   C41   S    
C26   O10   S    
Cu1   O6    S    
C20   O6    A    
C32   C34   A    
C43   C44   S    
