data_mof_unit_27000.cif
_audit_creation_date              2012-12-10T18:49:58-0500
_audit_creation_method            fapswitch 2.2
_symmetry_space_group_name_H-M    P1
_symmetry_Int_Tables_number       1
_space_group_crystal_system       triclinic
_cell_length_a                    10.720533
_cell_length_b                    9.804277
_cell_length_c                    10.760146
_cell_angle_alpha                 90.721667
_cell_angle_beta                  90.097941
_cell_angle_gamma                 90.112891
_cell_volume                      1130.87386757

loop_
_atom_site_label
_atom_site_type_symbol
_atom_type_description
_atom_site_fract_x
_atom_site_fract_y
_atom_site_fract_z
_atom_type_partial_charge
C1    C     C_R   0.260364 0.499786 0.501484 0.864238
C2    C     C_3   0.609889 0.451353 0.924980 -0.553474
C3    C     C_R   0.066552 0.397493 0.437812 -0.189196
C4    C     C_R   0.067219 0.596491 0.574623 -0.195683
C5    C     C_R   0.938469 0.397179 0.434574 0.139606
C6    C     C_R   0.938689 0.596124 0.577823 0.170856
C7    C     C_R   0.873829 0.498356 0.504109 -0.058950
C8    C     C_R   0.129072 0.498533 0.504241 -0.098983
C9    C     C_R   0.578576 0.073460 0.576227 -0.071766
C10   C     C_R   0.578532 0.929484 0.576088 -0.082974
C11   C     C_R   0.420619 0.926777 0.424410 -0.066006
C12   C     C_R   0.420891 0.070926 0.424045 -0.060631
C13   C     C_R   0.491289 0.499495 0.258156 0.893144
C14   C     C_R   0.740411 0.499855 0.501243 0.906640
C15   C     C_R   0.490516 0.501600 0.741949 0.895703
C16   C     C_3   0.452305 0.650338 0.075882 0.021808
C17   C     C_3   0.379198 0.398260 0.072974 0.021770
C18   C     C_3   0.468960 0.661911 0.931380 0.392640
C19   C     C_3   0.371710 0.403857 0.926567 0.361625
C20   C     C_3   0.613386 0.448524 0.068535 -0.044974
C21   C     C_3   0.482432 0.499814 0.121475 -0.085909
C22   C     C_3   0.481725 0.506000 0.878344 0.020228
H1    H     H_    0.524332 0.716931 0.120446 0.191306
H2    H     H_    0.413676 0.295547 0.098599 0.179427
H3    H     H_    0.356722 0.871114 0.364862 0.129425
H4    H     H_    0.357806 0.124889 0.363460 0.121535
H5    H     H_    0.688372 0.512078 0.886858 0.182097
H6    H     H_    0.630440 0.349636 0.883236 0.191073
H7    H     H_    0.117953 0.320204 0.386561 0.151712
H8    H     H_    0.119630 0.671358 0.628565 0.153509
H9    H     H_    0.641288 0.129335 0.637195 0.130434
H10   H     H_    0.641018 0.876335 0.636944 0.121302
N1    N     N_R   0.499970 0.857200 0.499970 -0.081912
N2    N     N_R   0.499970 0.142800 0.499970 -0.081609
O1    O     O_R   0.316750 0.614620 0.499990 -0.629943
O2    O     O_R   0.316750 0.385380 0.499990 -0.634390
O3    O     O_R   0.499970 0.614670 0.314790 -0.621404
O4    O     O_R   0.499970 0.385330 0.314790 -0.622575
O5    O     O_R   0.683220 0.614710 0.500010 -0.606513
O6    O     O_R   0.683220 0.385290 0.500010 -0.621800
O7    O     O_R   0.500010 0.614660 0.685200 -0.635295
O8    O     O_R   0.500010 0.385340 0.685200 -0.626870
Zn1   Zn    Zn3+2 0.499980 0.653120 0.500000 0.936111
Zn2   Zn    Zn3+2 0.499980 0.346880 0.500000 0.937078
C23   C     C_3   0.329098 0.712811 0.128193 -0.897601
H11   H     H_    0.338745 0.825455 0.135997 0.223434
H12   H     H_    0.247278 0.692215 0.068693 0.247694
H13   H     H_    0.305499 0.676292 0.222172 0.258757
C24   C     C_3   0.253183 0.396605 0.143682 -0.942190
H14   H     H_    0.195686 0.309212 0.110128 0.244216
H15   H     H_    0.269222 0.380657 0.243958 0.237889
H16   H     H_    0.196460 0.489207 0.134316 0.265102
C25   C     C_3   0.364839 0.750888 0.867495 -0.825822
H17   H     H_    0.345933 0.844998 0.922552 0.226931
H18   H     H_    0.393980 0.792213 0.776657 0.262803
H19   H     H_    0.275569 0.700345 0.849884 0.211193
C26   C     C_3   0.240218 0.446323 0.879086 -0.853513
H20   H     H_    0.171815 0.361464 0.887020 0.247739
H21   H     H_    0.198480 0.530129 0.933222 0.230999
H22   H     H_    0.243156 0.473984 0.779476 0.212243
C27   C     C_3   0.589599 0.751085 0.910161 -0.934518
H23   H     H_    0.670765 0.720360 0.965864 0.236447
H24   H     H_    0.620993 0.752202 0.812924 0.258221
H25   H     H_    0.572304 0.859055 0.938147 0.243542
C28   C     C_3   0.385301 0.252494 0.878578 -0.882061
H26   H     H_    0.478988 0.208968 0.894031 0.226402
H27   H     H_    0.319519 0.185203 0.929206 0.218575
H28   H     H_    0.358945 0.239276 0.779413 0.275609
C29   C     C_1   0.718039 0.532784 0.116830 0.117377
N3    N     N_1   0.799865 0.598267 0.155026 -0.210171
C30   C     C_1   0.643048 0.306713 0.105392 0.149145
N4    N     N_1   0.665368 0.195639 0.133069 -0.214379
C31   C     C_3   0.875009 0.290975 0.353646 -0.818437
H29   H     H_    0.941895 0.236019 0.292263 0.222452
H30   H     H_    0.827993 0.213852 0.412021 0.254638
H31   H     H_    0.806421 0.341521 0.293088 0.252709
C32   C     C_3   0.874677 0.698245 0.661912 -0.904683
H32   H     H_    0.941069 0.747895 0.727822 0.231677
H33   H     H_    0.832743 0.779489 0.604874 0.254701
H34   H     H_    0.802301 0.646740 0.718116 0.230469

loop_
_geom_bond_atom_site_label_1
_geom_bond_atom_site_label_2
_ccdc_geom_bond_type
C16   C21   S    
C1    C8    S    
C31   H30   S    
C31   H29   S    
C4    C8    A    
C25   H17   S    
C19   C26   S    
C26   H21   S    
C11   H3    S    
C3    H7    S    
C27   H24   S    
C18   C25   S    
C14   O5    A    
C15   C22   S    
C28   H27   S    
C2    C22   S    
C20   C30   S    
C2    H5    S    
C7    C14   S    
O1    Zn1   S    
C9    C10   A    
C13   O3    A    
C24   H16   S    
C23   H12   S    
O7    Zn1   S    
C29   N3    T    
O8    Zn2   S    
C25   H18   S    
C17   H2    S    
C2    C20   S    
N1    Zn1   S    
C11   N1    A    
C19   C22   S    
N2    Zn2   S    
C15   O7    A    
C4    C6    A    
C3    C8    A    
C17   C24   S    
C5    C7    A    
C6    C32   S    
C26   H22   S    
O5    Zn1   S    
C23   H13   S    
C24   H15   S    
C32   H32   S    
C17   C21   S    
C12   H4    S    
O3    Zn1   S    
C27   H25   S    
O4    Zn2   S    
C28   H28   S    
C32   H33   S    
C13   C21   S    
C13   O4    A    
C28   H26   S    
C16   H1    S    
C9    N2    A    
C31   H31   S    
C20   C29   S    
O2    Zn2   S    
C12   N2    A    
C1    O1    A    
C25   H19   S    
C18   C22   S    
C15   O8    A    
C3    C5    A    
C16   C23   S    
C23   H11   S    
C11   C12   A    
C18   C27   S    
C6    C7    A    
C30   N4    T    
C32   H34   S    
C26   H20   S    
C17   C19   S    
C19   C28   S    
C10   N1    A    
C5    C31   S    
C27   H23   S    
C9    H9    S    
C14   O6    A    
C10   H10   S    
O6    Zn2   S    
C20   C21   S    
C16   C18   S    
C24   H14   S    
C2    H6    S    
C4    H8    S    
C1    O2    A    
