data_mof_unit_54187.cif
_audit_creation_date              2012-10-26T21:15:27-0400
_audit_creation_method            fapswitch 2.2
_symmetry_space_group_name_H-M    P1
_symmetry_Int_Tables_number       1
_space_group_crystal_system       triclinic
_cell_length_a                    10.66116
_cell_length_b                    10.964328
_cell_length_c                    9.688515
_cell_angle_alpha                 90.359629
_cell_angle_beta                  90.580762
_cell_angle_gamma                 89.541919
_cell_volume                      1132.39819472

loop_
_atom_site_label
_atom_site_type_symbol
_atom_type_description
_atom_site_fract_x
_atom_site_fract_y
_atom_site_fract_z
_atom_type_partial_charge
C1    C     C_R   0.496284 0.265539 0.499427 0.564142
C2    C     C_2   0.422187 0.434835 0.076295 0.237201
C3    C     C_R   0.259725 0.502298 0.499361 0.557797
C4    C     C_R   0.501272 0.734589 0.500093 0.619719
C5    C     C_R   0.740600 0.499697 0.500780 0.561332
C6    C     C_3   0.046291 0.396020 0.554153 -0.094263
C7    C     C_3   0.960974 0.410060 0.425849 0.124963
C8    C     C_3   0.877239 0.501378 0.502468 0.030955
C9    C     C_3   0.963695 0.490849 0.629906 0.149642
C10   C     C_3   0.041304 0.596062 0.575036 0.148885
C11   C     C_3   0.009801 0.232570 0.283032 -0.326871
C12   C     C_3   0.955509 0.608403 0.446478 -0.147998
C13   C     C_3   0.319353 0.236464 0.075838 -0.317702
C14   C     C_3   0.014753 0.450274 0.872773 -0.317685
C15   C     C_3   0.000787 0.784944 0.704208 -0.310260
C16   C     C_3   0.410796 0.845539 0.173014 -0.284180
C17   C     C_3   0.589906 0.917664 0.734645 -0.309818
C18   C     C_3   0.688592 0.109146 0.271427 -0.297839
C19   C     C_3   0.039642 0.514627 0.368145 -0.138093
C20   C     C_3   0.123729 0.503433 0.498336 0.004883
C21   C     C_2   0.468692 0.933786 0.397049 0.112276
C22   C     C_2   0.522491 0.865164 0.497986 0.140930
C23   C     C_2   0.497053 0.063866 0.387850 0.111440
C24   C     C_2   0.476307 0.134989 0.498793 -0.102771
C25   C     C_2   0.413197 0.448968 0.920802 -0.026043
Cu1   Cu    Cu3+1 0.500030 0.500020 0.638630 0.921311
Cu2   Cu    Cu3+1 0.499970 0.499980 0.361370 0.962835
H1    H     H_    0.332251 0.410958 0.867950 0.140262
H2    H     H_    0.061983 0.283340 0.203554 0.132607
H3    H     H_    0.438447 0.095653 0.592120 0.076555
H4    H     H_    0.254104 0.395792 0.166699 0.237012
H5    H     H_    0.286101 0.170526 0.153604 0.147286
H6    H     H_    0.408406 0.201302 0.031617 0.154724
H7    H     H_    0.247408 0.243597 0.992464 0.090282
H8    H     H_    0.858677 0.546474 0.800192 0.255085
H9    H     H_    0.969431 0.433510 0.973525 0.133879
H10   H     H_    0.080335 0.527707 0.885248 0.132428
H11   H     H_    0.067867 0.366743 0.843370 0.143416
H12   H     H_    0.579755 0.526249 0.895485 0.198469
H13   H     H_    0.158127 0.672454 0.726340 0.258373
H14   H     H_    0.050467 0.864610 0.749315 0.134233
H15   H     H_    0.942615 0.743602 0.785551 0.131766
H16   H     H_    0.939462 0.818000 0.618764 0.160659
H17   H     H_    0.292002 0.938880 0.306475 0.237587
H18   H     H_    0.364054 0.757991 0.147754 0.165795
H19   H     H_    0.514057 0.831114 0.167545 0.149120
H20   H     H_    0.381978 0.913749 0.094237 0.094073
H21   H     H_    0.674025 0.980958 0.552804 0.245505
H22   H     H_    0.595732 0.013421 0.772169 0.128006
H23   H     H_    0.551397 0.564283 0.106373 0.166705
H24   H     H_    0.659922 0.861730 0.792090 0.150799
H25   H     H_    0.494338 0.883569 0.757039 0.155214
H26   H     H_    0.521043 0.067990 0.176809 0.243090
H27   H     H_    0.725308 0.013992 0.274375 0.117713
H28   H     H_    0.722069 0.159183 0.364519 0.183076
H29   H     H_    0.725122 0.154690 0.178224 0.141945
H30   H     H_    0.085080 0.309366 0.595894 0.097869
H31   H     H_    0.916455 0.694469 0.403505 0.108764
H32   H     H_    0.072453 0.522583 0.260232 0.107509
H33   H     H_    0.847720 0.337735 0.271288 0.262396
H34   H     H_    0.965290 0.152286 0.233055 0.129523
H35   H     H_    0.075941 0.199152 0.363907 0.156567
N1    N     N_2   0.498620 0.498660 0.846910 -0.370333
N2    N     N_2   0.498590 0.498630 0.153040 -0.325343
N3    N     N_2   0.914129 0.310077 0.342773 -0.525118
N4    N     N_2   0.337710 0.354032 0.141549 -0.435511
N5    N     N_2   0.919565 0.478158 0.770077 -0.494858
N6    N     N_2   0.091804 0.697541 0.653621 -0.508439
N7    N     N_2   0.372313 0.885800 0.309158 -0.511443
N8    N     N_2   0.617631 0.912307 0.588587 -0.559392
N9    N     N_2   0.553197 0.109226 0.265834 -0.472269
O1    O     O_R   0.500020 0.321960 0.617040 -0.506403
O2    O     O_R   0.499980 0.321920 0.382900 -0.418264
O3    O     O_R   0.316870 0.499990 0.617050 -0.517000
O4    O     O_R   0.316830 0.499950 0.382910 -0.496361
O5    O     O_R   0.500020 0.678080 0.617100 -0.497519
O6    O     O_R   0.499980 0.678040 0.382960 -0.496928
O7    O     O_R   0.683170 0.500050 0.617090 -0.493415
O8    O     O_R   0.683130 0.500010 0.382950 -0.514484

loop_
_geom_bond_atom_site_label_1
_geom_bond_atom_site_label_2
_ccdc_geom_bond_type
H4    N4    S    
Cu1   O1    S    
C13   H5    S    
C19   C20   S    
C11   H35   S    
C17   H24   S    
C6    C9    S    
C7    C8    S    
C25   H1    S    
Cu1   Cu2   S    
Cu1   O7    S    
Cu2   O8    S    
C14   H9    S    
C14   H11   S    
H23   N2    S    
C17   H25   S    
C25   N1    D    
C3    O3    A    
Cu2   O6    S    
C10   C20   S    
C8    C9    S    
Cu1   O5    S    
C14   N5    S    
C5    O8    A    
C3    O4    A    
C9    C10   S    
C18   H29   S    
C12   H31   S    
C17   N8    S    
C21   C22   D    
C6    H30   S    
Cu2   O4    S    
C16   H20   S    
C2    N2    D    
C13   N4    S    
C1    O1    A    
C23   N9    S    
H17   N7    S    
C15   H14   S    
C16   H19   S    
C11   H34   S    
C21   N7    S    
Cu1   N1    S    
C9    N5    S    
C13   H6    S    
C7    N3    S    
C4    C22   S    
H8    N5    S    
C8    C12   S    
C3    C20   S    
C10   C12   S    
C18   H28   S    
H33   N3    S    
C7    C19   S    
C21   C23   S    
C17   H22   S    
H26   N9    S    
H12   N1    S    
C19   H32   S    
C18   N9    S    
C16   N7    S    
C15   H15   S    
H21   N8    S    
C2    N4    S    
C16   H18   S    
C5    C8    S    
C6    C7    S    
C10   N6    S    
C6    C20   S    
C1    O2    A    
C15   H16   S    
C13   H7    S    
C14   H10   S    
C15   N6    S    
C12   C19   S    
Cu1   O3    S    
C2    C25   S    
C24   H3    S    
C4    O5    A    
Cu2   N2    S    
C18   H27   S    
C23   C24   D    
C4    O6    A    
C11   H2    S    
C1    C24   S    
H13   N6    S    
C5    O7    A    
Cu2   O2    S    
C22   N8    S    
C11   N3    S    
