data_mof_unit_67382.cif
_audit_creation_date              2013-03-05T16:11:00-0500
_audit_creation_method            fapswitch 2.2
_symmetry_space_group_name_H-M    P1
_symmetry_Int_Tables_number       1
_space_group_crystal_system       triclinic
_cell_length_a                    17.18104
_cell_length_b                    27.897451
_cell_length_c                    9.090683
_cell_angle_alpha                 89.334965
_cell_angle_beta                  105.3253
_cell_angle_gamma                 90.993065
_cell_volume                      4201.54770824

loop_
_atom_site_label
_atom_site_type_symbol
_atom_site_description
_atom_site_fract_x
_atom_site_fract_y
_atom_site_fract_z
_atom_type_partial_charge
P1    P     P_3+3 0.171820 0.553000 0.158080 0.429623
P2    P     P_3+3 0.171820 0.447000 0.658080 0.453193
P3    P     P_3+3 0.671820 0.053000 0.158080 0.426485
P4    P     P_3+3 0.671820 0.947000 0.658080 0.448777
O1    O     O_2   0.163830 0.569270 0.980510 -0.378781
O2    O     O_2   0.163830 0.430730 0.480510 -0.328496
O3    O     O_2   0.663830 0.069270 0.980510 -0.380837
O4    O     O_2   0.663830 0.930730 0.480510 -0.320992
O5    O     O_3   0.095420 0.524330 0.188510 -0.422226
O6    O     O_3   0.095420 0.475670 0.688510 -0.444383
O7    O     O_3   0.595420 0.024330 0.188510 -0.419764
O8    O     O_3   0.595420 0.975670 0.688510 -0.443680
O9    O     O_3   0.028940 0.612400 0.656050 -0.346257
O10   O     O_3   0.028940 0.387600 0.156050 -0.349752
O11   O     O_3   0.528940 0.112400 0.656050 -0.361057
O12   O     O_3   0.528940 0.887600 0.156050 -0.339097
O13   O     O_2   0.179803 0.635527 0.786907 -0.408159
O14   O     O_2   0.171347 0.361221 0.315442 -0.345287
O15   O     O_2   0.680143 0.135396 0.788157 -0.408650
O16   O     O_2   0.672844 0.862075 0.318410 -0.337042
O17   O     O_3   0.263202 0.521349 0.208400 -0.610948
O18   O     O_3   0.262580 0.480416 0.703829 -0.607057
O19   O     O_3   0.762725 0.021149 0.210213 -0.616026
O20   O     O_3   0.760332 0.982602 0.704373 -0.614077
O21   O     O_3   0.085663 0.708329 0.720024 -0.514240
O22   O     O_3   0.077178 0.290104 0.220525 -0.540547
O23   O     O_3   0.583928 0.207430 0.716020 -0.512182
O24   O     O_3   0.577121 0.791240 0.220025 -0.528264
C1    C     C_3   0.025223 0.780403 0.590199 -0.359315
C2    C     C_3   0.021027 0.222061 0.064955 -0.440200
C3    C     C_3   0.519797 0.281429 0.597965 -0.403507
C4    C     C_3   0.517619 0.718095 0.088948 -0.414178
P5    P     P_3+3 0.829210 0.554130 0.532500 0.613084
P6    P     P_3+3 0.829210 0.445870 0.032500 0.573320
P7    P     P_3+3 0.329210 0.054130 0.532500 0.604937
P8    P     P_3+3 0.329210 0.945870 0.032500 0.591750
P9    P     P_3+3 0.905406 0.659947 0.033219 0.534653
P10   P     P_3+3 0.899758 0.342929 0.537127 0.495197
P11   P     P_3+3 0.403565 0.159339 0.035105 0.536752
P12   P     P_3+3 0.406864 0.838132 0.554740 0.526041
O25   O     O_2   0.837400 0.570350 0.710350 -0.314146
O26   O     O_2   0.837400 0.429650 0.210350 -0.340353
O27   O     O_2   0.337400 0.070350 0.710350 -0.322785
O28   O     O_2   0.337400 0.929650 0.210350 -0.377486
O29   O     O_3   0.972820 0.612580 0.035550 -0.331841
O30   O     O_3   0.972820 0.387420 0.535550 -0.381928
O31   O     O_3   0.472820 0.112580 0.035550 -0.309770
O32   O     O_3   0.472820 0.887420 0.535550 -0.359464
O33   O     O_2   0.842549 0.651953 0.879646 -0.288315
O34   O     O_2   0.838785 0.350931 0.381533 -0.304591
O35   O     O_2   0.337813 0.148754 0.886645 -0.303612
O36   O     O_2   0.337707 0.841652 0.407483 -0.294995
O37   O     O_3   0.727307 0.527652 0.470648 -0.507026
O38   O     O_3   0.729156 0.473702 0.976928 -0.539485
O39   O     O_3   0.230021 0.023387 0.467429 -0.541784
O40   O     O_3   0.227869 0.973531 0.981100 -0.515664
O41   O     O_3   0.945927 0.716728 0.998173 -0.520000
O42   O     O_3   0.934765 0.285102 0.511894 -0.502103
O43   O     O_3   0.438118 0.216990 0.991107 -0.537724
O44   O     O_3   0.444535 0.781151 0.520308 -0.510253
C5    C     C_3   0.016280 0.732788 0.108846 0.361420
C6    C     C_3   0.006396 0.269976 0.620015 0.341920
C7    C     C_3   0.510375 0.234848 0.093175 0.354420
C8    C     C_3   0.519746 0.767460 0.620900 0.302297
C9    C     C_3   0.024655 0.788319 0.096630 -0.661766
C10   C     C_3   0.994800 0.215807 0.653774 -0.664974
C11   C     C_3   0.512177 0.290425 0.078537 -0.680325
C12   C     C_3   0.515888 0.713175 0.662238 -0.672151
H1    H     H_    0.053380 0.798107 0.005111 0.173008
H2    H     H_    0.039454 0.204658 0.759289 0.154670
H3    H     H_    0.516186 0.300649 0.963213 0.160636
H4    H     H_    0.570520 0.703035 0.751112 0.168411
C13   C     C_3   0.704773 0.522941 0.989643 0.103834
C14   C     C_3   0.698893 0.478452 0.482836 0.150204
C15   C     C_3   0.204804 0.023118 0.995205 0.090844
C16   C     C_3   0.207194 0.974805 0.501844 0.050132
C17   C     C_3   0.610085 0.529787 0.895688 -0.457892
C18   C     C_3   0.605425 0.470813 0.375024 -0.523752
C19   C     C_3   0.107499 0.032098 0.924152 -0.450709
C20   C     C_3   0.118571 0.958152 0.391640 -0.468689
Ba1   Ba    Ba6+2 0.000400 0.534870 0.845190 1.581050
Ba2   Ba    Ba6+2 0.000400 0.465130 0.345190 1.604124
Ba3   Ba    Ba6+2 0.500400 0.034870 0.845190 1.588575
Ba4   Ba    Ba6+2 0.500400 0.965130 0.345190 1.606497
C21   C     C_3   0.253460 0.471426 0.205762 0.374000
C22   C     C_3   0.250424 0.529906 0.706050 0.383199
C23   C     C_3   0.752447 0.971916 0.182319 0.357604
C24   C     C_3   0.743620 0.031714 0.687599 0.374658
H5    H     H_    0.198415 0.459799 0.239204 0.156753
H6    H     H_    0.204360 0.538362 0.766332 0.164640
H7    H     H_    0.695084 0.957690 0.201932 0.145679
H8    H     H_    0.700748 0.042070 0.753185 0.164318
C25   C     C_3   0.328330 0.449196 0.318914 -0.296190
C26   C     C_3   0.331486 0.553897 0.790980 -0.310742
C27   C     C_3   0.823631 0.945703 0.291125 -0.286107
C28   C     C_3   0.823801 0.060364 0.748144 -0.318146
H9    H     H_    0.382698 0.455871 0.275842 0.180681
H10   H     H_    0.379991 0.540861 0.741275 0.195266
H11   H     H_    0.881278 0.958062 0.267245 0.194082
H12   H     H_    0.873554 0.040985 0.717529 0.185260
O45   O     O_3   0.904940 0.476110 0.001150 -0.381411
O46   O     O_3   0.904940 0.523890 0.501150 -0.425211
O47   O     O_3   0.404940 0.976110 0.001150 -0.360912
O48   O     O_3   0.404940 0.023890 0.501150 -0.398889
P13   P     P_3+3 0.107493 0.347058 0.168580 0.471866
P14   P     P_3+3 0.109672 0.652698 0.654209 0.459053
P15   P     P_3+3 0.609270 0.848034 0.170880 0.486272
P16   P     P_3+3 0.609776 0.151847 0.654431 0.452008
C29   C     C_3   0.014068 0.726406 0.620220 0.363903
C30   C     C_3   0.005966 0.272858 0.116863 0.303518
C31   C     C_3   0.513029 0.225462 0.612453 0.378887
C32   C     C_3   0.509975 0.773309 0.106974 0.398453
H13   H     H_    0.999090 0.708219 0.509768 -0.073604
H14   H     H_    0.986811 0.296004 0.013949 0.022416
H15   H     H_    0.505931 0.210922 0.498667 -0.044585
H16   H     H_    0.506937 0.790104 0.996745 -0.057806
H17   H     H_    0.075969 0.784087 0.536922 0.194600
H18   H     H_    0.069788 0.226200 0.008173 0.184195
H19   H     H_    0.522455 0.289168 0.479503 0.213420
H20   H     H_    0.507268 0.711777 0.965983 0.162475
H21   H     H_    0.066377 0.802764 0.202577 0.173834
H22   H     H_    0.933999 0.211458 0.673546 0.189702
H23   H     H_    0.567012 0.305601 0.159008 0.172121
H24   H     H_    0.465995 0.708098 0.715212 0.169841
C33   C     C_2   0.870480 0.381538 0.808158 -0.244268
C34   C     C_2   0.874952 0.620199 0.301265 -0.313583
C35   C     C_2   0.374999 0.875581 0.824895 -0.240228
C36   C     C_2   0.373076 0.120832 0.302920 -0.269597
C37   C     C_R   0.136331 0.620242 0.375701 -0.473905
C38   C     C_R   0.143719 0.386245 0.903405 -0.562245
C39   C     C_R   0.634254 0.121251 0.372511 -0.483530
C40   C     C_R   0.648298 0.887665 0.910057 -0.566529
C41   C     C_2   0.766653 0.351223 0.928206 -0.294318
C42   C     C_2   0.777607 0.649861 0.435426 -0.145240
C43   C     C_2   0.255962 0.856807 0.918733 -0.432346
C44   C     C_2   0.260531 0.142532 0.411000 -0.193927
C45   C     C_2   0.824060 0.387446 0.924525 0.381155
C46   C     C_2   0.830266 0.612974 0.423878 0.331986
C47   C     C_2   0.321435 0.887473 0.924785 0.287519
C48   C     C_2   0.325617 0.112152 0.419740 0.313948
C49   C     C_2   0.846562 0.347973 0.693575 0.158022
C50   C     C_2   0.852135 0.655323 0.191814 0.227332
C51   C     C_2   0.353566 0.840478 0.714980 0.160901
C52   C     C_2   0.352246 0.156566 0.196052 0.203742
C53   C     C_3   0.775322 0.318637 0.691424 0.008525
C54   C     C_3   0.782823 0.684247 0.195932 -0.022136
C55   C     C_3   0.278118 0.812921 0.700751 0.029499
C56   C     C_3   0.295860 0.192787 0.217577 -0.021403
C57   C     C_3   0.765519 0.307909 0.843211 0.042178
C58   C     C_3   0.777583 0.693692 0.350987 -0.093790
C59   C     C_3   0.246017 0.813330 0.835168 0.192776
C60   C     C_3   0.232499 0.173683 0.282246 0.085800
C61   C     C_2   0.747458 0.280091 0.567830 0.081478
C62   C     C_2   0.754811 0.724106 0.075514 0.036607
C63   C     C_2   0.279613 0.760350 0.656509 0.045831
C64   C     C_2   0.260036 0.226908 0.085230 0.014590
C65   C     C_2   0.223042 0.743324 0.533307 -0.117672
C66   C     C_2   0.246353 0.273273 0.114348 -0.120055
C67   C     C_2   0.743543 0.232095 0.599159 -0.173411
C68   C     C_2   0.742577 0.770392 0.112587 -0.059874
C69   C     C_R   0.267532 0.682506 0.372993 0.330502
C70   C     C_R   0.248284 0.313820 0.860427 0.017304
C71   C     C_R   0.760413 0.186501 0.364786 0.265657
C72   C     C_R   0.754520 0.815610 0.869587 0.055685
C73   C     C_R   0.218482 0.692807 0.478275 -0.136269
C74   C     C_R   0.214771 0.310150 0.993698 -0.084639
C75   C     C_R   0.715401 0.193886 0.480020 -0.138831
C76   C     C_R   0.718573 0.810924 0.999904 -0.060587
C77   C     C_R   0.251248 0.640357 0.272754 -0.179535
C78   C     C_R   0.233190 0.355840 0.756861 -0.064174
C79   C     C_R   0.746182 0.143681 0.265195 -0.166440
C80   C     C_R   0.736757 0.856668 0.761982 -0.135432
C81   C     C_R   0.187129 0.610903 0.268990 0.271594
C82   C     C_R   0.182475 0.390167 0.774321 0.351354
C83   C     C_R   0.685168 0.112114 0.266178 0.280664
C84   C     C_R   0.685557 0.890924 0.778785 0.360959
C85   C     C_R   0.153106 0.657183 0.484807 0.158855
C86   C     C_R   0.159132 0.348601 0.011450 0.171227
C87   C     C_R   0.652845 0.156686 0.486368 0.186548
C88   C     C_R   0.662355 0.849473 0.016279 0.160624
H25   H     H_    0.724642 0.355162 0.997722 0.183083
H26   H     H_    0.737417 0.645698 0.508988 0.203217
H27   H     H_    0.213693 0.864581 0.985029 0.202415
H28   H     H_    0.220916 0.135617 0.484350 0.215941
H29   H     H_    0.094624 0.592408 0.386257 0.155012
H30   H     H_    0.107920 0.415869 0.921928 0.173759
H31   H     H_    0.590141 0.094437 0.377461 0.152287
H32   H     H_    0.611013 0.916848 0.926604 0.171139
H33   H     H_    0.185735 0.769156 0.457778 0.156578
H34   H     H_    0.259538 0.284663 0.232361 0.179698
H35   H     H_    0.762182 0.220083 0.717059 0.167106
H36   H     H_    0.752348 0.779594 0.231762 0.151570
C89   C     C_2   0.941565 0.715765 0.678396 1.042352
O49   O     O_2   0.922953 0.674040 0.692356 -0.555777
O50   O     O_R   0.891709 0.752240 0.703506 -0.826529
H37   H     H_    0.841660 0.739487 0.730748 0.350283
C90   C     C_2   0.937066 0.271467 0.189539 1.047974
O51   O     O_2   0.926738 0.237363 0.267730 -0.656437
O52   O     O_R   0.879926 0.307021 0.154734 -0.777260
H38   H     H_    0.828081 0.296306 0.179435 0.349432
C91   C     C_2   0.437706 0.207141 0.650784 0.929570
O53   O     O_2   0.442263 0.173707 0.738982 -0.474805
O54   O     O_R   0.361945 0.224926 0.575772 -0.875808
H39   H     H_    0.317576 0.211730 0.619967 0.338339
C92   C     C_2   0.431722 0.787797 0.136641 0.940690
O55   O     O_2   0.368506 0.767183 0.074202 -0.666990
O56   O     O_R   0.429986 0.828581 0.220438 -0.652575
H40   H     H_    0.375168 0.843538 0.187329 0.351108
N1    N     N_3   0.565933 0.485049 0.907631 -0.172903
H41   H     H_    0.503494 0.489584 0.867382 0.153775
H42   H     H_    0.580133 0.458864 0.838817 0.184340
N2    N     N_3   0.562521 0.516517 0.338251 -0.191250
H43   H     H_    0.599466 0.545617 0.329998 0.236405
H44   H     H_    0.526592 0.525343 0.409072 0.181420
N3    N     N_3   0.064261 0.993416 0.981275 -0.187519
H45   H     H_    0.001910 0.998909 0.950093 0.147512
H46   H     H_    0.073153 0.961510 0.929273 0.224781
N4    N     N_3   0.064926 0.999130 0.352813 -0.188728
H47   H     H_    0.084970 0.022656 0.280695 0.209554
H48   H     H_    0.067577 0.017652 0.451750 0.192684
C93   C     C_2   0.569598 0.570158 0.958359 1.054102
O57   O     O_2   0.531448 0.561722 0.051751 -0.694229
O58   O     O_R   0.570933 0.616563 0.899808 -0.804720
H49   H     H_    0.526458 0.636507 0.919522 0.291324
C94   C     C_2   0.554833 0.437103 0.448416 1.082994
O59   O     O_2   0.520887 0.452138 0.540470 -0.693591
O60   O     O_R   0.548926 0.388242 0.413714 -0.779490
H50   H     H_    0.509001 0.371115 0.460352 0.319478
C95   C     C_2   0.081717 0.080125 0.973934 1.024758
O61   O     O_2   0.031375 0.082170 0.046914 -0.691540
O62   O     O_R   0.118531 0.122133 0.939383 -0.752882
H51   H     H_    0.104234 0.150920 0.991097 0.317441
C96   C     C_2   0.074987 0.919514 0.462473 1.137006
O63   O     O_2   0.101805 0.878998 0.485417 -0.687630
O64   O     O_R   0.003858 0.930086 0.501047 -0.769406
H52   H     H_    0.985054 0.902807 0.558358 0.300474
C97   C     C_2   0.589880 0.543000 0.725791 1.072670
O65   O     O_2   0.518668 0.543362 0.654300 -0.692126
O66   O     O_R   0.646827 0.561893 0.656471 -0.728830
H53   H     H_    0.621796 0.580649 0.560259 0.341590
C98   C     C_2   0.594985 0.448103 0.218776 1.135348
O67   O     O_2   0.651630 0.438151 0.168427 -0.599241
O68   O     O_R   0.516511 0.436445 0.133103 -0.814033
H54   H     H_    0.515883 0.416119 0.041176 0.334969
C99   C     C_2   0.072778 0.035394 0.750574 1.053139
O69   O     O_2   0.019830 0.007157 0.685901 -0.646404
O70   O     O_R   0.089138 0.075370 0.668967 -0.717710
H55   H     H_    0.047479 0.079898 0.568154 0.309785
C100  C     C_2   0.119838 0.934821 0.241784 1.036384
O71   O     O_2   0.181226 0.932806 0.200042 -0.622446
O72   O     O_R   0.049601 0.912510 0.154087 -0.821913
H56   H     H_    0.060074 0.894326 0.065557 0.328420
N5    N     N_3   0.248323 0.454866 0.052424 -0.244848
H57   H     H_    0.304760 0.456059 0.029941 0.110129
H58   H     H_    0.210795 0.477784 0.974528 0.148555
N6    N     N_3   0.224286 0.548234 0.550894 -0.229415
H59   H     H_    0.271157 0.546485 0.498364 0.110943
H60   H     H_    0.176382 0.527335 0.487874 0.147100
N7    N     N_3   0.753799 0.963117 0.025926 -0.238394
H61   H     H_    0.810206 0.972556 0.010995 0.116653
H62   H     H_    0.711076 0.985063 0.955364 0.155980
N8    N     N_3   0.708549 0.042813 0.528173 -0.229376
H63   H     H_    0.743406 0.027271 0.465035 0.144412
H64   H     H_    0.650390 0.028172 0.492857 0.144114
N9    N     N_3   0.317082 0.397487 0.333469 -0.162599
H65   H     H_    0.305979 0.381882 0.226243 0.129007
H66   H     H_    0.371149 0.383105 0.398190 0.137433
N10   N     N_3   0.327968 0.606140 0.773882 -0.177782
H67   H     H_    0.323572 0.614863 0.659919 0.149957
H68   H     H_    0.383348 0.620854 0.834511 0.121592
N11   N     N_3   0.814674 0.893985 0.266703 -0.172040
H69   H     H_    0.821336 0.886814 0.158398 0.134755
H70   H     H_    0.862680 0.877028 0.342643 0.149716
N12   N     N_3   0.819097 0.108441 0.679448 -0.181023
H71   H     H_    0.818023 0.104771 0.564728 0.144415
H72   H     H_    0.873306 0.126810 0.726213 0.124134
N13   N     N_3   0.341798 0.471425 0.468524 -0.146290
H73   H     H_    0.375276 0.448803 0.553535 0.190375
H74   H     H_    0.377419 0.502289 0.469778 0.177719
N14   N     N_3   0.350184 0.540432 0.952659 -0.168987
H75   H     H_    0.383393 0.567592 0.020290 0.164978
H76   H     H_    0.387979 0.510782 0.969661 0.169977
N15   N     N_3   0.826300 0.956909 0.449291 -0.133661
H77   H     H_    0.855153 0.929961 0.523139 0.166933
H78   H     H_    0.861974 0.987827 0.480057 0.179481
N16   N     N_3   0.841540 0.063935 0.914628 -0.171416
H79   H     H_    0.875394 0.094972 0.952676 0.152241
H80   H     H_    0.878803 0.035613 0.963084 0.142599
N17   N     N_3   0.952579 0.800522 0.486652 -0.206271
H81   H     H_    0.923629 0.774761 0.407641 0.158751
H82   H     H_    0.970899 0.828275 0.425025 0.176776
N18   N     N_3   0.948993 0.202623 0.955610 -0.233505
H83   H     H_    0.902296 0.196798 0.007897 0.141676
H84   H     H_    0.963062 0.168883 0.922194 0.148291
N19   N     N_3   0.452124 0.308397 0.623929 -0.226524
H85   H     H_    0.402247 0.305115 0.529361 0.185672
H86   H     H_    0.437042 0.296380 0.722131 0.150737
N20   N     N_3   0.456968 0.689568 0.139979 -0.183456
H87   H     H_    0.460091 0.698252 0.252412 0.167985
H88   H     H_    0.469044 0.653056 0.136383 0.144775
N21   N     N_3   0.306417 0.632196 0.182567 -0.198712
H89   H     H_    0.275411 0.631690 0.067326 0.176730
H90   H     H_    0.333982 0.599275 0.213779 0.144248
N22   N     N_3   0.277127 0.360961 0.644169 -0.153939
H91   H     H_    0.269666 0.329377 0.581155 0.145062
H92   H     H_    0.338241 0.364502 0.701036 0.139475
N23   N     N_3   0.801339 0.136431 0.174227 -0.181901
H93   H     H_    0.770038 0.136659 0.059333 0.163349
H94   H     H_    0.828545 0.103180 0.201718 0.155636
N24   N     N_3   0.776489 0.860031 0.642346 -0.153989
H95   H     H_    0.765597 0.828124 0.581034 0.165583
H96   H     H_    0.838577 0.862337 0.691516 0.151210
N25   N     N_3   0.943682 0.408669 0.831419 -0.151137
H97   H     H_    0.989530 0.384238 0.849610 0.082565
H98   H     H_    0.944018 0.430924 0.739342 0.215974
N26   N     N_3   0.945592 0.593367 0.305746 -0.185791
H99   H     H_    0.930643 0.559118 0.264339 0.185224
H100  H     H_    0.976544 0.588805 0.418077 0.144877
N27   N     N_3   0.450718 0.900383 0.853731 -0.149905
H101  H     H_    0.494469 0.874372 0.870540 0.071750
H102  H     H_    0.454271 0.922351 0.762819 0.211168
N28   N     N_3   0.441495 0.092331 0.303904 -0.183375
H103  H     H_    0.424324 0.058053 0.264394 0.246367
H104  H     H_    0.474504 0.088584 0.415592 0.130313
N29   N     N_3   0.710911 0.298228 0.417682 -0.127217
H105  H     H_    0.648999 0.300159 0.405008 0.137571
H106  H     H_    0.722293 0.276331 0.333894 0.156046
N30   N     N_3   0.729347 0.708212 0.919997 -0.145760
H107  H     H_    0.689179 0.679599 0.917327 0.202862
H108  H     H_    0.696198 0.733590 0.846499 0.116982
N31   N     N_3   0.328425 0.727917 0.764913 -0.200700
H109  H     H_    0.342045 0.698519 0.707449 0.112849
H110  H     H_    0.292887 0.714594 0.833854 0.194352
N32   N     N_3   0.230420 0.208009 0.934192 -0.129305
H111  H     H_    0.170471 0.217676 0.890270 0.131311
H112  H     H_    0.263341 0.223622 0.864305 0.188077
N33   N     N_3   0.046627 0.807067 0.733004 -0.178616
H113  H     H_    0.994100 0.819870 0.754895 0.205998
H114  H     H_    0.080268 0.837517 0.719383 0.155432
N34   N     N_3   0.050263 0.188121 0.191396 -0.171684
H115  H     H_    0.084417 0.205945 0.287711 0.219659
H116  H     H_    0.002470 0.169697 0.218412 0.201996
N35   N     N_3   0.594997 0.300041 0.697237 -0.163644
H117  H     H_    0.594866 0.294448 0.810638 0.182850
H118  H     H_    0.597923 0.337103 0.681183 0.186886
N36   N     N_3   0.598978 0.701903 0.165450 -0.183606
H119  H     H_    0.608631 0.705782 0.282703 0.234382
H120  H     H_    0.603659 0.665345 0.147083 0.182419
C101  C     C_2   0.091075 0.711778 0.079454 0.927540
O73   O     O_2   0.156645 0.732008 0.126378 -0.658780
O74   O     O_R   0.085672 0.669454 0.999075 -0.671483
H121  H     H_    0.140833 0.658067 0.999609 0.357740
C102  C     C_2   0.078800 0.280285 0.557975 0.961416
O75   O     O_2   0.084332 0.319363 0.499744 -0.536139
O76   O     O_R   0.142918 0.248495 0.581619 -0.813529
H122  H     H_    0.186410 0.259786 0.532156 0.328820
C103  C     C_2   0.583851 0.216008 0.051508 0.944978
O77   O     O_2   0.644423 0.241133 0.064204 -0.706590
O78   O     O_R   0.583922 0.168976 0.005010 -0.672018
H123  H     H_    0.638617 0.159855 0.995982 0.357814
C104  C     C_2   0.587488 0.779117 0.548360 0.987038
O79   O     O_2   0.593060 0.819859 0.501796 -0.527838
O80   O     O_R   0.647544 0.746055 0.547643 -0.816029
H124  H     H_    0.689419 0.759062 0.496826 0.323938
N37   N     N_3   0.012277 0.720797 0.262881 -0.215022
H125  H     H_    0.063524 0.735177 0.338391 0.048010
H126  H     H_    0.017943 0.683917 0.280447 0.066101
N38   N     N_3   0.019296 0.295002 0.764640 -0.228470
H127  H     H_    0.038547 0.329571 0.748601 0.092821
H128  H     H_    0.069692 0.280486 0.840353 0.036419
N39   N     N_3   0.514935 0.222301 0.251068 -0.200487
H129  H     H_    0.567731 0.237508 0.319931 0.039021
H130  H     H_    0.522856 0.185526 0.267425 0.072063
N40   N     N_3   0.536080 0.793240 0.764101 -0.232230
H131  H     H_    0.554693 0.827949 0.746836 0.095194
H132  H     H_    0.584715 0.777521 0.841698 0.046161
C105  C     C_2   0.947605 0.815079 0.069210 1.216546
O81   O     O_2   0.902353 0.807754 0.150008 -0.710471
O82   O     O_R   0.930991 0.850983 0.957714 -0.833519
H133  H     H_    0.886194 0.872744 0.967672 0.308537
C106  C     C_2   0.000499 0.179766 0.536311 1.208186
O83   O     O_2   0.066368 0.168368 0.522068 -0.615044
O84   O     O_R   0.931451 0.154546 0.458567 -0.820917
H134  H     H_    0.944089 0.127750 0.394654 0.293220
C107  C     C_2   0.441438 0.315689 0.106151 1.200308
O85   O     O_2   0.419123 0.307466 0.220913 -0.695948
O86   O     O_R   0.406153 0.351991 0.004830 -0.833317
H135  H     H_    0.365615 0.371061 0.041612 0.307226
C108  C     C_2   0.505096 0.676496 0.539287 1.171883
O87   O     O_2   0.561379 0.666558 0.487322 -0.662188
O88   O     O_R   0.434244 0.648948 0.500227 -0.835668
H136  H     H_    0.437877 0.621540 0.430323 0.312608
C109  C     C_2   0.717615 0.533254 0.153339 0.917483
O89   O     O_2   0.695550 0.570534 0.197642 -0.687465
O90   O     O_R   0.773563 0.506108 0.252400 -0.727391
H137  H     H_    0.829297 0.513589 0.243322 0.321570
C110  C     C_2   0.706227 0.467257 0.644750 0.891323
O91   O     O_2   0.756908 0.489561 0.737352 -0.575253
O92   O     O_R   0.674618 0.423830 0.684552 -0.857165
H138  H     H_    0.678429 0.418860 0.795161 0.332005
C111  C     C_2   0.227621 0.034238 0.158844 0.914088
O93   O     O_2   0.193307 0.063933 0.214823 -0.659067
O94   O     O_R   0.301286 0.018367 0.239084 -0.737289
H139  H     H_    0.292615 0.991245 0.303692 0.348108
C112  C     C_2   0.209669 0.974657 0.663309 0.934486
O95   O     O_2   0.272341 0.988340 0.748900 -0.595819
O96   O     O_R   0.149875 0.953256 0.719754 -0.801795
H140  H     H_    0.166485 0.921026 0.767540 0.307558
C113  C     C_2   0.759853 0.558882 0.950153 1.046290
O97   O     O_2   0.734012 0.596194 0.887416 -0.570648
O98   O     O_R   0.840599 0.554956 0.023026 -0.838620
H141  H     H_    0.875950 0.558934 0.953803 0.408707
C114  C     C_2   0.754681 0.441365 0.457570 1.071694
O99   O     O_2   0.728905 0.401836 0.411297 -0.591313
O100  O     O_R   0.835400 0.447736 0.528732 -0.791579
H142  H     H_    0.870115 0.438108 0.462941 0.389701
C115  C     C_2   0.256436 0.057127 0.936614 1.068760
O101  O     O_2   0.228856 0.084249 0.830963 -0.505300
O102  O     O_R   0.337177 0.059777 0.015637 -0.786937
H143  H     H_    0.375349 0.056387 0.951770 0.404317
C116  C     C_2   0.267473 0.937248 0.499439 0.875262
O103  O     O_2   0.245047 0.896137 0.470389 -0.583098
O104  O     O_R   0.348197 0.946919 0.556607 -0.758564
H144  H     H_    0.375905 0.940274 0.475560 0.381439

loop_
_geom_bond_atom_site_label_1
_geom_bond_atom_site_label_2
_geom_bond_distance
_ccdc_geom_bond_type
N28   H104  1.028908 S    
C41   C45   1.406128 A    
C103  O77   1.225047 D    
C23   H7    1.112786 S    
C6    C102  1.517547 S    
C50   C54   1.458843 A    
O58   H49   1.007486 S    
P6    O26   1.644229 D    
C44   C48   1.399780 A    
C40   H32   1.080571 S    
C34   N26   1.428145 S    
N33   H113  1.043744 S    
C16   C116  1.490290 S    
N21   H89   1.042388 S    
C38   C82   1.496621 S    
C43   C47   1.391148 A    
C13   C109  1.476525 S    
C1    C29   1.545474 S    
C14   C110  1.473970 S    
C37   H29   1.068148 S    
C110  O92   1.401600 S    
C27   H11   1.116706 S    
C56   C60   1.457943 A    
N11   H69   1.042804 S    
C61   N29   1.433630 S    
O12   Ba4   2.905795 S    
N12   H71   1.044349 S    
C90   O52   1.382022 S    
C54   C58   1.463183 A    
O66   H53   1.010981 S    
P2    O18   1.757653 S    
C10   H22   1.110238 S    
O31   Ba3   2.911211 S    
P4    O8    1.634841 S    
C55   C63   1.527693 S    
P14   C85   1.882508 S    
C25   N13   1.461557 S    
C49   C53   1.456454 A    
O15   P16   1.542558 D    
O52   H38   1.013982 S    
C114  O100  1.375971 S    
C99   O69   1.223495 D    
C30   C90   1.500184 S    
C37   C81   1.493960 S    
O22   P13   1.761464 S    
N38   H127  1.035304 S    
C102  O76   1.396636 S    
N24   H96   1.043122 S    
P9    C50   1.903166 S    
P5    O46   1.650897 S    
C72   C76   1.477272 S    
N34   H115  1.042415 S    
P7    O48   1.650897 S    
C22   H6    1.105010 S    
C23   N7    1.451838 S    
C76   C88   1.492429 S    
N26   H99   1.034064 S    
O11   P16   1.759987 S    
N3    H45   1.046688 S    
C95   O61   1.223693 D    
O60   H50   1.008079 S    
P4    Ba4   3.551119 S    
C12   H4    1.103103 S    
C5    N37   1.454871 S    
C35   C51   1.381560 D    
C15   C111  1.470057 S    
C36   C52   1.368133 D    
C33   N25   1.424600 S    
N10   H68   1.045045 S    
P6    O38   1.841535 S    
C27   N15   1.463665 S    
P3    Ba3   3.545981 S    
C106  O83   1.220448 D    
P8    O28   1.644229 D    
N20   H87   1.040459 S    
P9    O29   1.768487 S    
O84   H134  1.012893 S    
C18   N2    1.474185 S    
P11   O31   1.780034 S    
C78   C82   1.344267 D    
P12   O32   1.802817 S    
O29   Ba1   2.911211 S    
O9    P14   1.773645 S    
N7    H62   1.040508 S    
C11   H23   1.109526 S    
O41   C5    1.422267 S    
C9    C105  1.492452 S    
O7    Ba4   2.915908 S    
C109  O89   1.221309 D    
O43   C7    1.425035 S    
O44   C8    1.426980 S    
C64   C66   1.360053 D    
C7    N39   1.455592 S    
N37   H125  1.040217 S    
N16   H80   1.043336 S    
C10   H2    1.103520 S    
C1    H17   1.106454 S    
O23   P16   1.758029 S    
N18   H84   1.044047 S    
C67   C75   1.508352 S    
C68   C76   1.504622 S    
P3    O7    1.609241 S    
C26   N14   1.465029 S    
O50   H37   1.013526 S    
C5    C9    1.558750 S    
N2    H43   1.036100 S    
O82   H133  1.011636 S    
C89   O49   1.215904 D    
O78   H123  1.002037 S    
C13   C17   1.638623 S    
C98   O68   1.402060 S    
C113  O97   1.214205 D    
C112  O95   1.208439 D    
C15   C19   1.647668 S    
C69   C73   1.466260 S    
O68   H54   1.012923 S    
C107  O86   1.394984 S    
C39   H31   1.064714 S    
O3    Ba3   2.902875 S    
N27   H102  1.037284 S    
C1    N33   1.460969 S    
C116  O103  1.213049 D    
P12   O44   1.788313 S    
O27   Ba3   2.928897 S    
O102  H143  0.990372 S    
C43   H27   1.085129 S    
C31   C91   1.506239 S    
C111  O93   1.215785 D    
C24   N8    1.447005 S    
N19   H86   1.043449 S    
Ba1   O45   2.910190 S    
P1    C81   1.891546 S    
C100  O71   1.213951 D    
Ba3   O47   2.910190 S    
C8    C12   1.560617 S    
C32   C92   1.502233 S    
C66   H34   1.086366 S    
N5    H57   1.042389 S    
C43   C59   1.422341 A    
N25   H98   1.037557 S    
C22   N6    1.452221 S    
O92   H138  0.998420 S    
C80   N24   1.430201 S    
C98   O67   1.217168 D    
N29   H106  1.041763 S    
C77   N21   1.430047 S    
N40   H131  1.037668 S    
C19   C95   1.528670 S    
O30   Ba2   2.868757 S    
C21   C25   1.552672 S    
O10   P13   1.755652 S    
C33   C49   1.383369 D    
C23   C27   1.543907 S    
C29   C89   1.500437 S    
P7    O27   1.653193 D    
C96   O63   1.222751 D    
C30   H14   1.109564 S    
C7    C103  1.514508 S    
C69   C77   1.473092 S    
N22   H92   1.044121 S    
O23   C31   1.423833 S    
O40   C15   1.461871 S    
P10   O42   1.769749 S    
C97   O65   1.224499 D    
C91   O54   1.396717 S    
C16   C112  1.457126 S    
C42   H26   1.084894 S    
C115  O102  1.384486 S    
N17   H81   1.044273 S    
C92   O56   1.381665 S    
C18   C98   1.527542 S    
C6    C10   1.558422 S    
C6    N38   1.458423 S    
N14   H75   1.043074 S    
C65   C73   1.494783 S    
C4    N20   1.467188 S    
N32   H111  1.040556 S    
C2    H18   1.097936 S    
P16   C87   1.867974 S    
C55   C59   1.467732 A    
C93   O57   1.220645 D    
N31   H110  1.045340 S    
N36   H120  1.043260 S    
Ba3   Ba4   4.964944 S    
O80   H124  1.012645 S    
N1    H41   1.047319 S    
Ba2   O46   2.960321 S    
C8    C104  1.510911 S    
N9    H66   1.043355 S    
P9    O33   1.538503 D    
C40   C88   1.409886 A    
C41   H25   1.085304 S    
N35   H118  1.044700 S    
P4    C84   1.882299 S    
Ba4   O48   2.960321 S    
P10   C49   1.890506 S    
C72   C80   1.479968 S    
C25   H9    1.116307 S    
C32   H16   1.090251 S    
C62   N30   1.437912 S    
C108  O88   1.394276 S    
C16   C20   1.648607 S    
N30   H107  1.042369 S    
N8    H63   1.035637 S    
C97   O66   1.390143 S    
C36   C48   1.515317 S    
C78   N22   1.428767 S    
O13   P14   1.541022 D    
C11   C107  1.493978 S    
C28   H12   1.116106 S    
C94   O60   1.398618 S    
N12   H72   1.044042 S    
C90   O51   1.219433 D    
P8    C47   1.895018 S    
P9    O41   1.778392 S    
P10   O30   1.752590 S    
P11   C52   1.897650 S    
P12   C51   1.916810 S    
N15   H77   1.042536 S    
C3    C31   1.570248 S    
P6    Ba2   3.546961 S    
C80   C84   1.346841 D    
O42   C6    1.423984 S    
C75   C87   1.492717 S    
C24   C28   1.552667 S    
C114  O99   1.218427 D    
C63   C65   1.358524 D    
P11   O35   1.541613 D    
O37   C14   1.461626 S    
N35   H117  1.041428 S    
N38   H128  1.038317 S    
C102  O75   1.219556 D    
O72   H56   1.013212 S    
O24   C32   1.415108 S    
C104  O80   1.397172 S    
C101  O73   1.224391 D    
C2    C30   1.546140 S    
P8    O47   1.624255 S    
P1    O1    1.642750 D    
C19   C99   1.534660 S    
N34   H116  1.042986 S    
P3    O3    1.642750 D    
P4    O20   1.759331 S    
C25   N9    1.461233 S    
C26   H10   1.115475 S    
P1    Ba1   3.545981 S    
N39   H129  1.042742 S    
O9    Ba1   2.863124 S    
C73   C85   1.499349 S    
N26   H100  1.026674 S    
C40   C84   1.497138 S    
C38   C86   1.409229 A    
O12   P15   1.758522 S    
C44   C60   1.431825 A    
C70   C74   1.474322 S    
C35   N27   1.425710 S    
O74   H121  1.003539 S    
C28   N16   1.466963 S    
O64   H52   1.013013 S    
C74   C86   1.487152 S    
C9    H21   1.112609 S    
C71   C79   1.484707 S    
C10   C106  1.498115 S    
P4    O4    1.651765 D    
O5    Ba2   2.915908 S    
C18   C94   1.532559 S    
N28   H103  1.035691 S    
C103  O78   1.383253 S    
C17   C97   1.532840 S    
N20   H88   1.045637 S    
N33   H114  1.043736 S    
C3    N19   1.467328 S    
O21   P14   1.763788 S    
Ba1   Ba2   4.964944 S    
N21   H90   1.042255 S    
C2    N34   1.468352 S    
O17   C21   1.399601 S    
P6    O45   1.624255 S    
O56   H40   1.006284 S    
C67   H35   1.085147 S    
P1    O5    1.609241 S    
C68   H36   1.084723 S    
C13   C113  1.472440 S    
N19   H85   1.044746 S    
C21   H5    1.109536 S    
O11   Ba3   2.863124 S    
C33   C45   1.495610 S    
C37   C85   1.411110 A    
C34   C50   1.374162 D    
N23   H93   1.040773 S    
O8    Ba3   2.966253 S    
N31   H109  1.039935 S    
P8    O40   1.858382 S    
P7    C48   1.898989 S    
O38   C13   1.457722 S    
C64   N32   1.435389 S    
C70   C78   1.477735 S    
P5    C46   1.908142 S    
O25   Ba1   2.928897 S    
C44   H28   1.085110 S    
O20   C24   1.403043 S    
C3    H19   1.108451 S    
P3    C83   1.908745 S    
C12   C108  1.497043 S    
N2    H44   1.036925 S    
C99   O70   1.397601 S    
P2    Ba2   3.551119 S    
O10   Ba2   2.905795 S    
C1    N17   1.466239 S    
C8    N40   1.453378 S    
C66   C74   1.494765 S    
C107  O85   1.221000 D    
N24   H95   1.043356 S    
P7    Ba3   3.552403 S    
C4    C32   1.562369 S    
O4    Ba4   2.925522 S    
C20   C96   1.532320 S    
C4    N36   1.463685 S    
O28   Ba4   2.905618 S    
O90   H137  1.000857 S    
C27   N11   1.461598 S    
C26   N10   1.464498 S    
O6    Ba1   2.966253 S    
N4    H48   1.032631 S    
P5    O25   1.653193 D    
N37   H126  1.041600 S    
C95   O62   1.393865 S    
N25   H97   1.029322 S    
C9    H1    1.103363 S    
C39   C83   1.491652 S    
C11   H3    1.102613 S    
O18   C22   1.401094 S    
N29   H105  1.041504 S    
N40   H132  1.040238 S    
C3    N35   1.457606 S    
N27   H101  1.034691 S    
N10   H67   1.044819 S    
C14   C18   1.657062 S    
O98   H141  0.987569 S    
C106  O84   1.393302 S    
C56   C64   1.527994 S    
C110  O91   1.208272 D    
C53   C57   1.460631 A    
O54   H39   1.013288 S    
P1    O17   1.764349 S    
O2    Ba2   2.925522 S    
P15   C88   1.866455 S    
N15   H78   1.046189 S    
C91   O53   1.212823 D    
P3    O19   1.760848 S    
O94   H139  0.985729 S    
O26   Ba2   2.905618 S    
P13   C86   1.869895 S    
C52   C56   1.461683 A    
C12   H24   1.095073 S    
C115  O101  1.214271 D    
N36   H119  1.041153 S    
O88   H136  1.013037 S    
C92   O55   1.221727 D    
C51   C55   1.472140 A    
C109  O90   1.363932 S    
C79   N23   1.430947 S    
N18   H83   1.044649 S    
N14   H76   1.045171 S    
N3    H46   1.044862 S    
C20   N4    1.461553 S    
N16   H79   1.044425 S    
N32   H112  1.043194 S    
C112  O96   1.387606 S    
O24   P15   1.760297 S    
C42   C58   1.436108 A    
O1    Ba1   2.902875 S    
C22   C26   1.547594 S    
C14   C114  1.482612 S    
N17   H82   1.042625 S    
O76   H122  1.012884 S    
N39   H130  1.041056 S    
C54   C62   1.542143 S    
O96   H140  1.006433 S    
C113  O98   1.375939 S    
N9    H65   1.041513 S    
O22   C30   1.413194 S    
C17   N1    1.467152 S    
C15   C115  1.476380 S    
O16   P15   1.538889 D    
C53   C61   1.540730 S    
C19   N3    1.466005 S    
P11   O43   1.782306 S    
C116  O104  1.369580 S    
O19   C23   1.399261 S    
P2    O2    1.651765 D    
C35   C47   1.496962 S    
C4    H20   1.100294 S    
C111  O94   1.361580 S    
Ba1   O46   3.139866 S    
P5    O37   1.836177 S    
C7    C11   1.555087 S    
C100  O72   1.398636 S    
C105  O82   1.394810 S    
Ba3   O48   3.139866 S    
P7    O39   1.848756 S    
C24   H8    1.106799 S    
C41   C57   1.438885 A    
N30   H108  1.036292 S    
O104  H144  0.997722 S    
N5    H58   1.043259 S    
C39   C87   1.410165 A    
N8    H64   1.042929 S    
C89   O50   1.400073 S    
P12   O36   1.540673 D    
C79   C83   1.359137 D    
O32   Ba4   2.868757 S    
N6    H60   1.042791 S    
N23   H94   1.043691 S    
C61   C67   1.369892 D    
C71   C75   1.475346 S    
C62   C68   1.371887 D    
O100  H142  0.991672 S    
N6    H59   1.041208 S    
C94   O59   1.221052 D    
C29   H13   1.096598 S    
C96   O64   1.394583 S    
C105  O81   1.215986 D    
C63   N31   1.435915 S    
O39   C16   1.457786 S    
C17   C93   1.525903 S    
N22   H91   1.044002 S    
C20   C100  1.522073 S    
N13   H74   1.046105 S    
C5    C101  1.509158 S    
N7    H61   1.042508 S    
P2    O6    1.634841 S    
C28   N12   1.467313 S    
N11   H70   1.041924 S    
C34   C46   1.521281 S    
C77   C81   1.356201 D    
C42   C46   1.404832 A    
O70   H55   1.010868 S    
C38   H30   1.079463 S    
P10   O34   1.538004 D    
O21   C29   1.418282 S    
C104  O79   1.219298 D    
P6    C45   1.901064 S    
C21   N5    1.453549 S    
O14   P13   1.537884 D    
C93   O58   1.396143 S    
P2    C82   1.879595 S    
N4    H47   1.039555 S    
C108  O87   1.220210 D    
P8    Ba4   3.546961 S    
N1    H42   1.040168 S    
Ba2   O45   3.138330 S    
C36   N28   1.428562 S    
C65   H33   1.083267 S    
C101  O74   1.384565 S    
O62   H51   1.001472 S    
Ba4   O47   3.138330 S    
C31   H15   1.091214 S    
C2    N18   1.467251 S    
N13   H73   1.045295 S    
P5    Ba1   3.552403 S    
O86   H135  1.009947 S    
