data_mof_unit_67319.cif
_audit_creation_date              2013-03-05T16:05:28-0500
_audit_creation_method            fapswitch 2.2
_symmetry_space_group_name_H-M    P1
_symmetry_Int_Tables_number       1
_space_group_crystal_system       triclinic
_cell_length_a                    8.367742
_cell_length_b                    15.187913
_cell_length_c                    15.161443
_cell_angle_alpha                 99.72467
_cell_angle_beta                  98.32716
_cell_angle_gamma                 98.068966
_cell_volume                      1852.1025756

loop_
_atom_site_label
_atom_site_type_symbol
_atom_site_description
_atom_site_fract_x
_atom_site_fract_y
_atom_site_fract_z
_atom_type_partial_charge
P1    P     P_3+3 0.996530 0.418490 0.288400 0.441103
O1    O     O_2   0.826410 0.445300 0.275350 -0.372707
O2    O     O_3   0.098900 0.448430 0.388910 -0.428446
O3    O     O_3   0.628630 0.613330 0.338230 -0.358496
O4    O     O_2   0.692560 0.541538 0.179842 -0.381591
O5    O     O_3   0.955359 0.300058 0.266134 -0.589085
O6    O     O_3   0.676914 0.711911 0.200954 -0.501321
C1    C     C_3   0.617459 0.808580 0.096860 -0.920098
H1    H     H_    0.739984 0.851585 0.118719 0.236699
H2    H     H_    0.629379 0.754879 0.040337 0.204074
P2    P     P_3+3 0.693090 0.712100 0.580610 0.497429
P3    P     P_3+3 0.107593 0.777092 0.395591 0.445773
O7    O     O_2   0.863180 0.725040 0.553770 -0.342319
O8    O     O_3   0.060890 0.661420 0.386090 -0.405396
O9    O     O_2   0.978814 0.814387 0.448164 -0.358942
O10   O     O_3   0.722368 0.732577 0.699811 -0.584863
O11   O     O_3   0.051024 0.796462 0.285404 -0.510316
C2    C     C_3   0.099830 0.729982 0.223196 0.407511
H3    H     H_    0.032617 0.661692 0.223948 0.136272
H4    H     H_    0.233331 0.730344 0.239926 -0.041709
C3    C     C_3   0.058021 0.746276 0.126357 -0.689051
H5    H     H_    0.923169 0.732869 0.104623 0.203906
C4    C     C_3   0.282295 0.735625 0.664414 0.412222
H6    H     H_    0.387265 0.706184 0.642959 0.112564
H7    H     H_    0.178154 0.722118 0.606809 0.116907
C5    C     C_3   0.333333 0.837830 0.696453 -0.950318
H8    H     H_    0.448401 0.852717 0.747113 0.259056
H9    H     H_    0.353314 0.871668 0.639006 0.213282
H10   H     H_    0.235987 0.866803 0.728329 0.279863
Ba1   Ba    Ba6+2 0.844890 0.542420 0.457460 1.518168
C6    C     C_3   0.927441 0.265145 0.343866 0.412580
H11   H     H_    0.795720 0.259343 0.347163 0.044578
H12   H     H_    0.998743 0.305991 0.408645 0.155003
C7    C     C_3   0.975705 0.171348 0.335709 -0.974978
H13   H     H_    0.918562 0.125916 0.270810 0.256461
H14   H     H_    0.941685 0.138082 0.391204 0.230744
H15   H     H_    0.108647 0.177539 0.338063 0.298696
C8    C     C_3   0.874250 0.713321 0.735390 0.460931
H16   H     H_    0.973517 0.764514 0.724220 0.131452
H17   H     H_    0.888135 0.644655 0.702348 0.053787
C9    C     C_3   0.886279 0.715799 0.837635 -0.513413
H18   H     H_    0.011592 0.707002 0.866327 0.219038
H19   H     H_    0.799750 0.657449 0.848028 0.162456
P4    P     P_3+3 0.193180 0.581580 0.711620 0.454261
O12   O     O_2   0.363300 0.554730 0.724710 -0.362765
O13   O     O_3   0.090820 0.551650 0.611100 -0.412452
O14   O     O_3   0.561090 0.386750 0.661790 -0.367033
O15   O     O_3   0.235259 0.700003 0.737411 -0.560475
P5    P     P_3+3 0.080439 0.222174 0.608329 0.433245
O16   O     O_3   0.598940 0.388670 0.448890 -0.437704
O17   O     O_3   0.128820 0.338650 0.613920 -0.396983
O18   O     O_2   0.209993 0.177254 0.562239 -0.412696
O19   O     O_3   0.111977 0.203484 0.720288 -0.530605
Ba2   Ba    Ba6+2 0.344950 0.457650 0.542550 1.514888
P6    P     P_3+3 0.584368 0.607004 0.219797 0.440862
C10   C     C_3   0.561089 0.765467 0.173846 0.688273
H20   H     H_    0.437454 0.725573 0.146074 0.017447
H21   H     H_    0.527849 0.849148 0.070931 0.285431
O20   O     O_3   0.590780 0.611410 0.551120 -0.422866
C11   C     C_3   0.464696 0.257324 0.225721 0.532996
H22   H     H_    0.574605 0.310985 0.248927 0.051042
C12   C     C_3   0.496373 0.183560 0.148883 -0.415037
H23   H     H_    0.389002 0.128033 0.130001 0.239188
H24   H     H_    0.513791 0.213846 0.088466 0.152308
P7    P     P_3+3 0.496883 0.272661 0.412005 0.378877
O21   O     O_2   0.326530 0.274990 0.446290 -0.365954
O22   O     O_3   0.421960 0.215698 0.297285 -0.587919
H25   H     H_    0.109701 0.697603 0.079696 0.193957
C13   C     C_3   0.161784 0.287428 0.780727 0.468156
H26   H     H_    0.284707 0.317001 0.772956 0.169215
H27   H     H_    0.080697 0.336860 0.766956 0.010327
C14   C     C_3   0.160622 0.277960 0.879545 -0.451465
H28   H     H_    0.216738 0.344837 0.922777 0.145635
H29   H     H_    0.032968 0.263724 0.892182 0.220136
P8    P     P_3+3 0.614238 0.393385 0.778437 0.395601
C15   C     C_3   0.578461 0.215723 0.731998 0.412753
O23   O     O_2   0.499316 0.451674 0.823238 -0.419144
O24   O     O_3   0.554589 0.284596 0.801783 -0.604229
H30   H     H_    0.535478 0.228802 0.663444 0.111316
H31   H     H_    0.501710 0.070065 0.682679 0.218796
C16   C     C_3   0.479023 0.124062 0.736357 -0.897474
H32   H     H_    0.346593 0.126056 0.724064 0.290234
H33   H     H_    0.512915 0.105215 0.803451 0.255747
C17   C     C_R   0.830839 0.446062 0.826510 0.176801
C18   C     C_R   0.900429 0.450005 0.918377 -0.014489
C19   C     C_R   0.037375 0.460712 0.105474 -0.052732
C20   C     C_R   0.879803 0.412912 0.068452 -0.116419
C21   C     C_R   0.812121 0.408845 0.977663 -0.177476
C22   C     C_R   0.102216 0.473451 0.200707 0.209002
H34   H     H_    0.805193 0.379465 0.109578 0.157549
H35   H     H_    0.688165 0.373167 0.955183 0.181076
C23   C     C_R   0.256376 0.529216 0.230946 -0.202175
C24   C     C_R   0.085851 0.531415 0.799069 0.189222
C25   C     C_R   0.156162 0.539056 0.893441 -0.076157
C26   C     C_R   0.063234 0.495474 0.951859 0.011876
C27   C     C_R   0.316951 0.585459 0.932682 -0.004691
C28   C     C_R   0.389404 0.575552 0.018085 -0.237640
C29   C     C_R   0.296443 0.541634 0.077935 -0.041750
C30   C     C_R   0.131853 0.499670 0.045326 0.022683
C31   C     C_R   0.360951 0.556030 0.171245 0.085770
C32   C     C_R   0.924924 0.484489 0.768646 -0.481060
H36   H     H_    0.516600 0.605481 0.041128 0.144998
H37   H     H_    0.870106 0.478988 0.698349 0.185063
C33   C     C_R   0.322809 0.828625 0.452949 0.149783
H38   H     H_    0.366901 0.698709 0.478160 0.144751
C34   C     C_R   0.580394 0.797266 0.531952 0.320125
C35   C     C_R   0.766366 0.231403 0.520143 -0.537279
C36   C     C_R   0.867562 0.173990 0.551739 0.266070
C37   C     C_R   0.804904 0.081910 0.544244 -0.308709
C38   C     C_R   0.635770 0.046440 0.511506 0.021022
C39   C     C_R   0.541362 0.105125 0.471663 -0.012608
C40   C     C_R   0.559853 0.953677 0.509958 -0.028352
C41   C     C_R   0.392409 0.922319 0.463816 -0.045954
C42   C     C_R   0.304426 0.986123 0.428595 -0.098206
C43   C     C_R   0.382213 0.071998 0.428789 -0.113155
C44   C     C_R   0.643450 0.891444 0.552926 -0.166639
C45   C     C_R   0.420925 0.768484 0.483886 -0.530871
C46   C     C_R   0.606640 0.197146 0.475196 0.244537
H39   H     H_    0.815534 0.302343 0.526003 0.176777
H40   H     H_    0.893031 0.040224 0.562237 0.178113
H41   H     H_    0.310139 0.115015 0.397842 0.196074
C47   C     C_3   0.543361 0.837398 0.255012 -0.411394
C48   C     C_3   0.700772 0.904201 0.295902 -0.681112
H42   H     H_    0.799503 0.867114 0.317205 0.321175
H43   H     H_    0.738120 0.946920 0.247579 0.247753
H44   H     H_    0.681144 0.950663 0.355959 0.222655
H45   H     H_    0.445778 0.875976 0.233944 0.193627
H46   H     H_    0.505042 0.802078 0.308788 0.173461
C49   C     C_3   0.846765 0.803462 0.890374 -0.209350
C50   C     C_3   0.967269 0.887624 0.886665 -0.811024
H47   H     H_    0.946695 0.905088 0.818313 0.265939
H48   H     H_    0.948244 0.945781 0.936892 0.233446
H49   H     H_    0.095687 0.876516 0.903021 0.301923
H50   H     H_    0.852747 0.796995 0.962473 0.181763
H51   H     H_    0.719881 0.812358 0.864683 0.224724
C51   C     C_3   0.317370 0.297360 0.183909 -0.426928
C52   C     C_3   0.161090 0.228319 0.141261 -0.771070
H52   H     H_    0.174521 0.181156 0.080407 0.220901
H53   H     H_    0.124806 0.186555 0.190182 0.290266
H54   H     H_    0.060416 0.264477 0.119605 0.253877
H55   H     H_    0.280727 0.343426 0.237190 0.200452
H56   H     H_    0.354449 0.337082 0.132788 0.149941
C53   C     C_3   0.643383 0.138891 0.172584 -0.324219
C54   C     C_3   0.644145 0.055753 0.100341 -0.907210
H57   H     H_    0.534277 0.004229 0.096813 0.289272
H58   H     H_    0.644279 0.074828 0.032738 0.270459
H59   H     H_    0.755732 0.026048 0.117749 0.250196
H60   H     H_    0.753990 0.187684 0.173124 0.245792
H61   H     H_    0.641562 0.118112 0.239325 0.231087
C55   C     C_3   0.259503 0.207558 0.909732 -0.239715
C56   C     C_3   0.159282 0.112177 0.891857 -0.771781
H62   H     H_    0.123566 0.084621 0.817967 0.307144
H63   H     H_    0.234250 0.066551 0.922343 0.224080
H64   H     H_    0.047085 0.112585 0.922979 0.258241
H65   H     H_    0.307011 0.229651 0.982834 0.172825
H66   H     H_    0.369040 0.206379 0.878146 0.242564
C57   C     C_2   0.756156 0.210010 0.742051 0.522765
H67   H     H_    0.834719 0.262754 0.722384 -0.044345
O25   O     O_2   0.812171 0.148697 0.771735 -0.596902
C58   C     C_2   0.404854 0.660257 0.899443 0.606795
H68   H     H_    0.517580 0.653003 0.873775 0.017473
O26   O     O_2   0.360068 0.733862 0.909333 -0.564057
C59   C     C_3   0.320505 0.555659 0.328519 -0.324334
C60   C     C_3   0.419017 0.484622 0.356081 -0.494399
H69   H     H_    0.345648 0.423407 0.366990 0.230486
H70   H     H_    0.494804 0.460743 0.305551 0.201234
H71   H     H_    0.499926 0.515495 0.419259 0.300262
H72   H     H_    0.378576 0.627098 0.341918 0.147480
H73   H     H_    0.236079 0.569509 0.372928 0.234538
C61   C     C_2   0.126478 0.975064 0.398851 0.610879
H74   H     H_    0.045160 0.969624 0.447687 0.047431
O27   O     O_2   0.071412 0.981445 0.321564 -0.629277
C62   C     C_2   0.772456 0.925599 0.634109 0.476097
H75   H     H_    0.751074 0.976704 0.688244 0.075220
O28   O     O_2   0.905759 0.901198 0.639117 -0.579777
C63   C     C_2   0.122363 0.841487 0.118941 0.603351
H76   H     H_    0.077154 0.897849 0.155505 0.105496
O29   O     O_2   0.223012 0.856192 0.070250 -0.604504

loop_
_geom_bond_atom_site_label_1
_geom_bond_atom_site_label_2
_geom_bond_distance
_ccdc_geom_bond_type
C8    H17   1.107448 S    
C20   C21   1.398191 A    
C57   H67   1.073510 S    
C43   H41   1.069092 S    
O2    Ba1   2.937024 S    
C2    C3    1.528918 S    
P2    O7    1.531719 D    
C9    H18   1.110611 S    
C59   C60   1.523272 S    
C15   H30   1.109346 S    
O6    P6    1.758248 S    
C12   C53   1.513686 S    
O19   C13   1.408676 S    
C1    C10   1.531221 S    
C42   C43   1.372812 A    
C48   H42   1.104066 S    
C62   H75   1.083704 S    
C10   H20   1.107408 S    
Ba1   Ba2   4.629775 S    
C5    H8    1.110927 S    
C24   C25   1.444915 A    
C44   C62   1.480414 S    
C39   C46   1.416494 A    
C60   H69   1.090769 S    
C15   O24   1.414053 S    
C7    H13   1.102118 S    
C8    H16   1.107746 S    
H31   C16   1.110817 S    
O2    Ba2   2.846829 S    
C26   C30   1.437170 A    
P8    C17   1.862693 S    
C48   H43   1.106965 S    
C61   H74   1.081150 S    
C53   C54   1.526818 S    
C7    H15   1.097999 S    
C36   C37   1.402452 A    
C11   C12   1.553846 S    
P1    O1    1.529613 D    
C56   H64   1.110430 S    
C47   H45   1.110888 S    
C13   H27   1.105698 S    
C38   C39   1.422923 A    
C51   H56   1.111776 S    
P4    C24   1.907619 S    
C1    H21   1.105688 S    
C49   H51   1.111537 S    
C11   O22   1.409066 S    
C1    H1    1.108180 S    
P7    O22   1.786150 S    
P6    C31   1.907560 S    
C12   H24   1.110886 S    
C4    H6    1.105057 S    
C21   H35   1.078459 S    
C11   C51   1.551012 S    
C35   C46   1.393788 A    
C2    H4    1.108165 S    
C28   H36   1.079042 S    
P5    O18   1.547579 D    
C63   O29   1.219480 D    
O5    C6    1.407391 S    
Ba1   O16   2.859410 S    
C57   O25   1.221641 D    
C55   H66   1.094822 S    
C3    H5    1.108365 S    
Ba1   O20   2.938199 S    
C17   C32   1.405035 A    
C9    H19   1.111101 S    
H38   C45   1.076112 S    
C13   H26   1.094031 S    
O6    C10   1.410232 S    
O8    Ba1   2.830966 S    
C54   H59   1.110034 S    
P2    O20   1.600653 S    
C35   H39   1.081963 S    
C40   C41   1.447613 A    
C16   H33   1.111177 S    
P4    O13   1.594205 S    
C28   C29   1.394180 A    
P5    C36   1.850394 S    
Ba2   O20   2.858918 S    
C62   O28   1.219984 D    
C53   H60   1.099571 S    
C52   H54   1.108930 S    
C15   C57   1.488858 S    
P1    O5    1.747944 S    
O7    Ba1   2.880353 S    
C17   C18   1.417657 A    
P2    Ba1   3.423650 S    
C8    C9    1.532536 S    
C54   H58   1.111310 S    
C24   C32   1.404866 A    
O3    P6    1.763452 S    
C19   C20   1.399946 A    
C2    H3    1.110980 S    
C48   H44   1.101277 S    
P5    O17   1.743235 S    
P8    O24   1.766820 S    
C16   H32   1.102333 S    
C49   H50   1.108540 S    
C34   C44   1.418211 A    
C11   H22   1.110327 S    
P1    O2    1.594115 S    
C58   O26   1.220609 D    
P3    O11   1.754310 S    
C13   C14   1.530376 S    
C50   H48   1.110306 S    
C12   H23   1.109789 S    
C52   H53   1.102172 S    
P2    O10   1.755960 S    
C6    H11   1.102417 S    
P3    O9    1.544339 D    
C56   H62   1.108616 S    
C3    C63   1.499163 S    
C27   C28   1.389541 A    
O13   Ba2   2.937949 S    
P2    C34   1.889436 S    
C6    H12   1.107235 S    
O11   C2    1.407643 S    
C6    C7    1.524554 S    
C54   H57   1.109093 S    
O16   Ba2   2.937295 S    
C22   C23   1.407965 A    
C25   C27   1.421678 A    
C19   C30   1.437533 A    
P8    O23   1.547556 D    
O14   Ba2   2.820682 S    
C23   C59   1.465117 S    
C14   H29   1.110358 S    
C63   H76   1.083762 S    
C27   C58   1.466892 S    
P3    O8    1.722015 S    
O12   Ba2   2.874558 S    
P7    O21   1.589335 D    
P7    C46   1.867843 S    
C29   C31   1.407749 A    
C55   H65   1.099226 S    
C3    H25   1.111592 S    
C50   H49   1.110184 S    
C35   C36   1.392045 A    
C40   C44   1.438308 A    
P4    O12   1.529893 D    
C23   C31   1.415914 A    
C41   C42   1.423884 A    
C32   H37   1.082074 S    
C18   C21   1.413263 A    
C42   C61   1.469169 S    
P1    C22   1.937747 S    
C4    O15   1.393254 S    
O4    P6    1.543784 D    
C60   H71   1.080300 S    
C14   H28   1.110787 S    
C19   C22   1.437291 A    
C15   C16   1.535117 S    
P3    C33   1.879558 S    
Ba2   O21   2.880459 S    
C4    C5    1.525455 S    
C52   H52   1.098333 S    
C33   C45   1.404317 A    
C5    H9    1.104517 S    
Ba1   O13   2.846201 S    
O1    Ba1   2.873938 S    
O17   Ba2   2.831624 S    
C58   H68   1.083674 S    
C60   H70   1.109974 S    
C59   H72   1.097083 S    
C49   C50   1.527329 S    
O14   P8    1.742138 S    
C34   C45   1.396325 A    
C37   C38   1.425384 A    
C9    C49   1.536832 S    
C18   C26   1.416908 A    
C61   O27   1.220372 D    
P5    O19   1.756601 S    
C14   C55   1.530167 S    
P1    Ba1   3.421334 S    
C51   H55   1.084945 S    
C50   H47   1.108113 S    
C7    H14   1.103108 S    
C56   H63   1.110678 S    
C47   H46   1.109293 S    
C25   C26   1.442334 A    
C59   H73   1.062215 S    
O16   P7    1.803562 S    
C38   C40   1.456816 A    
C33   C41   1.432358 A    
P4    Ba2   3.422049 S    
C53   H61   1.111201 S    
C4    H7    1.110447 S    
C5    H10   1.110637 S    
C1    H2    1.105008 S    
C29   C30   1.413281 A    
C20   H34   1.080448 S    
O10   C8    1.396715 S    
C55   C56   1.528329 S    
C51   C52   1.539097 S    
C39   C43   1.378347 A    
C47   C48   1.524637 S    
O3    Ba1   2.821281 S    
P4    O15   1.748302 S    
C37   H40   1.072478 S    
C10   C47   1.540800 S    
