data_mof_unit_5676.cif
_audit_creation_date              2012-12-11T14:21:12-0500
_audit_creation_method            fapswitch 2.2
_symmetry_space_group_name_H-M    P1
_symmetry_Int_Tables_number       1
_space_group_crystal_system       triclinic
_cell_length_a                    22.019755
_cell_length_b                    7.197455
_cell_length_c                    14.936971
_cell_angle_alpha                 89.976672
_cell_angle_beta                  107.532957
_cell_angle_gamma                 89.996136
_cell_volume                      2257.327601

loop_
_atom_site_label
_atom_site_type_symbol
_atom_type_description
_atom_site_fract_x
_atom_site_fract_y
_atom_site_fract_z
_atom_type_partial_charge
O1    O     O_R   0.584770 0.505770 0.002090 -0.536365
O2    O     O_R   0.415230 0.005770 0.997910 -0.536422
O3    O     O_R   0.467060 0.173340 0.861950 -0.535644
O4    O     O_R   0.532940 0.673340 0.138050 -0.535296
C1    C     C_R   0.455223 0.344249 0.825775 0.685016
C2    C     C_R   0.544773 0.844154 0.174240 0.684855
O5    O     O_R   0.587510 0.175890 0.993210 -0.540849
O6    O     O_R   0.412490 0.675890 0.006790 -0.540612
O7    O     O_R   0.536540 0.008150 0.130100 -0.530344
O8    O     O_R   0.463460 0.508150 0.869900 -0.530281
C3    C     C_R   0.612320 0.345414 0.995672 0.756395
C4    C     C_R   0.387677 0.845410 0.004310 0.756374
O9    O     O_3   0.483140 0.340040 0.044760 -0.375295
O10   O     O_3   0.516860 0.840040 0.955240 -0.375625
V1    V     V_3+5 0.503130 0.064190 0.991700 1.524397
V2    V     V_3+5 0.496870 0.564190 0.008300 1.525299
C5    C     C_2   0.219622 0.743415 0.020126 0.139645
C6    C     C_2   0.780292 0.243840 0.979330 0.139653
C7    C     C_2   0.176717 0.880818 0.982684 -0.016436
C8    C     C_2   0.823267 0.380737 0.017201 -0.016935
C9    C     C_2   0.281685 0.723405 0.001180 -0.078122
C10   C     C_2   0.718246 0.223403 0.998305 -0.079527
C11   C     C_2   0.323346 0.863844 0.014258 -0.266869
C12   C     C_2   0.676646 0.363954 0.985699 -0.266212
H1    H     H_    0.295827 0.585255 0.986003 0.174322
H2    H     H_    0.704066 0.085020 0.013087 0.173596
H3    H     H_    0.310189 0.999097 0.034876 0.174271
H4    H     H_    0.689847 0.499468 0.965419 0.174422
C13   C     C_R   0.926260 0.892926 0.723133 -0.045288
C14   C     C_R   0.073703 0.392359 0.276841 -0.044796
C15   C     C_R   0.571858 0.851686 0.276281 -0.038356
C16   C     C_R   0.428058 0.352292 0.723777 -0.038416
C17   C     C_R   0.930195 0.998733 0.571611 -0.142256
C18   C     C_R   0.069223 0.493462 0.428777 -0.142264
C19   C     C_R   0.960790 0.961567 0.665804 -0.161235
C20   C     C_R   0.038857 0.458050 0.334338 -0.161578
C21   C     C_R   0.861046 0.856838 0.685247 -0.175791
C22   C     C_R   0.139020 0.357836 0.314699 -0.176374
C23   C     C_R   0.827921 0.903769 0.590862 0.097037
C24   C     C_R   0.171890 0.403331 0.409327 0.096867
C25   C     C_R   0.864054 0.975323 0.534421 0.092374
C26   C     C_R   0.135425 0.471396 0.466047 0.092346
C27   C     C_R   0.760253 0.888389 0.551683 -0.001512
C28   C     C_R   0.239597 0.389718 0.448522 -0.001937
C29   C     C_R   0.730678 0.934940 0.455312 0.010792
C30   C     C_R   0.268913 0.433788 0.545240 0.010464
C31   C     C_R   0.767832 0.027312 0.405569 0.154929
C32   C     C_R   0.231351 0.522386 0.595539 0.155448
C33   C     C_R   0.833650 0.037445 0.443681 -0.186134
C34   C     C_R   0.165515 0.531298 0.557264 -0.186031
C35   C     C_R   0.720829 0.836673 0.606728 -0.163255
C36   C     C_R   0.279284 0.342488 0.393172 -0.164291
C37   C     C_R   0.654953 0.824031 0.568995 0.148165
C38   C     C_R   0.345208 0.331902 0.430887 0.147592
C39   C     C_R   0.626329 0.847132 0.472080 0.074651
C40   C     C_R   0.373676 0.352448 0.527975 0.074400
C41   C     C_R   0.664794 0.893235 0.413995 0.071006
C42   C     C_R   0.334956 0.393790 0.586323 0.070878
C43   C     C_R   0.560416 0.818407 0.431118 -0.102032
C44   C     C_R   0.439730 0.326049 0.568795 -0.102340
C45   C     C_R   0.533373 0.823226 0.333973 -0.133781
C46   C     C_R   0.466727 0.328714 0.665970 -0.134143
C47   C     C_R   0.637104 0.880694 0.315960 -0.139647
C48   C     C_R   0.362661 0.378663 0.684249 -0.140771
H5    H     H_    0.861080 0.106279 0.404051 0.157171
H6    H     H_    0.137786 0.597385 0.597259 0.157224
H7    H     H_    0.666279 0.881741 0.269449 0.147089
H8    H     H_    0.333468 0.376166 0.730727 0.147408
H9    H     H_    0.482722 0.799304 0.303692 0.142218
H10   H     H_    0.517519 0.307126 0.696142 0.142635
H11   H     H_    0.957816 0.055221 0.528923 0.125661
H12   H     H_    0.041344 0.547394 0.471673 0.125658
H13   H     H_    0.011069 0.992509 0.694904 0.133852
H14   H     H_    0.988479 0.487720 0.305264 0.133705
H15   H     H_    0.837377 0.800840 0.732681 0.128144
H16   H     H_    0.162928 0.303739 0.267163 0.128332
H17   H     H_    0.739437 0.810485 0.680834 0.169504
H18   H     H_    0.260828 0.318676 0.318852 0.170088
H19   H     H_    0.529330 0.788452 0.473119 0.166530
H20   H     H_    0.470993 0.299902 0.526629 0.166876
O11   O     O_R   0.036450 0.233070 0.130130 -0.541402
O12   O     O_R   0.963550 0.733070 0.869870 -0.541488
O13   O     O_R   0.912470 0.560570 0.006790 -0.524375
O14   O     O_R   0.087530 0.060570 0.993210 -0.524214
C49   C     C_R   0.887159 0.391267 0.003290 0.724895
C50   C     C_R   0.112834 0.891257 0.996658 0.724727
O15   O     O_R   0.032920 0.562940 0.138050 -0.532797
O16   O     O_R   0.967080 0.062940 0.861950 -0.532829
O17   O     O_R   0.084790 0.730500 0.002090 -0.528567
O18   O     O_R   0.915210 0.230500 0.997910 -0.528603
C51   C     C_R   0.044938 0.394690 0.174785 0.708749
C52   C     C_R   0.955055 0.894786 0.825203 0.708809
O19   O     O_3   0.016820 0.396170 0.955260 -0.370608
O20   O     O_3   0.983180 0.896170 0.044740 -0.370726
V3    V     V_3+5 0.996880 0.672090 0.008300 1.538226
V4    V     V_3+5 0.003120 0.172090 0.991700 1.538423
I1    I     I_    0.206007 0.536877 0.114312 -0.394501
I2    I     I_    0.793793 0.039029 0.884302 -0.394348
I3    I     I_    0.731418 0.210777 0.288688 -0.395701
I4    I     I_    0.266968 0.702419 0.713963 -0.396322
I5    I     I_    0.191242 0.078250 0.883955 -0.363527
I6    I     I_    0.808882 0.576816 0.116526 -0.364835
I7    I     I_    0.603247 0.755341 0.664344 -0.422280
I8    I     I_    0.397304 0.270525 0.335129 -0.420929

loop_
_geom_bond_atom_site_label_1
_geom_bond_atom_site_label_2
_ccdc_geom_bond_type
O16   V4    S    
O4    V2    S    
O15   C51   A    
C15   C45   A    
C18   C26   A    
C7    C50   S    
O2    C4    A    
C2    O7    A    
O12   C52   A    
C23   C25   A    
C22   H16   S    
O5    C3    A    
C4    C11   S    
C29   C41   A    
C33   H5    S    
C48   H8    S    
C38   I8    S    
O14   C50   A    
C39   C43   A    
C8    I6    S    
C3    C12   S    
C31   I3    S    
C14   C22   A    
C44   C46   A    
O14   V4    S    
C29   C31   A    
C17   C19   A    
C19   H13   S    
O16   C52   A    
C36   C38   A    
O15   V3    S    
C11   H3    S    
C18   C20   A    
C1    C16   S    
C28   C36   A    
C24   C26   A    
C2    C15   S    
C21   H15   S    
O6    V2    S    
C30   C42   A    
C46   H10   S    
C36   H18   S    
C25   C33   A    
C28   C30   A    
C41   C47   A    
C47   H7    S    
C37   C39   A    
C42   C48   A    
C32   I4    S    
C38   C40   A    
C43   C45   A    
C15   C47   A    
C16   C48   A    
O4    C2    A    
C43   H19   S    
O11   V4    S    
C23   C27   A    
O5    V1    S    
C5    C9    S    
C40   C44   A    
C35   C37   A    
O17   V3    S    
C35   H17   S    
C27   C29   A    
O6    C4    A    
O13   V3    S    
C8    C49   S    
O1    V2    S    
O2    V1    S    
C34   H6    S    
C20   H14   S    
C26   C34   A    
O13   C49   A    
O19   V4    S    
C39   C41   A    
C10   C12   D    
C18   H12   S    
O3    V1    S    
C45   H9    S    
C9    H1    S    
C44   H20   S    
O12   V3    S    
C6    C10   S    
C12   H4    S    
C14   C51   S    
O3    C1    A    
C50   O17   A    
C49   O18   A    
O18   V4    S    
C31   C33   A    
C13   C19   A    
C14   C20   A    
C17   C25   A    
C9    C11   D    
O7    V1    S    
C16   C46   A    
C1    O8    A    
C21   C23   A    
O8    V2    S    
C22   C24   A    
C7    I5    S    
C27   C35   A    
C37   I7    S    
C32   C34   A    
C5    C7    D    
C40   C42   A    
C6    C8    D    
O20   V3    S    
C17   H11   S    
O11   C51   A    
C30   C32   A    
C24   C28   A    
C10   H2    S    
O9    V2    S    
C13   C21   A    
O10   V1    S    
O1    C3    A    
C6    I2    S    
C5    I1    S    
C13   C52   S    
