data_mof_unit_23349.cif
_audit_creation_date              2012-12-10T16:44:37-0500
_audit_creation_method            fapswitch 2.2
_symmetry_space_group_name_H-M    P1
_symmetry_Int_Tables_number       1
_space_group_crystal_system       triclinic
_cell_length_a                    18.502136
_cell_length_b                    18.456073
_cell_length_c                    18.56091
_cell_angle_alpha                 119.614766
_cell_angle_beta                  120.262595
_cell_angle_gamma                 90.513177
_cell_volume                      4469.51665539

loop_
_atom_site_label
_atom_site_type_symbol
_atom_type_description
_atom_site_fract_x
_atom_site_fract_y
_atom_site_fract_z
_atom_type_partial_charge
C1    C     C_R   0.138820 0.361609 0.998379 0.851324
C2    C     C_R   0.819474 0.144427 0.073545 0.328082
C3    C     C_R   0.783352 0.196011 0.035487 -0.162974
C4    C     C_R   0.836772 0.246484 0.030686 -0.182771
C5    C     C_R   0.696442 0.198302 0.003040 -0.023797
C6    C     C_R   0.661348 0.248779 0.964230 -0.058371
C7    C     C_R   0.712967 0.296411 0.955197 -0.029237
C8    C     C_R   0.803274 0.300918 0.996735 -0.071968
C9    C     C_R   0.573234 0.248392 0.928936 -0.326355
C10   C     C_R   0.535206 0.292598 0.883336 0.547593
C11   C     C_R   0.582929 0.331048 0.865139 -0.300438
C12   C     C_R   0.861689 0.638705 0.999768 0.854535
C13   C     C_R   0.671101 0.333854 0.899581 0.440498
C14   C     C_2   0.715558 0.773579 0.935843 -0.288002
C15   C     C_2   0.692097 0.804502 0.000360 -0.384510
C16   C     C_2   0.770367 0.715615 0.932188 0.563621
C17   C     C_2   0.808343 0.696318 0.001686 -0.416427
C18   C     C_2   0.714097 0.282143 0.446543 0.419040
C19   C     C_2   0.676808 0.192434 0.386944 0.344432
C20   C     C_2   0.756738 0.328967 0.557466 -0.344944
C21   C     C_2   0.820184 0.306918 0.612528 0.391636
C22   C     C_2   0.330529 0.272704 0.032443 -0.402521
C23   C     C_R   0.139618 0.638392 0.277403 0.758881
C24   C     C_2   0.305417 0.193349 0.014002 0.327201
C25   C     C_2   0.282668 0.336496 0.047277 0.548443
C26   C     C_2   0.193080 0.305365 0.991611 -0.340889
C27   C     C_2   0.215286 0.774425 0.936973 0.581500
C28   C     C_2   0.303430 0.791641 0.983777 -0.313599
C29   C     C_2   0.168097 0.703782 0.929204 -0.444787
C30   C     C_2   0.197268 0.704288 0.011667 0.320058
C31   C     C_2   0.218870 0.760518 0.554359 0.605828
C32   C     C_2   0.303504 0.814944 0.613126 -0.319516
C33   C     C_2   0.164983 0.718738 0.442876 -0.429082
C34   C     C_R   0.864051 0.361341 0.722969 0.727183
C35   C     C_2   0.198806 0.685684 0.388792 0.351988
C36   C     C_R   0.636737 0.138691 0.277258 0.758656
C37   C     C_R   0.360804 0.861865 0.723148 0.854137
C38   C     C_R   0.638177 0.861233 0.000015 0.897149
C39   C     C_R   0.361048 0.138178 0.002901 0.729944
C40   C     C_R   0.359745 0.859117 0.998326 0.862984
C41   C     C_R   0.638490 0.140324 0.999283 0.894851
C42   C     C_R   0.140365 0.640574 0.001490 0.778327
C43   C     C_R   0.861052 0.359462 0.000425 1.004650
C44   C     C_R   0.921200 0.237374 0.056758 0.252664
C45   C     C_R   0.938047 0.163721 0.057502 0.308948
C46   C     C_R   0.891117 0.120337 0.072626 0.341869
H1    H     H_    0.548788 0.356076 0.820004 0.168829
H2    H     H_    0.710065 0.787690 0.053873 0.160143
H3    H     H_    0.803279 0.724568 0.064945 0.119314
H4    H     H_    0.735369 0.381565 0.593683 0.122640
H5    H     H_    0.389381 0.293106 0.038016 0.132475
H6    H     H_    0.156343 0.234833 0.935899 0.152059
H7    H     H_    0.335229 0.751349 0.008184 0.100946
H8    H     H_    0.107309 0.652414 0.855701 0.144394
H9    H     H_    0.331932 0.828752 0.580763 0.139940
H10   H     H_    0.095554 0.714052 0.404975 0.158335
H11   H     H_    0.532090 0.211280 0.933289 0.148282
H12   H     H_    0.691905 0.789684 0.880692 0.193296
O1    O     O_3   0.000000 0.500000 0.000000 -0.491231
O2    O     O_R   0.054160 0.614240 0.229150 -0.663761
O3    O     O_R   0.885120 0.325030 0.770840 -0.652721
O4    O     O_R   0.175010 0.445830 0.060100 -0.604404
O5    O     O_R   0.885710 0.614900 0.939900 -0.586983
O6    O     O_3   0.500040 0.999960 0.000000 -0.499753
O7    O     O_R   0.614930 0.174930 0.229160 -0.609838
O8    O     O_R   0.445880 0.885710 0.770850 -0.654281
O9    O     O_R   0.614330 0.885060 0.060100 -0.643676
O10   O     O_R   0.325040 0.054120 0.939900 -0.659280
O11   O     O_R   0.444330 0.884140 0.060080 -0.659113
O12   O     O_R   0.054210 0.325030 0.939940 -0.643380
O13   O     O_R   0.615830 0.175840 0.060080 -0.648766
O14   O     O_R   0.324160 0.884140 0.939910 -0.594654
O15   O     O_R   0.615850 0.055700 0.939930 -0.618036
O16   O     O_R   0.614980 0.885710 0.939940 -0.634350
O17   O     O_R   0.445830 0.174930 0.060060 -0.655947
O18   O     O_R   0.614300 0.054120 0.229160 -0.617269
O19   O     O_R   0.325070 0.885060 0.770830 -0.591270
O20   O     O_R   0.885070 0.614240 0.060060 -0.656340
O21   O     O_R   0.174980 0.614900 0.229170 -0.654966
O22   O     O_R   0.885740 0.445830 0.770840 -0.649113
O23   O     O_R   0.175880 0.615810 0.060090 -0.655313
O24   O     O_R   0.884210 0.324110 0.939920 -0.586658
O25   O     O_R   0.055710 0.615810 0.939920 -0.659664
O26   O     O_R   0.884190 0.444260 0.060070 -0.656788
Zn1   Zn    Zn3+2 0.956610 0.542450 0.085830 0.961242
Zn2   Zn    Zn3+2 0.129220 0.543380 0.085850 0.952241
Zn3   Zn    Zn3+2 0.957530 0.543380 0.914160 0.974677
Zn4   Zn    Zn3+2 0.956640 0.370790 0.914170 0.997340
Zn5   Zn    Zn3+2 0.543440 0.957510 0.914170 0.986427
Zn6   Zn    Zn3+2 0.542510 0.956570 0.085840 0.982083
Zn7   Zn    Zn3+2 0.370820 0.956570 0.914150 0.985352
Zn8   Zn    Zn3+2 0.543410 0.129170 0.085830 0.980214
O27   O     O_3   0.775878 0.674968 0.850008 -0.575432
C47   C     C_3   0.832479 0.738457 0.862432 -0.284948
H13   H     H_    0.897542 0.776094 0.939296 0.153645
H14   H     H_    0.799553 0.784412 0.847845 0.136676
H15   H     H_    0.847110 0.703300 0.805405 0.189175
O28   O     O_3   0.712522 0.325567 0.401797 -0.650003
C48   C     C_3   0.743879 0.419368 0.467833 0.110241
H16   H     H_    0.765849 0.445218 0.436655 0.158281
H17   H     H_    0.804204 0.447035 0.546037 0.146212
C49   C     C_3   0.668454 0.452673 0.468686 -0.374261
H18   H     H_    0.615783 0.433961 0.390925 0.225299
H19   H     H_    0.637850 0.421164 0.489134 0.218749
C50   C     C_3   0.702491 0.553217 0.544710 -0.940024
H20   H     H_    0.754942 0.572984 0.622908 0.280732
H21   H     H_    0.646983 0.575439 0.544785 0.276383
H22   H     H_    0.730037 0.586498 0.523346 0.261959
O29   O     O_3   0.674722 0.148034 0.428648 -0.617413
C51   C     C_3   0.591692 0.133619 0.413304 -0.343907
H23   H     H_    0.535917 0.089303 0.330571 0.171605
H24   H     H_    0.580964 0.197394 0.450403 0.152474
H25   H     H_    0.591083 0.100302 0.449086 0.206197
O30   O     O_3   0.856805 0.249925 0.568679 -0.654611
C52   C     C_3   0.870121 0.186500 0.591570 0.170086
H26   H     H_    0.844225 0.120959 0.519072 0.175085
H27   H     H_    0.831903 0.177858 0.619468 0.161295
C53   C     C_3   0.969943 0.207898 0.665611 -0.358537
H28   H     H_    0.003299 0.204716 0.628842 0.222076
H29   H     H_    0.000275 0.276198 0.736046 0.228463
C54   C     C_3   0.986732 0.142534 0.694774 -0.957091
H30   H     H_    0.957855 0.147752 0.736383 0.277011
H31   H     H_    0.059592 0.158031 0.745181 0.254462
H32   H     H_    0.956788 0.073505 0.625489 0.261533
O31   O     O_3   0.238296 0.173459 0.023015 -0.665165
C55   C     C_3   0.186347 0.082132 0.956939 0.127662
H33   H     H_    0.138961 0.074455 0.974313 0.153186
H34   H     H_    0.226073 0.041545 0.975379 0.182627
C56   C     C_3   0.131917 0.047357 0.843265 -0.404006
H35   H     H_    0.076073 0.073486 0.825204 0.202802
H36   H     H_    0.173367 0.070533 0.826577 0.227335
C57   C     C_3   0.094500 0.946345 0.772575 -0.864632
H37   H     H_    0.148971 0.918402 0.790820 0.309228
H38   H     H_    0.059222 0.924191 0.692113 0.257627
H39   H     H_    0.046262 0.920734 0.780056 0.251459
O32   O     O_3   0.327357 0.426448 0.101795 -0.631651
C58   C     C_3   0.400535 0.460638 0.202811 0.087002
H40   H     H_    0.445466 0.523818 0.232877 0.159068
H41   H     H_    0.441376 0.417099 0.207701 0.134133
C59   C     C_3   0.368917 0.480680 0.270515 -0.351043
H42   H     H_    0.327964 0.523596 0.263518 0.248689
H43   H     H_    0.326904 0.417791 0.244418 0.225751
C60   C     C_3   0.447284 0.527428 0.382233 -0.960157
H44   H     H_    0.486898 0.483773 0.390836 0.269590
H45   H     H_    0.422253 0.542721 0.429530 0.283306
H46   H     H_    0.490570 0.590603 0.410329 0.263601
O33   O     O_3   0.986586 0.295470 0.075970 -0.615829
C61   C     C_3   0.049108 0.354534 0.183047 0.075661
H47   H     H_    0.072251 0.318379 0.219560 0.161788
H48   H     H_    0.018835 0.399987 0.216252 0.120975
C62   C     C_3   0.130422 0.409503 0.207827 -0.319036
H49   H     H_    0.158941 0.364579 0.171447 0.226537
H50   H     H_    0.110094 0.449599 0.176668 0.213801
C63   C     C_3   0.201130 0.470568 0.323039 -0.918871
H51   H     H_    0.173289 0.514158 0.361537 0.264186
H52   H     H_    0.257987 0.512679 0.339872 0.299912
H53   H     H_    0.225886 0.430921 0.354073 0.260457
O34   O     O_3   0.174284 0.824765 0.902227 -0.627552
C64   C     C_3   0.080829 0.797872 0.851797 0.096571
H54   H     H_    0.060855 0.856505 0.861100 0.143495
H55   H     H_    0.058936 0.778038 0.887320 0.147336
C65   C     C_3   0.032651 0.726155 0.737237 -0.350550
H56   H     H_    0.041869 0.755730 0.701573 0.235448
H57   H     H_    0.061507 0.672316 0.725232 0.214956
C66   C     C_3   0.933361 0.685975 0.684061 -0.999795
H58   H     H_    0.923015 0.651555 0.714845 0.268920
H59   H     H_    0.900047 0.636783 0.600895 0.265775
H60   H     H_    0.902641 0.738387 0.695462 0.265902
O35   O     O_3   0.268489 0.775619 0.108525 -0.645786
C67   C     C_3   0.339216 0.748141 0.154593 0.103858
H61   H     H_    0.398785 0.782612 0.168089 0.152139
H62   H     H_    0.326677 0.675564 0.106921 0.139660
C68   C     C_3   0.362268 0.777011 0.258563 -0.303875
H63   H     H_    0.380270 0.850224 0.307503 0.221132
H64   H     H_    0.303593 0.745662 0.248802 0.237355
C69   C     C_3   0.440437 0.751254 0.311876 -0.995641
H65   H     H_    0.421577 0.677865 0.267796 0.273850
H66   H     H_    0.459422 0.777721 0.389549 0.256341
H67   H     H_    0.499132 0.779549 0.319501 0.270470
O36   O     O_3   0.182371 0.751572 0.600780 -0.583945
C70   C     C_3   0.115717 0.667882 0.536430 -0.315283
H68   H     H_    0.137334 0.612772 0.500800 0.160175
H69   H     H_    0.052446 0.665471 0.477248 0.165587
H70   H     H_    0.102329 0.657780 0.583330 0.185573
O37   O     O_3   0.284162 0.681332 0.435317 -0.615994
C71   C     C_3   0.337869 0.723285 0.423761 -0.311930
H71   H     H_    0.319106 0.778243 0.417540 0.138959
H72   H     H_    0.336869 0.673742 0.357067 0.212800
H73   H     H_    0.407770 0.752543 0.492123 0.186679
O38   O     O_3   0.001500 0.134593 0.043752 -0.585387
C72   C     C_3   0.969361 0.096741 0.940743 0.167485
H74   H     H_    0.023660 0.122156 0.940581 0.156864
H75   H     H_    0.913283 0.115539 0.899479 0.135841
C73   C     C_3   0.940150 0.995463 0.880472 -0.388689
H76   H     H_    0.999670 0.975409 0.906561 0.212612
H77   H     H_    0.897010 0.971310 0.894805 0.235754
C74   C     C_3   0.887800 0.951860 0.765793 -0.994752
H78   H     H_    0.823127 0.963334 0.737132 0.272288
H79   H     H_    0.874287 0.879273 0.725008 0.267247
H80   H     H_    0.925831 0.979505 0.748804 0.275209
O39   O     O_3   0.922849 0.062109 0.096898 -0.566989
C75   C     C_3   0.854763 0.979203 0.032162 -0.197070
H81   H     H_    0.886226 0.927633 0.025786 0.150920
H82   H     H_    0.805444 0.960477 0.953274 0.121750
H83   H     H_    0.820470 0.978025 0.066500 0.215767
O40   O     O_3   0.784663 0.115583 0.109270 -0.605933
C76   C     C_3   0.826162 0.182860 0.213526 -0.269948
H84   H     H_    0.813184 0.245190 0.225092 0.163344
H85   H     H_    0.899147 0.195855 0.259374 0.170666
H86   H     H_    0.797759 0.160296 0.242228 0.183817
O41   O     O_3   0.447438 0.289941 0.842753 -0.598789
C77   C     C_3   0.422886 0.300203 0.907071 -0.302906
H87   H     H_    0.477064 0.350785 0.989474 0.156990
H88   H     H_    0.401019 0.235296 0.892545 0.153631
H89   H     H_    0.365004 0.323374 0.888145 0.199864
O42   O     O_3   0.710700 0.356840 0.863406 -0.626377
C78   C     C_3   0.701616 0.435419 0.870305 -0.272328
H90   H     H_    0.712016 0.487254 0.943314 0.162236
H91   H     H_    0.636204 0.421111 0.803402 0.158395
H92   H     H_    0.753079 0.462145 0.867250 0.179949

loop_
_geom_bond_atom_site_label_1
_geom_bond_atom_site_label_2
_ccdc_geom_bond_type
C60   H46   S    
C73   H77   S    
O38   C72   S    
O7    Zn8   S    
O39   C75   S    
C11   H1    S    
O33   C61   S    
C61   C62   S    
O6    Zn6   S    
C4    C8    A    
O12   Zn4   S    
C1    O4    A    
C44   O33   S    
C6    C9    A    
O1    Zn1   S    
O30   C52   S    
C7    C8    A    
C30   O35   S    
C66   H58   S    
C45   C46   A    
C2    C46   A    
C27   O34   S    
C50   H21   S    
C16   O27   S    
O27   C47   S    
C75   H82   S    
O6    Zn5   S    
O16   Zn5   S    
O32   C58   S    
C61   H48   S    
C56   H35   S    
O22   Zn3   S    
C19   C36   S    
C57   H39   S    
C5    C6    A    
C60   H44   S    
C70   H70   S    
C73   C74   S    
C27   C29   S    
C67   H61   S    
C28   C40   S    
C52   H26   S    
O10   Zn7   S    
C77   H87   S    
C49   C50   S    
C18   C19   D    
C39   O10   A    
C62   C63   S    
C74   H79   S    
C25   O32   S    
C53   H28   S    
C54   H32   S    
C20   H4    S    
C36   O18   A    
C34   O22   A    
O1    Zn4   S    
C46   O39   S    
O13   Zn8   S    
C31   C32   D    
C16   C17   D    
C52   H27   S    
C75   H83   S    
C12   O20   A    
C12   C17   S    
C76   H86   S    
C62   H49   S    
C64   H55   S    
C2    O40   S    
C14   C16   S    
C39   O17   A    
C9    C10   A    
C32   H9    S    
C63   H52   S    
O23   Zn2   S    
C41   O13   A    
C56   C57   S    
C33   H10   S    
C70   H69   S    
C73   H76   S    
C58   H40   S    
C66   H59   S    
C68   H63   S    
C43   O26   A    
C74   H78   S    
C42   O23   A    
C15   H2    S    
C50   H22   S    
O8    Zn5   S    
O1    Zn3   S    
C19   O29   S    
C23   O2    A    
C14   H12   S    
C58   C59   S    
C1    C26   S    
C54   H31   S    
C75   H81   S    
C76   H84   S    
O35   C67   S    
O26   Zn1   S    
C63   H53   S    
C40   O11   A    
C17   H3    S    
O14   Zn7   S    
O40   C76   S    
C57   H37   S    
C21   C34   S    
C4    C44   A    
C55   C56   S    
C78   H90   S    
C70   H68   S    
C37   O19   A    
C22   C25   S    
O9    Zn6   S    
C51   H23   S    
C78   H92   S    
C53   C54   S    
C74   H80   S    
C49   H19   S    
C72   H75   S    
C15   C38   S    
C29   C30   D    
O3    Zn4   S    
C26   H6    S    
C65   C66   S    
C58   H41   S    
C45   O38   S    
C64   H54   S    
C77   H89   S    
C35   O37   S    
C52   C53   S    
C37   O8    A    
C31   C33   S    
C63   H51   S    
C64   C65   S    
C47   H13   S    
C32   C37   S    
C59   H42   S    
C59   C60   S    
C47   H14   S    
C51   H25   S    
C54   H30   S    
C68   H64   S    
O17   Zn8   S    
C71   H71   S    
C53   H29   S    
O20   Zn1   S    
C69   H65   S    
C48   H17   S    
C77   H88   S    
C66   H60   S    
C23   C35   S    
O31   C55   S    
C22   C24   D    
O6    Zn8   S    
C71   H72   S    
O11   Zn6   S    
C38   O9    A    
C44   C45   A    
C13   O42   S    
C65   H56   S    
C38   O16   A    
C68   C69   S    
C72   H74   S    
C60   H45   S    
C5    C41   S    
O19   Zn7   S    
C55   H34   S    
C40   O14   A    
O5    Zn3   S    
C36   O7    A    
C42   O25   A    
C59   H43   S    
C21   O30   S    
C3    C5    A    
O25   Zn3   S    
C18   C20   S    
C28   H7    S    
C6    C7    A    
C78   H91   S    
C50   H20   S    
C1    O12   A    
C47   H15   S    
C48   H16   S    
C31   O36   S    
C69   H67   S    
C71   H73   S    
C2    C3    A    
C25   C26   D    
C72   C73   S    
O15   Zn5   S    
C65   H57   S    
O29   C51   S    
C11   C13   A    
O37   C71   S    
O34   C64   S    
C67   H62   S    
C55   H33   S    
O24   Zn4   S    
C8    C43   S    
C69   H66   S    
C33   C35   D    
C9    H11   S    
C61   H47   S    
C62   H50   S    
C49   H18   S    
C51   H24   S    
O1    Zn2   S    
C34   O3    A    
C10   C11   A    
C41   O15   A    
O41   C77   S    
O42   C78   S    
C10   O41   S    
C7    C13   A    
C48   C49   S    
C20   C21   D    
C57   H38   S    
O28   C48   S    
C29   H8    S    
C27   C28   D    
C76   H85   S    
C43   O24   A    
C14   C15   D    
C30   C42   S    
O2    Zn1   S    
O4    Zn2   S    
C18   O28   S    
O6    Zn7   S    
C23   O21   A    
C24   O31   S    
C12   O5    A    
C24   C39   S    
O21   Zn2   S    
O36   C70   S    
C3    C4    A    
O18   Zn6   S    
C22   H5    S    
C56   H36   S    
C67   C68   S    
