data_mof_unit_5373.cif
_audit_creation_date              2012-12-10T17:03:53-0500
_audit_creation_method            fapswitch 2.2
_symmetry_space_group_name_H-M    P1
_symmetry_Int_Tables_number       1
_space_group_crystal_system       triclinic
_cell_length_a                    9.779849
_cell_length_b                    11.050608
_cell_length_c                    15.87292
_cell_angle_alpha                 94.811067
_cell_angle_beta                  78.414053
_cell_angle_gamma                 111.415162
_cell_volume                      1564.35913051

loop_
_atom_site_label
_atom_site_type_symbol
_atom_type_description
_atom_site_fract_x
_atom_site_fract_y
_atom_site_fract_z
_atom_type_partial_charge
C1    C     C_R   0.556225 0.745469 0.506184 0.867861
C2    C     C_R   0.443772 0.254529 0.493818 0.868116
C3    C     C_R   0.327605 0.493274 0.080347 -0.216875
C4    C     C_R   0.682439 0.557538 0.921704 -0.217592
C5    C     C_R   0.225834 0.478385 0.027304 -0.227211
C6    C     C_R   0.785120 0.577021 0.974936 -0.228468
C7    C     C_2   0.587951 0.884676 0.509564 -0.356422
C8    C     C_2   0.412036 0.115316 0.490444 -0.356961
C9    C     C_2   0.484339 0.930515 0.498446 -0.151275
C10   C     C_2   0.515628 0.069470 0.501586 -0.151203
C11   C     C_2   0.923319 0.489940 0.492640 -0.073731
C12   C     C_2   0.077369 0.511272 0.506541 -0.073069
C13   C     C_R   0.409633 0.487076 0.663342 0.806649
C14   C     C_R   0.590659 0.514211 0.336719 0.806077
C15   C     C_R   0.353844 0.482379 0.757847 -0.075595
C16   C     C_R   0.648432 0.527850 0.242556 -0.075252
C17   C     C_R   0.164497 0.464868 0.886408 -0.194650
C18   C     C_R   0.844370 0.579270 0.115355 -0.197305
C19   C     C_R   0.204390 0.467170 0.796520 0.172539
C20   C     C_R   0.802093 0.564098 0.204701 0.170502
C21   C     C_R   0.457695 0.496193 0.810958 -0.293109
C22   C     C_R   0.543170 0.506739 0.189194 -0.291936
C23   C     C_R   0.420444 0.500816 0.901122 0.085465
C24   C     C_R   0.585195 0.526818 0.099990 0.085980
C25   C     C_R   0.270130 0.481169 0.938320 0.121587
C26   C     C_R   0.738291 0.560880 0.063369 0.122575
C27   C     C_R   0.527797 0.522571 0.955242 0.079348
C28   C     C_R   0.479335 0.512891 0.046194 0.079219
Cu1   Cu    Cu3+1 0.362980 0.479380 0.485080 0.934260
Cu2   Cu    Cu3+1 0.637020 0.520620 0.514920 0.933714
H1    H     H_    0.110906 0.463866 0.056427 0.142574
H2    H     H_    0.902579 0.604893 0.946389 0.141874
H3    H     H_    0.427204 0.471983 0.218869 0.164390
H4    H     H_    0.567789 0.500684 0.780244 0.165707
H5    H     H_    0.050072 0.451122 0.916455 0.132846
H6    H     H_    0.961388 0.606785 0.085872 0.130955
H7    H     H_    0.283656 0.492883 0.148207 0.141626
H8    H     H_    0.729523 0.575187 0.854539 0.140952
H9    H     H_    0.624576 0.134673 0.513149 0.180466
H10   H     H_    0.375382 0.865309 0.486898 0.180230
H11   H     H_    0.303299 0.049849 0.478850 0.150064
H12   H     H_    0.696697 0.950145 0.521143 0.150084
H13   H     H_    0.123786 0.581548 0.554704 0.154307
H14   H     H_    0.877504 0.420771 0.443762 0.154582
H15   H     H_    0.110481 0.382114 0.417276 0.189681
H16   H     H_    0.888903 0.616792 0.583397 0.190076
N1    N     N_2   0.842890 0.551600 0.537350 -0.285697
N2    N     N_2   0.157110 0.448400 0.462650 -0.285769
O1    O     O_R   0.426810 0.668300 0.492040 -0.577565
O2    O     O_R   0.573190 0.331700 0.507960 -0.577157
O3    O     O_R   0.658240 0.703130 0.517240 -0.573679
O4    O     O_R   0.341760 0.296870 0.482760 -0.573487
O5    O     O_R   0.319390 0.472820 0.610170 -0.572949
O6    O     O_R   0.680610 0.527180 0.389830 -0.574013
O7    O     O_R   0.550820 0.507640 0.635370 -0.577761
O8    O     O_R   0.449180 0.492360 0.364630 -0.577288
C29   C     C_3   0.923088 0.586712 0.256402 -0.834024
H17   H     H_    0.925339 0.667573 0.303235 0.247898
H18   H     H_    0.903469 0.496465 0.290397 0.230146
H19   H     H_    0.035628 0.613654 0.215021 0.213875
C30   C     C_3   0.085395 0.453524 0.745134 -0.837271
H20   H     H_    0.068172 0.365822 0.703002 0.248875
H21   H     H_    0.976118 0.442725 0.787128 0.214556
H22   H     H_    0.118441 0.541826 0.706131 0.227657

loop_
_geom_bond_atom_site_label_1
_geom_bond_atom_site_label_2
_ccdc_geom_bond_type
C5    H1    S    
C30   H22   S    
C14   O8    A    
Cu2   O3    S    
Cu1   Cu2   S    
Cu1   O8    S    
C23   C27   A    
C1    O3    A    
Cu2   O7    S    
C18   C20   A    
C18   C26   A    
C12   N2    D    
C16   C20   A    
C17   C25   A    
C3    C5    A    
C13   C15   S    
C11   N1    D    
Cu2   O2    S    
C11   H14   S    
Cu1   O1    S    
C15   C19   A    
Cu2   O6    S    
C29   H17   S    
C6    C26   A    
C2    O4    A    
H15   N2    S    
C19   C30   S    
C5    C25   A    
C8    C10   D    
C3    C28   A    
C14   O6    A    
C24   C26   A    
C12   H13   S    
C13   O5    A    
C23   C25   A    
C21   C23   A    
C30   H20   S    
C22   C24   A    
C29   H18   S    
C13   O7    A    
Cu1   N2    S    
C7    C9    D    
Cu2   N1    S    
C15   C21   A    
C4    C27   A    
C17   H5    S    
C8    H11   S    
C3    H7    S    
C20   C29   S    
C4    C6    A    
C6    H2    S    
C9    C10   S    
C7    H12   S    
C27   C28   A    
C30   H21   S    
C22   H3    S    
H16   N1    S    
C29   H19   S    
C16   C22   A    
C21   H4    S    
C2    O2    A    
C17   C19   A    
C14   C16   S    
C1    C7    S    
C18   H6    S    
C9    H10   S    
C2    C8    S    
C24   C28   A    
C11   C12   S    
C4    H8    S    
C10   H9    S    
Cu1   O5    S    
Cu1   O4    S    
C1    O1    A    
