data_mof_unit_33967.cif
_audit_creation_date              2012-12-10T17:49:43-0500
_audit_creation_method            fapswitch 2.2
_symmetry_space_group_name_H-M    P1
_symmetry_Int_Tables_number       1
_space_group_crystal_system       triclinic
_cell_length_a                    10.494406
_cell_length_b                    10.718846
_cell_length_c                    9.901354
_cell_angle_alpha                 89.048626
_cell_angle_beta                  89.518706
_cell_angle_gamma                 91.864909
_cell_volume                      1112.99480115

loop_
_atom_site_label
_atom_site_type_symbol
_atom_type_description
_atom_site_fract_x
_atom_site_fract_y
_atom_site_fract_z
_atom_type_partial_charge
C1    C     C_R   0.507986 0.259938 0.502202 0.879715
C2    C     C_R   0.492895 0.057424 0.631486 0.091633
C3    C     C_R   0.514450 0.125979 0.508540 -0.099977
C4    C     C_R   0.257457 0.498672 0.500564 0.861897
C5    C     C_R   0.522048 0.064931 0.385312 -0.233765
C6    C     C_R   0.505487 0.937992 0.381624 -0.235685
C7    C     C_R   0.472584 0.871421 0.499705 -0.123922
C8    C     C_R   0.332335 0.335757 0.144095 -0.292937
C9    C     C_R   0.249448 0.253674 0.075831 0.550712
C10   C     C_R   0.247874 0.257675 0.935876 -0.263685
C11   C     C_R   0.331244 0.337846 0.863876 -0.280711
C12   C     C_3   0.961841 0.514488 0.370938 -0.178721
C13   C     C_R   0.417203 0.419489 0.929714 0.164322
C14   C     C_R   0.417467 0.419056 0.074265 0.115029
C15   C     C_R   0.578830 0.577450 0.069436 -0.117037
C16   C     C_R   0.487572 0.738879 0.499473 0.875857
C17   C     C_R   0.578879 0.577335 0.926238 -0.103346
C18   C     C_R   0.742585 0.500894 0.499368 0.925052
C19   C     C_3   0.038639 0.484977 0.629131 -0.224071
C20   C     C_3   0.954256 0.392983 0.550144 0.586535
C21   C     C_3   0.877668 0.501094 0.497956 -0.058265
C22   C     C_3   0.961110 0.595060 0.574840 -0.244887
C23   C     C_3   0.039572 0.403914 0.423552 -0.273566
C24   C     C_3   0.047880 0.608439 0.448031 -0.144374
C25   C     C_3   0.984752 0.190655 0.619846 -0.327066
C26   C     C_3   0.223907 0.093322 0.231114 -0.351013
C27   C     C_3   0.122558 0.498147 0.501505 -0.045689
C28   C     C_R   0.512411 0.105850 0.762668 -0.144543
C29   C     C_R   0.465306 0.041513 0.877109 -0.157353
C30   C     C_R   0.398503 0.928564 0.863212 -0.150472
C31   C     C_R   0.390853 0.874053 0.736691 -0.160330
C32   C     C_R   0.449865 0.933236 0.622167 0.087708
H1    H     H_    0.356703 0.881036 0.951012 0.139378
H2    H     H_    0.924427 0.672917 0.634982 0.153012
H3    H     H_    0.091814 0.696707 0.406400 0.134032
H4    H     H_    0.926429 0.527442 0.266448 0.165305
H5    H     H_    0.076659 0.326714 0.362805 0.175745
H6    H     H_    0.541636 0.115112 0.291083 0.174443
H7    H     H_    0.568032 0.190326 0.780274 0.188531
H8    H     H_    0.478583 0.080681 0.976306 0.136055
H9    H     H_    0.070665 0.225205 0.674644 0.143560
H10   H     H_    0.012590 0.153883 0.519903 0.167655
H11   H     H_    0.941112 0.111939 0.680033 0.201187
H12   H     H_    0.338963 0.785546 0.729431 0.159564
H13   H     H_    0.253128 0.140757 0.325350 0.159386
H14   H     H_    0.307135 0.050512 0.181412 0.161747
H15   H     H_    0.155931 0.016081 0.260721 0.196107
H16   H     H_    0.520641 0.892080 0.286391 0.171509
H17   H     H_    0.643168 0.640735 0.121585 0.140108
H18   H     H_    0.326115 0.332845 0.251020 0.215679
H19   H     H_    0.183048 0.195944 0.882270 0.170132
H20   H     H_    0.326445 0.332149 0.756828 0.227243
H21   H     H_    0.643238 0.640576 0.870639 0.148568
H22   H     H_    0.073780 0.471210 0.733630 0.160451
N1    N     N_R   0.498800 0.498800 0.142780 -0.105673
N2    N     N_R   0.498760 0.498720 0.857170 -0.114926
O1    O     O_R   0.500000 0.316780 0.614690 -0.648578
O2    O     O_3   0.161212 0.175868 0.143395 -0.608237
O3    O     O_R   0.499990 0.316750 0.385360 -0.641524
O4    O     O_R   0.313960 0.499980 0.614650 -0.650410
O5    O     O_R   0.313940 0.499960 0.385310 -0.632081
O6    O     O_R   0.500010 0.683250 0.614640 -0.625350
O7    O     O_R   0.500000 0.683220 0.385310 -0.623254
O8    O     O_R   0.686060 0.500040 0.614690 -0.602199
O9    O     O_R   0.686040 0.500020 0.385350 -0.625317
O10   O     O_3   0.893938 0.283614 0.604550 -0.608553
Zn1   Zn    Zn3+2 0.500010 0.500020 0.653130 0.935152
Zn2   Zn    Zn3+2 0.499990 0.499980 0.346870 0.934508

loop_
_geom_bond_atom_site_label_1
_geom_bond_atom_site_label_2
_ccdc_geom_bond_type
C25   H10   S    
C8    C9    A    
C2    C28   A    
C20   C23   S    
C6    C7    A    
C11   H20   S    
C16   O7    A    
C23   C27   S    
O3    Zn2   S    
C12   H4    S    
N2    Zn1   S    
C26   O2    S    
C9    C10   A    
C12   C24   S    
C19   C20   S    
C12   C23   S    
C24   C27   S    
C30   C31   A    
C3    C5    A    
O9    Zn2   S    
C4    O4    A    
C1    O3    A    
C14   N1    A    
C17   H21   S    
C13   N2    A    
C21   C22   S    
C18   O9    A    
C11   C13   A    
C17   N2    A    
C18   O8    A    
C29   C30   A    
C16   O6    A    
C26   H15   S    
O1    Zn1   S    
C12   C21   S    
C10   H19   S    
O6    Zn1   S    
C19   H22   S    
C20   O10   S    
C25   H11   S    
C2    C3    A    
C1    O1    A    
C15   H17   S    
C5    C6    A    
C22   H2    S    
C19   C22   S    
C22   C24   S    
C24   H3    S    
C31   H12   S    
C26   H14   S    
C28   H7    S    
C13   C14   A    
C18   C21   S    
O8    Zn1   S    
C8    H18   S    
C4    C27   S    
C5    H6    S    
C20   C21   S    
C29   H8    S    
C2    C32   A    
C9    O2    S    
C10   C11   A    
C25   H9    S    
C15   C17   A    
N1    Zn2   S    
O7    Zn2   S    
C28   C29   A    
C8    C14   A    
C7    C32   A    
C30   H1    S    
C1    C3    S    
O5    Zn2   S    
C23   H5    S    
C4    O5    A    
C7    C16   S    
C25   O10   S    
C31   C32   A    
O4    Zn1   S    
C15   N1    A    
C19   C27   S    
C26   H13   S    
C6    H16   S    
