data_mof_unit_51899.cif
_audit_creation_date              2012-10-26T21:29:55-0400
_audit_creation_method            fapswitch 2.2
_symmetry_space_group_name_H-M    P1
_symmetry_Int_Tables_number       1
_space_group_crystal_system       triclinic
_cell_length_a                    26.647992
_cell_length_b                    26.811762
_cell_length_c                    26.805982
_cell_angle_alpha                 90.030133
_cell_angle_beta                  90.016974
_cell_angle_gamma                 89.967792
_cell_volume                      19152.3213003

loop_
_atom_site_label
_atom_site_type_symbol
_atom_type_description
_atom_site_fract_x
_atom_site_fract_y
_atom_site_fract_z
_atom_type_partial_charge
C1    C     C_R   0.932272 0.699704 0.300300 0.526995
C2    C     C_R   0.067713 0.699694 0.300308 0.530183
C3    C     C_R   0.823619 0.113488 0.822282 -0.045558
C4    C     C_R   0.184143 0.880031 0.815993 -0.014488
C5    C     C_R   0.823597 0.113509 0.177747 -0.042780
C6    C     C_R   0.823611 0.886519 0.822308 -0.045451
C7    C     C_R   0.176357 0.113684 0.178166 -0.027175
C8    C     C_R   0.105773 0.170975 0.170982 -0.066190
C9    C     C_R   0.894170 0.828938 0.829006 -0.063829
C10   C     C_R   0.105795 0.171027 0.828997 -0.064098
C11   C     C_R   0.894219 0.828971 0.170971 -0.064512
C12   C     C_R   0.113516 0.823352 0.821882 -0.049707
C13   C     C_R   0.300277 0.300194 0.932056 0.539909
C14   C     C_R   0.894150 0.171060 0.171043 -0.062826
C15   C     C_R   0.105880 0.828895 0.171078 -0.062486
C16   C     C_R   0.894148 0.171085 0.828960 -0.063806
C17   C     C_R   0.823570 0.178285 0.886225 -0.017154
C18   C     C_R   0.176445 0.821707 0.113795 -0.018352
C19   C     C_R   0.823569 0.821722 0.886234 -0.017253
C20   C     C_R   0.176324 0.177668 0.113415 -0.044910
C21   C     C_R   0.178065 0.823405 0.886487 -0.050366
C22   C     C_R   0.823565 0.178268 0.113778 -0.016711
C23   C     C_R   0.176370 0.178193 0.886294 -0.027428
C24   C     C_R   0.701677 0.702139 0.070745 0.558052
C25   C     C_R   0.823597 0.821730 0.113752 -0.017076
C26   C     C_R   0.328157 0.392793 0.171903 -0.055914
C27   C     C_R   0.676386 0.613499 0.822264 -0.043012
C28   C     C_R   0.171869 0.392749 0.671948 -0.055416
C29   C     C_R   0.828092 0.607290 0.328001 -0.053573
C30   C     C_R   0.676407 0.386488 0.822251 -0.043100
C31   C     C_R   0.323635 0.613460 0.177689 -0.045912
C32   C     C_R   0.828063 0.392694 0.328011 -0.052550
C33   C     C_R   0.176329 0.613415 0.677645 -0.045571
C34   C     C_R   0.328097 0.607291 0.828005 -0.053238
C35   C     C_R   0.067694 0.300320 0.300324 0.524070
C36   C     C_R   0.676382 0.386512 0.177718 -0.045787
C37   C     C_R   0.171883 0.607251 0.328046 -0.052971
C38   C     C_R   0.823659 0.386556 0.677704 -0.042725
C39   C     C_R   0.676362 0.613461 0.177677 -0.046179
C40   C     C_R   0.328120 0.392757 0.828078 -0.055069
C41   C     C_R   0.823642 0.613455 0.677716 -0.042775
C42   C     C_R   0.171905 0.392730 0.328033 -0.056017
C43   C     C_R   0.606894 0.171787 0.671769 -0.052633
C44   C     C_R   0.394196 0.829006 0.328983 -0.064166
C45   C     C_R   0.605809 0.671050 0.828994 -0.062933
C46   C     C_R   0.933195 0.699113 0.699119 0.529762
C47   C     C_R   0.393178 0.328271 0.171714 -0.055201
C48   C     C_R   0.606869 0.828258 0.328238 -0.054957
C49   C     C_R   0.394173 0.170993 0.671058 -0.064281
C50   C     C_R   0.605855 0.328913 0.171042 -0.064000
C51   C     C_R   0.393067 0.671821 0.828175 -0.053302
C52   C     C_R   0.393113 0.828218 0.671776 -0.052940
C53   C     C_R   0.605775 0.171006 0.329018 -0.064194
C54   C     C_R   0.393144 0.328247 0.828273 -0.054436
C55   C     C_R   0.605809 0.671048 0.170975 -0.064559
C56   C     C_R   0.393104 0.171783 0.328206 -0.054941
C57   C     C_R   0.701683 0.297862 0.070739 0.557978
C58   C     C_R   0.606946 0.828168 0.671833 -0.052314
C59   C     C_R   0.394172 0.671041 0.171011 -0.063852
C60   C     C_R   0.605856 0.328935 0.828951 -0.062873
C61   C     C_R   0.828140 0.671936 0.392765 -0.054968
C62   C     C_R   0.171887 0.328025 0.607262 -0.053553
C63   C     C_R   0.323648 0.822323 0.386559 -0.044810
C64   C     C_R   0.671962 0.172026 0.607325 -0.049467
C65   C     C_R   0.171872 0.328080 0.392772 -0.056057
C66   C     C_R   0.823626 0.678170 0.613698 -0.026031
C67   C     C_R   0.676355 0.178173 0.386316 -0.026408
C68   C     C_R   0.300296 0.699784 0.932088 0.539811
C69   C     C_R   0.328039 0.827969 0.607325 -0.048656
C70   C     C_R   0.176388 0.678206 0.613706 -0.024589
C71   C     C_R   0.828033 0.327968 0.392669 -0.049271
C72   C     C_R   0.671893 0.828025 0.607269 -0.049891
C73   C     C_R   0.328128 0.171955 0.392748 -0.055395
C74   C     C_R   0.823641 0.321819 0.613692 -0.025792
C75   C     C_R   0.171889 0.671961 0.392750 -0.052691
C76   C     C_R   0.323648 0.177661 0.613437 -0.045158
C77   C     C_R   0.671884 0.828062 0.392752 -0.055286
C78   C     C_R   0.328046 0.892678 0.672019 -0.047886
C79   C     C_R   0.298330 0.070733 0.702124 0.545925
C80   C     C_R   0.676337 0.113436 0.322303 -0.042116
C81   C     C_R   0.671904 0.892713 0.671988 -0.052708
C82   C     C_R   0.328071 0.107314 0.327979 -0.050567
C83   C     C_R   0.671959 0.892671 0.327974 -0.053707
C84   C     C_R   0.323594 0.113733 0.678237 -0.023547
C85   C     C_R   0.323600 0.886270 0.321778 -0.023309
C86   C     C_R   0.671932 0.107301 0.671984 -0.052688
C87   C     C_R   0.105810 0.671045 0.670977 -0.064199
C88   C     C_R   0.893100 0.328207 0.328226 -0.052761
C89   C     C_R   0.106868 0.671767 0.328239 -0.052897
C90   C     C_R   0.699728 0.932049 0.300192 0.543728
C91   C     C_R   0.894225 0.328993 0.670982 -0.064318
C92   C     C_R   0.106836 0.328287 0.328273 -0.056952
C93   C     C_R   0.894184 0.671017 0.671020 -0.064426
C94   C     C_R   0.106890 0.328217 0.671779 -0.054622
C95   C     C_R   0.893104 0.671782 0.328207 -0.054811
C96   C     C_R   0.328108 0.671975 0.892730 -0.053352
C97   C     C_R   0.676434 0.321712 0.113778 -0.017163
C98   C     C_R   0.328058 0.327992 0.892702 -0.050320
C99   C     C_R   0.676417 0.678270 0.113758 -0.017342
C100  C     C_R   0.676440 0.321729 0.886218 -0.016653
C101  C     C_R   0.298334 0.929270 0.297874 0.543695
C102  C     C_R   0.323583 0.678246 0.113748 -0.017813
C103  C     C_R   0.676419 0.678279 0.886228 -0.016657
C104  C     C_R   0.328124 0.328044 0.107234 -0.053757
C105  C     C_R   0.797050 0.856245 0.143544 -0.045718
C106  C     C_R   0.202925 0.143683 0.856499 -0.045839
C107  C     C_R   0.126691 0.872925 0.190885 -0.022722
C108  C     C_R   0.873364 0.127017 0.809204 -0.030042
C109  C     C_R   0.206506 0.857253 0.857440 -0.047105
C110  C     C_R   0.797021 0.143765 0.143546 -0.042893
C111  C     C_R   0.873366 0.872997 0.809277 -0.029045
C112  C     C_R   0.067729 0.300297 0.699700 0.526808
C113  C     C_R   0.699712 0.067933 0.699796 0.534280
C114  C     C_R   0.126600 0.127125 0.191043 -0.033268
C115  C     C_R   0.797030 0.143773 0.856445 -0.045151
C116  C     C_R   0.202994 0.856201 0.143590 -0.042366
C117  C     C_R   0.126636 0.127031 0.809146 -0.019879
C118  C     C_R   0.873429 0.873046 0.190712 -0.030685
C119  C     C_R   0.202890 0.143421 0.143623 -0.048095
C120  C     C_R   0.797026 0.856266 0.856474 -0.045127
C121  C     C_R   0.873338 0.127046 0.190843 -0.026939
C122  C     C_R   0.142897 0.856922 0.793556 -0.047010
C123  C     C_R   0.126601 0.191080 0.872877 -0.034094
C124  C     C_R   0.699711 0.932074 0.699787 0.534378
C125  C     C_R   0.873358 0.808824 0.127164 -0.025089
C126  C     C_R   0.126712 0.808792 0.127236 -0.026862
C127  C     C_R   0.873301 0.191212 0.872783 -0.025094
C128  C     C_R   0.873315 0.808797 0.872798 -0.027166
C129  C     C_R   0.126575 0.190754 0.126951 -0.029992
C130  C     C_R   0.873312 0.191144 0.127210 -0.025355
C131  C     C_R   0.128926 0.810867 0.870875 -0.028527
C132  C     C_R   0.307956 0.372476 0.127507 -0.033750
C133  C     C_R   0.702974 0.643780 0.856425 -0.043736
C134  C     C_R   0.126981 0.372804 0.691616 -0.036110
C135  C     C_R   0.300278 0.067940 0.300198 0.547156
C136  C     C_R   0.872931 0.627278 0.308275 -0.028229
C137  C     C_R   0.702983 0.356235 0.856454 -0.043722
C138  C     C_R   0.297052 0.643711 0.143489 -0.045914
C139  C     C_R   0.872988 0.372771 0.308392 -0.028408
C140  C     C_R   0.126584 0.626967 0.690694 -0.030288
C141  C     C_R   0.307982 0.627540 0.872462 -0.034112
C142  C     C_R   0.702973 0.356228 0.143554 -0.045504
C143  C     C_R   0.126991 0.627207 0.308369 -0.028411
C144  C     C_R   0.873403 0.373019 0.690795 -0.025767
C145  C     C_R   0.702952 0.643720 0.143518 -0.045650
C146  C     C_R   0.701677 0.070701 0.297986 0.530866
C147  C     C_R   0.307881 0.372417 0.872428 -0.034741
C148  C     C_R   0.873363 0.627021 0.690848 -0.026477
C149  C     C_R   0.126982 0.372806 0.308388 -0.033503
C150  C     C_R   0.627004 0.127221 0.691600 -0.028517
C151  C     C_R   0.373346 0.872824 0.308881 -0.026969
C152  C     C_R   0.626658 0.691179 0.872817 -0.024190
C153  C     C_R   0.373021 0.308365 0.127185 -0.028502
C154  C     C_R   0.627064 0.872725 0.308294 -0.030429
C155  C     C_R   0.373317 0.127205 0.691206 -0.026805
C156  C     C_R   0.626706 0.308781 0.127223 -0.023530
C157  C     C_R   0.300284 0.932065 0.699799 0.551700
C158  C     C_R   0.372955 0.691677 0.872749 -0.030310
C159  C     C_R   0.372987 0.872776 0.691643 -0.027669
C160  C     C_R   0.626597 0.126979 0.309206 -0.023610
C161  C     C_R   0.372960 0.308320 0.872757 -0.023889
C162  C     C_R   0.626671 0.691199 0.127192 -0.024376
C163  C     C_R   0.372928 0.127283 0.308270 -0.025372
C164  C     C_R   0.627082 0.872707 0.691729 -0.028431
C165  C     C_R   0.373322 0.691142 0.127192 -0.023702
C166  C     C_R   0.626696 0.308848 0.872782 -0.023872
C167  C     C_R   0.873037 0.691580 0.372830 -0.035488
C168  C     C_R   0.432271 0.199704 0.300299 0.527125
C169  C     C_R   0.127033 0.308328 0.627236 -0.029300
C170  C     C_R   0.297068 0.856536 0.356319 -0.046575
C171  C     C_R   0.692162 0.127628 0.627627 -0.033951
C172  C     C_R   0.126925 0.308494 0.372871 -0.033566
C173  C     C_R   0.873376 0.691044 0.627143 -0.031999
C174  C     C_R   0.702898 0.143638 0.356542 -0.046794
C175  C     C_R   0.307793 0.872326 0.627669 -0.025413
C176  C     C_R   0.126663 0.691179 0.627179 -0.027806
C177  C     C_R   0.872944 0.308310 0.372736 -0.025805
C178  C     C_R   0.692003 0.872475 0.627516 -0.034730
C179  C     C_R   0.567753 0.800277 0.699719 0.530511
C180  C     C_R   0.307930 0.127586 0.372416 -0.032723
C181  C     C_R   0.873405 0.308921 0.627116 -0.030979
C182  C     C_R   0.126995 0.691641 0.372797 -0.030586
C183  C     C_R   0.297071 0.143460 0.643653 -0.046459
C184  C     C_R   0.692135 0.872387 0.372397 -0.033989
C185  C     C_R   0.797095 0.356345 0.643473 -0.046546
C186  C     C_R   0.192055 0.627532 0.372470 -0.033665
C187  C     C_R   0.626638 0.372982 0.190796 -0.030588
C188  C     C_R   0.372931 0.627285 0.808277 -0.029677
C189  C     C_R   0.192093 0.372436 0.372445 -0.034736
C190  C     C_R   0.298320 0.202013 0.570700 0.525669
C191  C     C_R   0.797091 0.643639 0.643444 -0.046100
C192  C     C_R   0.373081 0.372863 0.808500 -0.034467
C193  C     C_R   0.626593 0.626973 0.190688 -0.031242
C194  C     C_R   0.807972 0.627540 0.372457 -0.033269
C195  C     C_R   0.192022 0.372456 0.627526 -0.033199
C196  C     C_R   0.626623 0.627006 0.809210 -0.025660
C197  C     C_R   0.373100 0.372882 0.191525 -0.036911
C198  C     C_R   0.202902 0.643600 0.643418 -0.048191
C199  C     C_R   0.807832 0.372366 0.372367 -0.033705
C200  C     C_R   0.373385 0.626994 0.190766 -0.030336
C201  C     C_R   0.699693 0.800220 0.432095 0.528752
C202  C     C_R   0.626670 0.372948 0.809151 -0.025849
C203  C     C_R   0.626594 0.191076 0.372886 -0.032027
C204  C     C_R   0.372973 0.808333 0.627232 -0.026572
C205  C     C_R   0.627060 0.808310 0.627262 -0.024308
C206  C     C_R   0.373040 0.191580 0.372829 -0.036769
C207  C     C_R   0.373403 0.809252 0.373032 -0.028418
C208  C     C_R   0.627048 0.191682 0.627257 -0.026547
C209  C     C_R   0.373393 0.190702 0.626976 -0.028978
C210  C     C_R   0.626922 0.808499 0.372866 -0.033921
C211  C     C_2   0.741339 0.857245 0.141939 0.323646
C212  C     C_R   0.567722 0.199702 0.699701 0.530242
C213  C     C_2   0.258620 0.142524 0.858225 0.325478
C214  C     C_2   0.094435 0.905811 0.221776 0.282406
C215  C     C_2   0.905687 0.094052 0.778471 0.279674
C216  C     C_2   0.261176 0.864731 0.865676 0.330779
C217  C     C_2   0.741321 0.142743 0.141881 0.322143
C218  C     C_2   0.905664 0.905984 0.778615 0.277727
C219  C     C_2   0.094276 0.094228 0.221799 0.279181
C220  C     C_2   0.741322 0.142769 0.858072 0.324751
C221  C     C_2   0.258697 0.857191 0.141979 0.325742
C222  C     C_2   0.094396 0.094207 0.778188 0.280434
C223  C     C_R   0.298324 0.702137 0.070737 0.551674
C224  C     C_R   0.433206 0.800886 0.300896 0.527265
C225  C     C_2   0.905777 0.906046 0.221367 0.281023
C226  C     C_2   0.258581 0.141597 0.142409 0.324365
C227  C     C_2   0.741323 0.857349 0.858137 0.324855
C228  C     C_2   0.905608 0.094162 0.221705 0.282007
C229  C     C_2   0.135379 0.863714 0.738994 0.330285
C230  C     C_2   0.094261 0.221858 0.905805 0.278305
C231  C     C_2   0.905618 0.777861 0.094328 0.280662
C232  C     C_2   0.094451 0.777861 0.094390 0.281347
C233  C     C_2   0.905553 0.222168 0.905615 0.280695
C234  C     C_2   0.905567 0.777820 0.905612 0.282088
C235  C     C_R   0.701644 0.202098 0.429295 0.541685
C236  C     C_2   0.094261 0.221511 0.094010 0.280840
C237  C     C_2   0.905585 0.222005 0.094358 0.280233
C238  C     C_2   0.093550 0.786504 0.905870 0.268386
C239  C     C_2   0.270489 0.401466 0.098491 0.289028
C240  C     C_2   0.758682 0.642799 0.858012 0.321925
C241  C     C_2   0.097175 0.402407 0.727906 0.289422
C242  C     C_2   0.902560 0.597845 0.271701 0.289519
C243  C     C_2   0.758683 0.357263 0.858124 0.321982
C244  C     C_2   0.241352 0.642621 0.141765 0.325728
C245  C     C_2   0.902758 0.402333 0.272091 0.288213
C246  C     C_R   0.300275 0.800190 0.567944 0.548870
C247  C     C_2   0.094241 0.593992 0.721326 0.277562
C248  C     C_2   0.270668 0.598466 0.901523 0.287632
C249  C     C_2   0.758680 0.357235 0.141926 0.324960
C250  C     C_2   0.097262 0.597680 0.271958 0.287852
C251  C     C_2   0.905670 0.405923 0.721639 0.281493
C252  C     C_2   0.758656 0.642632 0.141854 0.324275
C253  C     C_2   0.270350 0.401384 0.901392 0.288855
C254  C     C_2   0.905615 0.594166 0.721761 0.282530
C255  C     C_2   0.097199 0.402374 0.272065 0.288076
C256  C     C_2   0.597222 0.097653 0.727886 0.288567
C257  C     C_R   0.432286 0.800305 0.699693 0.530634
C258  C     C_2   0.405610 0.905659 0.277996 0.276268
C259  C     C_2   0.594398 0.722128 0.905662 0.278761
C260  C     C_2   0.402736 0.271918 0.097673 0.289587
C261  C     C_2   0.597400 0.902172 0.271772 0.291251
C262  C     C_2   0.405549 0.094426 0.722237 0.276747
C263  C     C_2   0.594465 0.277808 0.094396 0.279106
C264  C     C_2   0.402652 0.728123 0.902255 0.291067
C265  C     C_2   0.402771 0.902360 0.727964 0.290439
C266  C     C_2   0.594332 0.094080 0.278354 0.278670
C267  C     C_2   0.402658 0.271857 0.902243 0.291261
C268  C     C_R   0.566781 0.199097 0.300897 0.527572
C269  C     C_2   0.594426 0.722195 0.094390 0.280317
C270  C     C_2   0.402578 0.097830 0.271729 0.293210
C271  C     C_2   0.597438 0.902154 0.728280 0.288544
C272  C     C_2   0.405584 0.722029 0.094355 0.278042
C273  C     C_2   0.594434 0.277972 0.905630 0.278489
C274  C     C_2   0.902874 0.727792 0.402478 0.288237
C275  C     C_2   0.097347 0.271866 0.597741 0.289726
C276  C     C_2   0.241370 0.858294 0.357445 0.324276
C277  C     C_2   0.729749 0.098687 0.598712 0.287915
C278  C     C_2   0.097048 0.272381 0.402547 0.287661
C279  C     C_R   0.298318 0.797985 0.429291 0.526937
C280  C     C_2   0.905711 0.721762 0.594221 0.276227
C281  C     C_2   0.758591 0.142435 0.358301 0.324097
C282  C     C_2   0.270077 0.901169 0.598824 0.290121
C283  C     C_2   0.094425 0.722193 0.594388 0.278683
C284  C     C_2   0.902657 0.271877 0.402243 0.291149
C285  C     C_2   0.729253 0.901579 0.598402 0.287555
C286  C     C_2   0.270459 0.098624 0.401388 0.287157
C287  C     C_2   0.905728 0.278114 0.594201 0.274936
C288  C     C_2   0.097266 0.728059 0.402329 0.289358
C289  C     C_2   0.241377 0.141695 0.642450 0.324464
C290  C     C_R   0.699726 0.199809 0.567948 0.544043
C291  C     C_2   0.729715 0.901290 0.401339 0.289284
C292  C     C_2   0.741401 0.357521 0.641736 0.323732
C293  C     C_2   0.229491 0.598500 0.401482 0.288400
C294  C     C_2   0.594318 0.405951 0.221528 0.279730
C295  C     C_2   0.402582 0.597833 0.771736 0.289887
C296  C     C_2   0.229613 0.401391 0.401416 0.290318
C297  C     C_2   0.741405 0.642421 0.641627 0.323895
C298  C     C_2   0.402993 0.402559 0.772429 0.287739
C299  C     C_2   0.594243 0.593978 0.221293 0.280380
C300  C     C_2   0.770593 0.598507 0.401477 0.288245
C301  C     C_R   0.567712 0.800306 0.300311 0.526789
C302  C     C_2   0.229391 0.401473 0.598477 0.289162
C303  C     C_2   0.594338 0.594074 0.778414 0.280907
C304  C     C_2   0.402976 0.402549 0.227699 0.289562
C305  C     C_2   0.258590 0.642292 0.641586 0.326796
C306  C     C_2   0.770235 0.401300 0.401276 0.287533
C307  C     C_2   0.405713 0.594045 0.221496 0.278404
C308  C     C_2   0.594408 0.405829 0.778277 0.281441
C309  C     C_2   0.594271 0.221883 0.405801 0.275367
C310  C     C_2   0.402724 0.771951 0.597676 0.290508
C311  C     C_2   0.597368 0.771861 0.597757 0.289864
C312  C     C_R   0.433195 0.199121 0.699112 0.527085
C313  C     C_2   0.402892 0.227770 0.402489 0.289352
C314  C     C_2   0.405726 0.778531 0.405994 0.277159
C315  C     C_2   0.597323 0.228100 0.597742 0.292034
C316  C     C_2   0.405725 0.221332 0.593987 0.276979
C317  C     C_2   0.597005 0.772449 0.402578 0.287719
C318  C     C_R   0.699707 0.800213 0.567917 0.536355
C319  C     C_R   0.701684 0.297855 0.929251 0.558322
C320  C     C_R   0.300308 0.199777 0.432099 0.537804
C321  C     C_R   0.798353 0.297899 0.570708 0.541859
C322  C     C_R   0.199697 0.699779 0.432093 0.537605
C323  C     C_R   0.798313 0.570713 0.702023 0.540167
C324  C     C_R   0.199707 0.432073 0.300213 0.530307
C325  C     C_R   0.800312 0.699769 0.432107 0.535277
C326  C     C_R   0.199706 0.300211 0.567917 0.529566
C327  C     C_R   0.800286 0.432065 0.300202 0.534313
C328  C     C_R   0.201666 0.570689 0.702002 0.525446
C329  C     C_R   0.201665 0.702120 0.570726 0.545217
C330  C     C_R   0.066804 0.699114 0.699116 0.527400
C331  C     C_R   0.800272 0.300189 0.432050 0.544196
C332  C     C_R   0.199693 0.432096 0.699771 0.537831
C333  C     C_R   0.800284 0.567932 0.300206 0.533381
C334  C     C_R   0.199691 0.300225 0.432100 0.530512
C335  C     C_R   0.798347 0.702108 0.570712 0.540193
C336  C     C_R   0.199697 0.567912 0.300221 0.530155
C337  C     C_R   0.798321 0.429296 0.702017 0.540324
C338  C     C_R   0.701686 0.570715 0.202020 0.535680
C339  C     C_R   0.300310 0.432096 0.800228 0.531215
C340  C     C_R   0.433191 0.699116 0.199120 0.527265
C341  C     C_R   0.932278 0.300297 0.300299 0.530586
C342  C     C_R   0.566815 0.300876 0.800872 0.530246
C343  C     C_R   0.300324 0.432115 0.199757 0.537508
C344  C     C_R   0.701701 0.570732 0.797966 0.540435
C345  C     C_R   0.566816 0.300877 0.199126 0.527742
C346  C     C_R   0.432251 0.699720 0.800283 0.529638
C347  C     C_R   0.300288 0.567929 0.800209 0.529645
C348  C     C_R   0.701697 0.429282 0.202019 0.535919
C349  C     C_R   0.566791 0.699108 0.800888 0.530385
C350  C     C_R   0.432306 0.300322 0.199676 0.527033
C351  C     C_R   0.701711 0.429257 0.797959 0.540364
C352  C     C_R   0.701676 0.702136 0.929256 0.558287
C353  C     C_R   0.298311 0.570716 0.202016 0.525527
C354  C     C_R   0.432294 0.300313 0.800313 0.527175
C355  C     C_R   0.566798 0.699110 0.199113 0.526725
C356  C     C_R   0.933181 0.199124 0.800873 0.526883
C357  C     C_R   0.066830 0.800867 0.199137 0.529990
C358  C     C_R   0.798318 0.202143 0.070747 0.558238
C359  C     C_R   0.201406 0.798693 0.929986 0.536055
C360  C     C_R   0.066785 0.199107 0.199096 0.523207
C361  C     C_R   0.933203 0.800889 0.800886 0.537927
C362  C     C_R   0.201649 0.202103 0.929289 0.550438
C363  C     C_R   0.300303 0.300219 0.067909 0.531292
C364  C     C_R   0.798330 0.797868 0.070736 0.558195
C365  C     C_R   0.933216 0.800899 0.199104 0.526467
C366  C     C_R   0.066791 0.199107 0.800890 0.526832
C367  C     C_R   0.798319 0.797858 0.929252 0.558214
C368  C     C_R   0.201669 0.202007 0.070694 0.533309
C369  C     C_R   0.069972 0.798688 0.798530 0.523338
C370  C     C_R   0.933183 0.199124 0.199129 0.530024
C371  C     C_R   0.201687 0.797860 0.070747 0.557515
C372  C     C_R   0.798319 0.202136 0.929262 0.557992
C373  C     C_R   0.798291 0.070741 0.202040 0.537218
C374  C     C_R   0.933220 0.300903 0.699103 0.526998
C375  C     C_R   0.205170 0.926215 0.794834 0.562572
C376  C     C_R   0.798299 0.929273 0.797970 0.536422
C377  C     C_R   0.201645 0.070707 0.202104 0.551814
C378  C     C_R   0.201718 0.929258 0.202043 0.541678
C379  C     C_R   0.798303 0.070718 0.797980 0.536192
C380  C     C_R   0.201696 0.070724 0.797964 0.549817
C381  C     C_R   0.798317 0.929289 0.202014 0.539013
C382  C     C_R   0.823648 0.886540 0.177688 -0.046208
C383  C     C_R   0.176370 0.113481 0.822254 -0.036041
C384  C     C_R   0.176418 0.886469 0.177775 -0.036871
Cu1   Cu    Cu3+1 0.000000 0.784800 0.284800 1.179769
Cu2   Cu    Cu3+1 0.784800 0.715200 0.000000 1.098152
Cu3   Cu    Cu3+1 0.215200 0.000000 0.715200 1.095228
Cu4   Cu    Cu3+1 0.784800 0.000000 0.284800 1.129323
Cu5   Cu    Cu3+1 0.215200 0.715200 0.000000 1.145310
Cu6   Cu    Cu3+1 0.784800 0.284800 0.000000 1.097978
Cu7   Cu    Cu3+1 0.215200 0.000000 0.284800 1.144255
Cu8   Cu    Cu3+1 0.784800 0.000000 0.715200 1.185018
Cu9   Cu    Cu3+1 0.715200 0.000000 0.784800 1.040801
Cu10  Cu    Cu3+1 0.284800 0.000000 0.215200 1.067292
Cu11  Cu    Cu3+1 0.000000 0.715200 0.784800 1.186773
Cu12  Cu    Cu3+1 0.000000 0.215200 0.715200 1.177945
Cu13  Cu    Cu3+1 0.000000 0.284800 0.215200 1.175350
Cu14  Cu    Cu3+1 0.284800 0.000000 0.784800 1.074783
Cu15  Cu    Cu3+1 0.715200 0.000000 0.215200 1.049880
Cu16  Cu    Cu3+1 0.000000 0.284800 0.784800 1.179589
Cu17  Cu    Cu3+1 0.000000 0.715200 0.215200 1.175006
Cu18  Cu    Cu3+1 0.500000 0.284800 0.284800 1.181060
Cu19  Cu    Cu3+1 0.500000 0.715200 0.715200 1.174819
Cu20  Cu    Cu3+1 0.284800 0.284800 0.500000 1.178054
Cu21  Cu    Cu3+1 0.715200 0.715200 0.500000 1.123941
Cu22  Cu    Cu3+1 0.500000 0.284800 0.715200 1.178433
Cu23  Cu    Cu3+1 0.284800 0.784800 0.000000 1.072491
Cu24  Cu    Cu3+1 0.500000 0.715200 0.284800 1.181799
Cu25  Cu    Cu3+1 0.715200 0.284800 0.500000 1.134433
Cu26  Cu    Cu3+1 0.284800 0.715200 0.500000 1.135478
Cu27  Cu    Cu3+1 0.715200 0.500000 0.715200 1.068426
Cu28  Cu    Cu3+1 0.284800 0.500000 0.284800 1.178637
Cu29  Cu    Cu3+1 0.715200 0.500000 0.284800 1.185907
Cu30  Cu    Cu3+1 0.284800 0.500000 0.715200 1.109890
Cu31  Cu    Cu3+1 0.500000 0.784800 0.784800 1.172163
Cu32  Cu    Cu3+1 0.500000 0.215200 0.215200 1.170046
Cu33  Cu    Cu3+1 0.784800 0.784800 0.500000 1.177225
Cu34  Cu    Cu3+1 0.715200 0.215200 0.000000 1.094048
Cu35  Cu    Cu3+1 0.215200 0.215200 0.500000 1.105963
Cu36  Cu    Cu3+1 0.500000 0.784800 0.215200 1.172376
Cu37  Cu    Cu3+1 0.500000 0.215200 0.784800 1.170453
Cu38  Cu    Cu3+1 0.215200 0.784800 0.500000 1.117839
Cu39  Cu    Cu3+1 0.784800 0.215200 0.500000 1.134890
Cu40  Cu    Cu3+1 0.215200 0.500000 0.215200 1.107000
Cu41  Cu    Cu3+1 0.784800 0.500000 0.784800 1.062398
Cu42  Cu    Cu3+1 0.215200 0.500000 0.784800 1.176075
Cu43  Cu    Cu3+1 0.784800 0.500000 0.215200 1.042347
Cu44  Cu    Cu3+1 0.000000 0.784800 0.715200 1.123352
Cu45  Cu    Cu3+1 0.000000 0.215200 0.284800 1.177298
Cu46  Cu    Cu3+1 0.715200 0.784800 0.000000 1.095524
Cu47  Cu    Cu3+1 0.284800 0.215200 0.000000 1.058328
Cu48  Cu    Cu3+1 0.215200 0.284800 0.000000 1.187592
H1    H     H_    0.721581 0.888488 0.125367 0.129581
H2    H     H_    0.278407 0.888388 0.125317 0.126022
H3    H     H_    0.066118 0.071244 0.796027 0.050373
H4    H     H_    0.933827 0.929087 0.203273 0.051523
H5    H     H_    0.278088 0.124503 0.111278 0.131112
H6    H     H_    0.721642 0.888623 0.874762 0.128918
H7    H     H_    0.933770 0.071070 0.203786 0.052028
H8    H     H_    0.102920 0.883788 0.725017 0.126301
H9    H     H_    0.065825 0.203911 0.928495 0.051695
H10   H     H_    0.934141 0.795655 0.071626 0.050304
H11   H     H_    0.065950 0.795686 0.071641 0.051688
H12   H     H_    0.278207 0.111467 0.875348 0.127808
H13   H     H_    0.934077 0.204365 0.928352 0.049821
H14   H     H_    0.934098 0.795601 0.928350 0.055380
H15   H     H_    0.066144 0.203511 0.070936 0.051779
H16   H     H_    0.934065 0.204125 0.071625 0.049232
H17   H     H_    0.069402 0.809306 0.929139 0.049254
H18   H     H_    0.283159 0.428557 0.071227 0.052291
H19   H     H_    0.778453 0.611579 0.874610 0.128272
H20   H     H_    0.069788 0.429137 0.714403 0.056210
H21   H     H_    0.930024 0.571062 0.284938 0.049630
H22   H     H_    0.778366 0.388512 0.874763 0.128100
H23   H     H_    0.066275 0.928915 0.203875 0.049016
H24   H     H_    0.221726 0.611372 0.125056 0.132588
H25   H     H_    0.930159 0.429036 0.285582 0.048821
H26   H     H_    0.066192 0.570933 0.703213 0.048189
H27   H     H_    0.283481 0.571237 0.928603 0.052534
H28   H     H_    0.778379 0.388467 0.125318 0.129529
H29   H     H_    0.069857 0.570952 0.285349 0.048680
H30   H     H_    0.933773 0.429018 0.703697 0.049968
H31   H     H_    0.778331 0.611369 0.125202 0.129989
H32   H     H_    0.282956 0.428613 0.928584 0.049962
H33   H     H_    0.933805 0.571077 0.703882 0.051490
H34   H     H_    0.933785 0.070975 0.796501 0.051419
H35   H     H_    0.069786 0.429098 0.285538 0.049077
H36   H     H_    0.569805 0.070973 0.714381 0.050441
H37   H     H_    0.434076 0.928399 0.295867 0.045986
H38   H     H_    0.565909 0.704319 0.928396 0.046043
H39   H     H_    0.430175 0.285265 0.070950 0.051793
H40   H     H_    0.569902 0.928903 0.285057 0.055535
H41   H     H_    0.434089 0.071663 0.704488 0.044925
H42   H     H_    0.565962 0.295600 0.071627 0.045883
H43   H     H_    0.430075 0.714775 0.929026 0.054007
H44   H     H_    0.430157 0.929064 0.714489 0.047409
H45   H     H_    0.274524 0.884776 0.898257 0.116699
H46   H     H_    0.566225 0.070986 0.296291 0.045896
H47   H     H_    0.430127 0.285188 0.928973 0.048596
H48   H     H_    0.565873 0.704431 0.071664 0.047667
H49   H     H_    0.430052 0.071072 0.284998 0.051548
H50   H     H_    0.570000 0.928952 0.715021 0.049436
H51   H     H_    0.434074 0.704170 0.071618 0.045344
H52   H     H_    0.565977 0.295843 0.928396 0.045085
H53   H     H_    0.930212 0.714227 0.429225 0.053516
H54   H     H_    0.069900 0.285198 0.570986 0.051989
H55   H     H_    0.221771 0.875101 0.388672 0.132846
H56   H     H_    0.721634 0.111494 0.125245 0.127505
H57   H     H_    0.717198 0.071366 0.571588 0.051843
H58   H     H_    0.069710 0.286041 0.429246 0.049810
H59   H     H_    0.934131 0.703765 0.571508 0.047292
H60   H     H_    0.778136 0.111397 0.375508 0.132586
H61   H     H_    0.282508 0.928397 0.571591 0.048622
H62   H     H_    0.065917 0.704435 0.571603 0.046706
H63   H     H_    0.930096 0.285236 0.428992 0.049431
H64   H     H_    0.716380 0.928709 0.571248 0.049432
H65   H     H_    0.283124 0.071467 0.428608 0.053119
H66   H     H_    0.934158 0.296041 0.571487 0.044962
H67   H     H_    0.933554 0.929234 0.796720 0.053589
H68   H     H_    0.069862 0.714685 0.429075 0.053709
H69   H     H_    0.221832 0.124774 0.611250 0.133303
H70   H     H_    0.717157 0.928384 0.428694 0.052288
H71   H     H_    0.721830 0.388570 0.624580 0.131413
H72   H     H_    0.216794 0.571243 0.428566 0.052155
H73   H     H_    0.566248 0.429059 0.203495 0.049754
H74   H     H_    0.430041 0.571059 0.785003 0.052465
H75   H     H_    0.216997 0.428579 0.428652 0.050240
H76   H     H_    0.721918 0.611343 0.624436 0.131212
H77   H     H_    0.430337 0.429211 0.786135 0.051794
H78   H     H_    0.065836 0.071535 0.203825 0.052135
H79   H     H_    0.566209 0.570918 0.203159 0.050543
H80   H     H_    0.783344 0.571274 0.428582 0.051939
H81   H     H_    0.216630 0.428547 0.571217 0.052045
H82   H     H_    0.566262 0.570978 0.796395 0.048395
H83   H     H_    0.430323 0.429225 0.214086 0.056503
H84   H     H_    0.278046 0.611182 0.624390 0.133827
H85   H     H_    0.782777 0.428623 0.428402 0.051951
H86   H     H_    0.433826 0.570979 0.203467 0.048253
H87   H     H_    0.566269 0.428953 0.796191 0.048645
H88   H     H_    0.565843 0.203957 0.428517 0.045889
H89   H     H_    0.721620 0.111537 0.874677 0.128922
H90   H     H_    0.430131 0.785359 0.570951 0.048711
H91   H     H_    0.569971 0.785206 0.570959 0.046241
H92   H     H_    0.430250 0.214184 0.429207 0.055104
H93   H     H_    0.433799 0.796561 0.429096 0.044645
H94   H     H_    0.569869 0.214727 0.571016 0.052009
H95   H     H_    0.433732 0.203222 0.570861 0.045227
H96   H     H_    0.569664 0.786165 0.429244 0.050903
O1    O     O_R   0.947350 0.816370 0.242430 -0.475722
O2    O     O_R   0.052650 0.816370 0.242430 -0.472985
O3    O     O_R   0.257570 0.183630 0.447350 -0.475886
O4    O     O_R   0.552650 0.816370 0.257570 -0.478966
O5    O     O_R   0.447350 0.183630 0.742430 -0.475255
O6    O     O_R   0.257570 0.816370 0.447350 -0.554974
O7    O     O_R   0.742430 0.183630 0.552650 -0.479954
O8    O     O_R   0.447350 0.183630 0.257570 -0.477856
O9    O     O_R   0.552650 0.816370 0.742430 -0.479313
O10   O     O_R   0.742430 0.183630 0.447350 -0.531661
O11   O     O_R   0.257570 0.816370 0.552650 -0.475995
O12   O     O_R   0.552650 0.183630 0.742430 -0.478215
O13   O     O_R   0.242430 0.183630 0.947350 -0.527924
O14   O     O_R   0.447350 0.816370 0.257570 -0.476141
O15   O     O_R   0.257570 0.183630 0.552650 -0.554561
O16   O     O_R   0.742430 0.816370 0.447350 -0.480523
O17   O     O_R   0.183630 0.742430 0.552650 -0.460769
O18   O     O_R   0.816370 0.257570 0.447350 -0.470649
O19   O     O_R   0.183630 0.552650 0.257570 -0.483490
O20   O     O_R   0.816370 0.447350 0.742430 -0.457519
O21   O     O_R   0.183630 0.257570 0.447350 -0.473789
O22   O     O_R   0.816370 0.742430 0.552650 -0.465536
O23   O     O_R   0.183630 0.447350 0.742430 -0.471386
O24   O     O_R   0.757570 0.816370 0.052650 -0.531620
O25   O     O_R   0.816370 0.552650 0.257570 -0.481012
O26   O     O_R   0.816370 0.257570 0.552650 -0.464594
O27   O     O_R   0.183630 0.742430 0.447350 -0.479594
O28   O     O_R   0.816370 0.447350 0.257570 -0.480469
O29   O     O_R   0.183630 0.552650 0.742430 -0.460412
O30   O     O_R   0.816370 0.742430 0.447350 -0.472577
O31   O     O_R   0.183630 0.257570 0.552650 -0.483592
O32   O     O_R   0.816370 0.552650 0.742430 -0.457711
O33   O     O_R   0.183630 0.447350 0.257570 -0.474390
O34   O     O_R   0.257570 0.552650 0.816370 -0.480869
O35   O     O_R   0.052650 0.183630 0.242430 -0.476006
O36   O     O_R   0.742430 0.447350 0.183630 -0.549878
O37   O     O_R   0.447350 0.257570 0.816370 -0.478767
O38   O     O_R   0.552650 0.742430 0.183630 -0.474573
O39   O     O_R   0.742430 0.447350 0.816370 -0.548361
O40   O     O_R   0.257570 0.552650 0.183630 -0.554526
O41   O     O_R   0.552650 0.742430 0.816370 -0.474558
O42   O     O_R   0.447350 0.257570 0.183630 -0.477425
O43   O     O_R   0.742430 0.552650 0.183630 -0.549799
O44   O     O_R   0.257570 0.447350 0.816370 -0.479228
O45   O     O_R   0.552650 0.257570 0.183630 -0.476004
O46   O     O_R   0.947350 0.816370 0.757570 -0.473342
O47   O     O_R   0.447350 0.742430 0.816370 -0.477324
O48   O     O_R   0.257570 0.447350 0.183630 -0.475785
O49   O     O_R   0.742430 0.552650 0.816370 -0.548480
O50   O     O_R   0.447350 0.742430 0.183630 -0.475269
O51   O     O_R   0.552650 0.257570 0.816370 -0.474656
O52   O     O_R   0.947350 0.316370 0.742430 -0.475352
O53   O     O_R   0.052650 0.683630 0.257570 -0.478843
O54   O     O_R   0.742430 0.316370 0.052650 -0.531624
O55   O     O_R   0.257570 0.683630 0.947350 -0.479146
O56   O     O_R   0.052650 0.316370 0.257570 -0.480890
O57   O     O_R   0.757570 0.183630 0.052650 -0.531730
O58   O     O_R   0.947350 0.683630 0.742430 -0.473642
O59   O     O_R   0.257570 0.316370 0.947350 -0.480603
O60   O     O_R   0.742430 0.683630 0.052650 -0.531420
O61   O     O_R   0.947350 0.683630 0.257570 -0.479312
O62   O     O_R   0.052650 0.316370 0.742430 -0.480111
O63   O     O_R   0.742430 0.683630 0.947350 -0.531636
O64   O     O_R   0.257570 0.316370 0.052650 -0.480367
O65   O     O_R   0.052650 0.683630 0.742430 -0.477287
O66   O     O_R   0.947350 0.316370 0.257570 -0.478160
O67   O     O_R   0.257570 0.683630 0.052650 -0.532646
O68   O     O_R   0.242430 0.816370 0.947350 -0.549504
O69   O     O_R   0.742430 0.316370 0.947350 -0.531458
O70   O     O_R   0.683630 0.742430 0.052650 -0.458101
O71   O     O_R   0.316370 0.257570 0.947350 -0.472380
O72   O     O_R   0.683630 0.052650 0.257570 -0.463610
O73   O     O_R   0.316370 0.947350 0.742430 -0.467665
O74   O     O_R   0.683630 0.257570 0.947350 -0.457881
O75   O     O_R   0.316370 0.742430 0.052650 -0.461205
O76   O     O_R   0.683630 0.947350 0.742430 -0.480965
O77   O     O_R   0.316370 0.052650 0.257570 -0.467975
O78   O     O_R   0.316370 0.257570 0.052650 -0.482735
O79   O     O_R   0.183630 0.242430 0.052650 -0.455523
O80   O     O_R   0.683630 0.742430 0.947350 -0.457897
O81   O     O_R   0.316370 0.947350 0.257570 -0.471232
O82   O     O_R   0.683630 0.052650 0.742430 -0.480602
O83   O     O_R   0.316370 0.742430 0.947350 -0.475386
O84   O     O_R   0.683630 0.257570 0.052650 -0.458076
O85   O     O_R   0.316370 0.052650 0.742430 -0.470074
O86   O     O_R   0.683630 0.947350 0.257570 -0.475410
O87   O     O_R   0.257570 0.052650 0.316370 -0.478351
O88   O     O_R   0.742430 0.947350 0.683630 -0.478761
O89   O     O_R   0.947350 0.257570 0.316370 -0.478515
O90   O     O_R   0.816370 0.757570 0.947350 -0.458102
O91   O     O_R   0.052650 0.742430 0.683630 -0.478718
O92   O     O_R   0.742430 0.947350 0.316370 -0.474386
O93   O     O_R   0.257570 0.052650 0.683630 -0.529671
O94   O     O_R   0.052650 0.742430 0.316370 -0.478394
O95   O     O_R   0.947350 0.257570 0.683630 -0.477596
O96   O     O_R   0.742430 0.052650 0.683630 -0.479332
O97   O     O_R   0.257570 0.947350 0.316370 -0.531020
O98   O     O_R   0.052650 0.257570 0.683630 -0.478069
O99   O     O_R   0.947350 0.742430 0.316370 -0.480655
O100  O     O_R   0.257570 0.947350 0.683630 -0.475235
O101  O     O_R   0.183630 0.052650 0.757570 -0.451629
O102  O     O_R   0.742430 0.052650 0.316370 -0.552112
O103  O     O_R   0.947350 0.742430 0.683630 -0.473750
O104  O     O_R   0.052650 0.257570 0.316370 -0.480274
O105  O     O_2   0.717339 0.821988 0.158050 -0.419247
O106  O     O_2   0.282777 0.177390 0.841513 -0.419267
O107  O     O_2   0.097822 0.905679 0.267221 -0.405858
O108  O     O_2   0.902424 0.094077 0.733018 -0.409219
O109  O     O_2   0.291424 0.849503 0.835029 -0.406962
O110  O     O_2   0.717251 0.177976 0.158037 -0.419484
O111  O     O_2   0.902544 0.905863 0.733152 -0.413323
O112  O     O_R   0.052650 0.183630 0.757570 -0.473190
O113  O     O_R   0.816370 0.947350 0.242430 -0.450505
O114  O     O_2   0.097812 0.094022 0.267232 -0.406886
O115  O     O_2   0.717264 0.178010 0.841938 -0.415845
O116  O     O_2   0.282741 0.821987 0.158214 -0.416427
O117  O     O_2   0.097871 0.094305 0.732751 -0.413359
O118  O     O_2   0.902595 0.906086 0.266823 -0.406211
O119  O     O_2   0.282828 0.158173 0.177320 -0.422306
O120  O     O_2   0.717244 0.822130 0.842007 -0.415540
O121  O     O_2   0.902237 0.094289 0.267149 -0.413383
O122  O     O_2   0.166534 0.847928 0.709553 -0.410403
O123  O     O_2   0.097780 0.267279 0.906039 -0.405569
O124  O     O_R   0.183630 0.757570 0.947350 -0.452220
O125  O     O_2   0.901944 0.732451 0.094208 -0.408019
O126  O     O_2   0.098116 0.732445 0.094291 -0.405245
O127  O     O_2   0.901860 0.267582 0.905708 -0.409040
O128  O     O_2   0.901872 0.732411 0.905681 -0.408298
O129  O     O_2   0.097540 0.266950 0.094062 -0.407372
O130  O     O_2   0.901958 0.267423 0.094243 -0.407426
O131  O     O_2   0.091194 0.741108 0.908708 -0.414814
O132  O     O_2   0.225563 0.395066 0.104982 -0.407614
O133  O     O_2   0.782662 0.678040 0.841837 -0.419794
O134  O     O_2   0.103094 0.396894 0.772772 -0.401540
O135  O     O_R   0.816370 0.242430 0.052650 -0.457659
O136  O     O_2   0.896402 0.603570 0.226890 -0.415031
O137  O     O_2   0.782758 0.322032 0.841969 -0.419500
O138  O     O_2   0.217216 0.677801 0.157942 -0.415921
O139  O     O_2   0.896798 0.396798 0.227225 -0.414241
O140  O     O_2   0.097433 0.593983 0.766783 -0.411528
O141  O     O_2   0.225709 0.604870 0.895192 -0.411830
O142  O     O_2   0.782741 0.321996 0.158060 -0.415770
O143  O     O_2   0.103266 0.603265 0.227114 -0.413551
O144  O     O_2   0.902350 0.405826 0.767087 -0.418416
O145  O     O_2   0.782740 0.677835 0.158013 -0.418922
O146  O     O_R   0.183630 0.947350 0.242430 -0.452666
O147  O     O_2   0.225440 0.394864 0.894879 -0.403423
O148  O     O_2   0.902200 0.594317 0.767202 -0.417503
O149  O     O_2   0.103149 0.396822 0.227205 -0.405496
O150  O     O_2   0.603180 0.103166 0.772755 -0.414862
O151  O     O_2   0.401986 0.905760 0.232568 -0.422075
O152  O     O_2   0.598044 0.767541 0.905772 -0.410811
O153  O     O_2   0.396695 0.227092 0.103280 -0.413277
O154  O     O_2   0.603537 0.896488 0.226952 -0.414438
O155  O     O_2   0.401818 0.094404 0.767654 -0.420708
O156  O     O_2   0.598156 0.232394 0.094332 -0.413305
O157  O     O_R   0.816370 0.052650 0.757570 -0.453779
O158  O     O_2   0.396593 0.772949 0.896611 -0.404779
O159  O     O_2   0.396840 0.896845 0.772826 -0.396745
O160  O     O_2   0.597657 0.094182 0.232907 -0.422370
O161  O     O_2   0.396581 0.227035 0.896595 -0.404962
O162  O     O_2   0.598143 0.767602 0.094325 -0.410102
O163  O     O_2   0.396441 0.103522 0.226912 -0.402188
O164  O     O_2   0.603566 0.896434 0.773095 -0.415090
O165  O     O_2   0.401939 0.767447 0.094257 -0.412566
O166  O     O_2   0.598056 0.232553 0.905717 -0.411559
O167  O     O_2   0.897021 0.772663 0.396998 -0.402971
O168  O     O_R   0.816370 0.757570 0.052650 -0.457786
O169  O     O_2   0.103431 0.227044 0.603386 -0.412442
O170  O     O_2   0.217211 0.842023 0.322328 -0.421585
O171  O     O_2   0.774645 0.105292 0.605231 -0.407811
O172  O     O_2   0.102846 0.227491 0.397130 -0.404945
O173  O     O_2   0.902200 0.767188 0.594010 -0.408909
O174  O     O_2   0.782789 0.177242 0.341525 -0.419558
O175  O     O_2   0.225208 0.894530 0.605474 -0.401548
O176  O     O_2   0.098112 0.767602 0.594381 -0.409803
O177  O     O_2   0.896615 0.227050 0.396607 -0.401504
O178  O     O_2   0.774226 0.895268 0.604724 -0.405871
O179  O     O_R   0.183630 0.242430 0.947350 -0.458960
O180  O     O_2   0.225534 0.105099 0.394882 -0.410110
O181  O     O_2   0.902196 0.232694 0.593995 -0.411048
O182  O     O_2   0.103270 0.772891 0.396730 -0.411629
O183  O     O_2   0.217165 0.158093 0.677469 -0.424341
O184  O     O_2   0.774614 0.894784 0.394711 -0.406706
O185  O     O_2   0.717229 0.322676 0.658470 -0.419499
O186  O     O_2   0.274424 0.604963 0.395099 -0.408433
O187  O     O_2   0.597565 0.405910 0.266982 -0.407694
O188  O     O_2   0.396449 0.603534 0.726919 -0.409293
O189  O     O_2   0.274526 0.394880 0.394890 -0.402151
O190  O     O_R   0.816370 0.947350 0.757570 -0.453639
O191  O     O_2   0.717143 0.677260 0.658340 -0.419147
O192  O     O_2   0.397225 0.397198 0.727520 -0.402896
O193  O     O_2   0.597411 0.593957 0.266752 -0.405953
O194  O     O_2   0.725647 0.604957 0.395092 -0.407971
O195  O     O_2   0.274339 0.395109 0.604932 -0.406637
O196  O     O_2   0.597615 0.594149 0.732963 -0.416632
O197  O     O_2   0.397170 0.397144 0.272589 -0.399001
O198  O     O_2   0.282886 0.677100 0.658272 -0.416130
O199  O     O_2   0.725341 0.394688 0.394749 -0.408266
O200  O     O_2   0.402445 0.594078 0.266946 -0.407775
O201  O     O_R   0.183630 0.052650 0.242430 -0.458550
O202  O     O_2   0.597771 0.405677 0.732832 -0.415885
O203  O     O_2   0.597802 0.267304 0.406004 -0.409309
O204  O     O_2   0.396744 0.727113 0.603242 -0.399702
O205  O     O_2   0.603415 0.727036 0.603417 -0.402726
O206  O     O_2   0.397044 0.272645 0.397039 -0.399340
O207  O     O_2   0.402491 0.733089 0.405944 -0.410890
O208  O     O_2   0.603363 0.272930 0.603357 -0.400549
O209  O     O_2   0.402554 0.266782 0.594024 -0.408944
O210  O     O_2   0.602767 0.727547 0.397218 -0.403359
O211  O     O_R   0.816370 0.242430 0.947350 -0.457831
O212  O     O_R   0.242430 0.816370 0.052650 -0.532185
O213  O     O_R   0.183630 0.757570 0.052650 -0.456367
O214  O     O_R   0.816370 0.052650 0.242430 -0.459622
O215  O     O_R   0.183630 0.947350 0.757570 -0.517320
O216  O     O_R   0.757570 0.052650 0.816370 -0.549949
O217  O     O_R   0.242430 0.947350 0.183630 -0.555164
O218  O     O_R   0.947350 0.757570 0.816370 -0.469292
O219  O     O_R   0.052650 0.242430 0.183630 -0.475876
O220  O     O_R   0.242430 0.947350 0.816370 -0.520623
O221  O     O_R   0.757570 0.052650 0.183630 -0.549952
O222  O     O_R   0.052650 0.242430 0.816370 -0.476375
O223  O     O_R   0.757570 0.183630 0.947350 -0.531828
O224  O     O_R   0.947350 0.757570 0.183630 -0.474306
O225  O     O_R   0.242430 0.052650 0.183630 -0.526581
O226  O     O_R   0.757570 0.947350 0.816370 -0.549949
O227  O     O_R   0.052650 0.757570 0.183630 -0.474356
O228  O     O_R   0.947350 0.242430 0.816370 -0.475012
O229  O     O_R   0.757570 0.947350 0.183630 -0.548578
O230  O     O_R   0.242430 0.052650 0.816370 -0.550972
O231  O     O_R   0.947350 0.242430 0.183630 -0.473137
O232  O     O_R   0.052650 0.757570 0.816370 -0.461400
O233  O     O_R   0.447350 0.316370 0.242430 -0.478166
O234  O     O_R   0.052650 0.816370 0.757570 -0.552484
O235  O     O_R   0.552650 0.683630 0.757570 -0.474254
O236  O     O_R   0.242430 0.316370 0.552650 -0.480615
O237  O     O_R   0.757570 0.683630 0.447350 -0.478215
O238  O     O_R   0.552650 0.316370 0.757570 -0.473999
O239  O     O_R   0.447350 0.683630 0.242430 -0.476044
O240  O     O_R   0.757570 0.316370 0.447350 -0.480070
O241  O     O_R   0.242430 0.683630 0.552650 -0.530997
O242  O     O_R   0.447350 0.683630 0.757570 -0.477172
O243  O     O_R   0.552650 0.316370 0.242430 -0.476439
O244  O     O_R   0.242430 0.683630 0.447350 -0.478405
O245  O     O_R   0.947350 0.183630 0.242430 -0.473276
O246  O     O_R   0.757570 0.316370 0.552650 -0.531872
O247  O     O_R   0.552650 0.683630 0.242430 -0.475062
O248  O     O_R   0.447350 0.316370 0.757570 -0.479568
O249  O     O_R   0.757570 0.683630 0.552650 -0.532026
O250  O     O_R   0.242430 0.316370 0.447350 -0.479307
O251  O     O_R   0.683630 0.242430 0.552650 -0.470691
O252  O     O_R   0.316370 0.757570 0.447350 -0.459334
O253  O     O_R   0.683630 0.552650 0.757570 -0.456718
O254  O     O_R   0.316370 0.447350 0.242430 -0.471130
O255  O     O_R   0.683630 0.757570 0.447350 -0.475993
O256  O     O_R   0.757570 0.816370 0.947350 -0.531697
O257  O     O_R   0.316370 0.242430 0.552650 -0.459747
O258  O     O_R   0.683630 0.447350 0.242430 -0.453574
O259  O     O_R   0.316370 0.552650 0.757570 -0.483561
O260  O     O_R   0.316370 0.757570 0.552650 -0.469487
O261  O     O_R   0.683630 0.242430 0.447350 -0.464488
O262  O     O_R   0.316370 0.447350 0.757570 -0.473793
O263  O     O_R   0.683630 0.552650 0.242430 -0.453646
O264  O     O_R   0.316370 0.242430 0.447350 -0.471280
O265  O     O_R   0.683630 0.757570 0.552650 -0.474990
O266  O     O_R   0.316370 0.552650 0.242430 -0.459822
O267  O     O_R   0.242430 0.183630 0.052650 -0.551867
O268  O     O_R   0.683630 0.447350 0.757570 -0.456835
O269  O     O_R   0.757570 0.552650 0.316370 -0.479218
O270  O     O_R   0.242430 0.447350 0.683630 -0.475547
O271  O     O_R   0.447350 0.757570 0.316370 -0.476539
O272  O     O_R   0.552650 0.242430 0.683630 -0.477869
O273  O     O_R   0.242430 0.447350 0.316370 -0.479305
O274  O     O_R   0.757570 0.552650 0.683630 -0.547013
O275  O     O_R   0.552650 0.242430 0.316370 -0.476647
O276  O     O_R   0.447350 0.757570 0.683630 -0.477872
O277  O     O_R   0.242430 0.552650 0.683630 -0.553839
O278  O     O_R   0.947350 0.183630 0.757570 -0.477041
O279  O     O_R   0.757570 0.447350 0.316370 -0.479478
O280  O     O_R   0.552650 0.757570 0.683630 -0.478895
O281  O     O_R   0.447350 0.242430 0.316370 -0.478394
O282  O     O_R   0.757570 0.447350 0.683630 -0.547112
O283  O     O_R   0.242430 0.552650 0.316370 -0.480722
O284  O     O_R   0.447350 0.242430 0.683630 -0.475697
O285  O     O_R   0.552650 0.757570 0.316370 -0.479149
O286  O     O_R   0.447350 0.816370 0.742430 -0.477841
O287  O     O_R   0.552650 0.183630 0.257570 -0.475631
O288  O     O_R   0.742430 0.816370 0.552650 -0.481853

loop_
_geom_bond_atom_site_label_1
_geom_bond_atom_site_label_2
_ccdc_geom_bond_type
Cu7   Cu10  S    
Cu28  O266  S    
C73   C206  A    
C234  O128  D    
C140  C247  S    
C145  C252  S    
Cu1   O1    S    
C214  H23   S    
C58   C164  A    
Cu48  O64   S    
C70   C329  S    
C112  O98   A    
C284  O177  D    
C212  O272  A    
C74   C321  S    
C25   C105  A    
C88   C177  A    
C162  C269  S    
C83   C154  A    
C135  O87   A    
C15   C357  S    
C87   C176  A    
C117  C383  A    
C293  H72   S    
C122  C229  S    
C299  O193  D    
Cu11  O58   S    
Cu24  O247  S    
Cu29  O263  S    
Cu41  O32   S    
C227  O120  D    
Cu16  O62   S    
Cu27  O274  S    
C305  H84   S    
C230  H9    S    
Cu36  O38   S    
C283  O176  D    
C28   C332  S    
C75   C322  S    
C326  O236  A    
C141  C248  S    
Cu26  O244  S    
Cu44  O234  S    
C116  C221  S    
C62   C169  A    
C26   C197  A    
C36   C142  A    
C296  O189  D    
C50   C345  S    
Cu35  O21   S    
Cu12  O95   S    
C146  O72   A    
C84   C155  A    
C39   C338  S    
C333  O269  A    
Cu15  O72   S    
Cu46  O70   S    
C52   C159  A    
Cu40  O48   S    
Cu32  O45   S    
C124  O76   A    
C198  C305  S    
C289  H69   S    
C216  O109  D    
C133  C240  S    
C342  O238  A    
C2    O53   A    
C300  O194  D    
C317  O210  D    
C171  C277  S    
Cu33  O16   S    
C8    C114  A    
Cu35  O31   S    
Cu29  O279  S    
Cu19  O242  S    
C80   C146  S    
C320  O3    A    
C260  H39   S    
C22   C130  A    
C278  O172  D    
Cu34  O223  S    
Cu4   O92   S    
Cu7   O97   S    
Cu38  O11   S    
Cu11  O218  S    
C204  C310  S    
C226  O119  D    
C31   C200  A    
C324  O273  A    
C10   C366  S    
Cu35  O15   S    
Cu8   O96   S    
C178  C285  S    
C30   C202  A    
C286  O180  D    
C9    C128  A    
C251  O144  D    
C271  H50   S    
C7    C119  A    
C324  O33   A    
C29   C333  S    
Cu14  O85   S    
C32   C139  A    
Cu41  O20   S    
C55   C355  S    
C74   C181  A    
C232  H11   S    
C79   O93   A    
Cu20  O257  S    
C17   C127  A    
C334  O21   A    
C327  O279  A    
Cu2   O63   S    
C47   C153  A    
C58   C205  A    
C89   C143  A    
Cu22  Cu37  S    
C276  O170  D    
C303  H82   S    
Cu6   Cu34  S    
C249  H28   S    
C340  O50   A    
Cu40  O40   S    
C224  O14   A    
C85   C151  A    
C134  C241  S    
C11   C365  S    
C99   C162  A    
C87   C330  S    
C381  O229  A    
C40   C192  A    
C318  O265  A    
C339  O262  A    
C57   C97   S    
C39   C145  A    
C354  O37   A    
C4    C122  A    
Cu30  O259  S    
C256  H36   S    
C298  O192  D    
Cu33  O30   S    
Cu10  O225  S    
C323  O274  A    
Cu19  O235  S    
C113  O82   A    
Cu24  Cu36  S    
C187  C294  S    
C103  C152  A    
C270  H49   S    
C231  O125  D    
C72   C318  S    
Cu25  O251  S    
C65   C189  A    
C19   C120  A    
C322  O244  A    
C381  C382  S    
C357  O2    A    
Cu22  O238  S    
Cu21  Cu33  S    
Cu23  O68   S    
C289  O183  D    
C203  C309  S    
Cu39  O7    S    
C373  O214  A    
C136  C242  S    
Cu17  O227  S    
C14   C130  A    
Cu27  O268  S    
C174  C281  S    
C291  H70   S    
C40   C147  A    
C43   C208  A    
C20   C368  S    
C273  O166  D    
C49   C155  A    
Cu12  Cu16  S    
C274  H53   S    
C81   C178  A    
Cu43  O28   S    
C4    C375  S    
C275  H54   S    
C301  O285  A    
C4    C109  A    
C348  O36   A    
Cu45  O245  S    
Cu36  O14   S    
Cu21  O255  S    
C45   C152  A    
C64   C171  A    
C246  O260  A    
Cu23  O212  S    
C373  O221  A    
C154  C261  S    
C263  O156  D    
C341  O66   A    
C42   C324  S    
Cu18  O243  S    
C124  O88   A    
Cu22  O272  S    
C92   C172  A    
C93   C173  A    
Cu31  O9    S    
C316  H95   S    
C215  O108  D    
C337  O20   A    
C97   C142  A    
Cu20  O236  S    
C108  C215  S    
C67   C203  A    
C100  C137  A    
C303  O196  D    
C137  C243  S    
C290  O251  A    
C224  O271  A    
Cu2   O60   S    
C258  H37   S    
C356  O278  A    
C292  O185  D    
C366  O112  A    
C380  O101  A    
Cu6   O54   S    
C272  O165  D    
Cu46  O256  S    
C27   C196  A    
C69   C175  A    
C295  O188  D    
C70   C176  A    
C305  O198  D    
Cu29  Cu43  S    
C257  O276  A    
Cu31  O286  S    
C297  O191  D    
C229  O122  D    
C350  O233  A    
C304  H83   S    
C148  C254  S    
C30   C351  S    
Cu12  O112  S    
C165  C272  S    
C362  O13   A    
C101  O97   A    
C6    C111  A    
C370  O231  A    
Cu32  O8    S    
C72   C178  A    
C87   C140  A    
Cu19  Cu31  S    
C28   C195  A    
C340  O239  A    
C166  C273  S    
C206  C313  S    
C376  O226  A    
Cu39  O18   S    
Cu26  O260  S    
Cu25  O246  S    
C39   C193  A    
C53   C203  A    
C231  H10   S    
C54   C192  A    
C245  H25   S    
Cu9   O226  S    
Cu47  O78   S    
C32   C199  A    
C294  O187  D    
C86   C150  A    
C210  C317  S    
C79   C84   S    
C294  H73   S    
C98   C147  A    
C211  H1    S    
Cu34  O57   S    
C348  O258  A    
C262  H41   S    
C233  H13   S    
C322  O27   A    
C287  O181  D    
Cu46  O80   S    
C168  O8    A    
C64   C290  S    
C365  O224  A    
C61   C325  S    
C42   C149  A    
C186  C293  S    
C304  O197  D    
C345  O45   A    
C51   C188  A    
Cu28  O283  S    
Cu27  O253  S    
C278  H58   S    
Cu38  O17   S    
C21   C131  A    
Cu47  Cu48  S    
Cu30  O277  S    
C286  H65   S    
C83   C184  A    
C282  O175  D    
C240  H19   S    
C362  O179  A    
C342  O51   A    
C308  O202  D    
C59   C165  A    
Cu47  O13   S    
C173  C280  S    
C318  O288  A    
Cu6   O211  S    
C302  H81   S    
Cu39  O10   S    
C99   C145  A    
C371  O212  A    
C70   C198  A    
C142  C249  S    
C353  O266  A    
Cu11  O65   S    
Cu13  Cu45  S    
C290  O7    A    
C117  C222  S    
C320  O264  A    
Cu6   O135  S    
C255  H35   S    
C335  O249  A    
C47   C350  S    
C104  C153  A    
Cu3   O100  S    
C31   C353  S    
C252  H31   S    
C192  C298  S    
C27   C344  S    
C215  H34   S    
Cu5   O213  S    
Cu43  O36   S    
C127  C233  S    
C360  O35   A    
Cu45  O35   S    
C65   C172  A    
C222  O117  D    
C311  H91   S    
C183  C289  S    
Cu5   O124  S    
C46   C93   S    
C48   C301  S    
C12   C131  A    
C296  H75   S    
C266  H46   S    
C190  O15   A    
C24   O60   A    
C63   C170  A    
C23   C123  A    
C118  C382  A    
Cu17  O61   S    
C147  C253  S    
C44   C207  A    
C350  O42   A    
C17   C372  S    
Cu22  O248  S    
C249  O142  D    
C307  O200  D    
C221  H2    S    
C314  H93   S    
C221  O116  D    
C374  O52   A    
Cu15  O221  S    
C253  H32   S    
C244  O138  D    
C321  O246  A    
C76   C190  S    
Cu43  O43   S    
C59   C200  A    
C1    C95   S    
Cu37  O37   S    
C29   C136  A    
Cu13  O56   S    
C38   C185  A    
Cu7   O87   S    
C312  O284  A    
C377  O225  A    
Cu3   Cu14  S    
Cu4   O102  S    
C43   C150  A    
C120  C227  S    
C77   C210  A    
Cu40  O19   S    
C380  C383  S    
C254  O148  D    
C334  O250  A    
Cu9   O76   S    
C111  C218  S    
C164  C271  S    
C107  C384  A    
Cu12  O98   S    
C343  O254  A    
C104  C132  A    
C78   C175  A    
C81   C164  A    
C264  O158  D    
C115  C220  S    
Cu30  O262  S    
C75   C186  A    
Cu28  O254  S    
C269  H48   S    
C285  O178  D    
C76   C183  A    
C92   C149  A    
C220  O115  D    
C17   C115  A    
C333  O25   A    
C299  H79   S    
C248  H27   S    
C48   C154  A    
C2    O94   A    
C317  H96   S    
C336  O283  A    
C312  O5    A    
Cu20  Cu35  S    
Cu36  O4    S    
C79   O85   A    
C379  O216  A    
Cu45  O89   S    
C125  C231  S    
C378  O146  A    
Cu10  O81   S    
C21   C109  A    
C261  O154  D    
C336  O19   A    
C197  C304  S    
C242  O136  D    
C3    C108  A    
C149  C255  S    
C301  O4    A    
Cu40  O33   S    
C323  O32   A    
C255  O149  D    
Cu14  O220  S    
C355  O247  A    
C10   C117  A    
C271  O164  D    
C18   C126  A    
C152  C259  S    
C63   C279  S    
C123  C230  S    
C33   C198  A    
C161  C267  S    
C68   O55   A    
C220  H89   S    
C344  O49   A    
C6    C376  S    
C95   C136  A    
C3    C379  S    
C262  O155  D    
C54   C161  A    
C244  H24   S    
C16   C127  A    
C172  C278  S    
C100  C319  S    
C260  O153  D    
C238  O131  D    
C347  O34   A    
C56   C206  A    
C59   C340  S    
C69   C204  A    
C101  O81   A    
C236  O129  D    
Cu44  O91   S    
Cu29  O258  S    
C14   C121  A    
C60   C342  S    
C47   C197  A    
C355  O38   A    
C1    O99   A    
Cu19  O280  S    
C75   C182  A    
C241  O134  D    
C242  H21   S    
C211  O105  D    
C369  O234  A    
Cu42  O34   S    
C119  C226  S    
C5    C373  S    
C306  H85   S    
C219  O114  D    
C233  O127  D    
Cu8   O190  S    
C130  C237  S    
Cu4   Cu15  S    
C207  C314  S    
C212  O12   A    
C287  H66   S    
C96   C158  A    
Cu5   Cu23  S    
C20   C129  A    
Cu13  O219  S    
C109  C216  S    
C213  H12   S    
C363  O64   A    
C85   C101  S    
C272  H51   S    
C218  H67   S    
Cu2   Cu46  S    
C160  C266  S    
C94   C169  A    
C8    C360  S    
C201  O16   A    
C368  O79   A    
C68   C96   S    
C86   C113  S    
C28   C134  A    
Cu37  O51   S    
C199  C306  S    
Cu25  O261  S    
C11   C125  A    
Cu25  O240  S    
C91   C144  A    
C230  O123  D    
Cu15  O86   S    
Cu7   O146  S    
Cu1   O2    S    
C80   C160  A    
Cu18  Cu32  S    
C131  C238  S    
Cu42  O44   S    
C346  O242  A    
C19   C128  A    
C1    O61   A    
C167  C274  S    
C93   C148  A    
C12   C369  S    
C326  O31   A    
C15   C107  A    
C82   C135  S    
C308  H87   S    
C110  C217  S    
C25   C125  A    
C240  O133  D    
C90   O86   A    
C225  H4    S    
C96   C141  A    
C73   C180  A    
C377  O201  A    
C157  O100  A    
C5    C110  A    
C13   O59   A    
C343  O48   A    
C22   C110  A    
C349  O41   A    
C18   C371  S    
C11   C118  A    
C223  O75   A    
C366  O222  A    
C310  O204  D    
C44   C224  S    
C175  C282  S    
C19   C367  S    
Cu16  O52   S    
C49   C312  S    
C209  C316  S    
C273  H52   S    
C22   C358  S    
Cu32  O42   S    
C41   C191  A    
C376  O190  A    
C35   C92   S    
C347  O259  A    
Cu48  O179  S    
C30   C137  A    
C63   C207  A    
C359  O124  A    
C288  H68   S    
C71   C331  S    
C284  H63   S    
Cu37  O12   S    
C35   O104  A    
Cu6   O69   S    
C62   C195  A    
C268  O287  A    
C357  O227  A    
C319  O74   A    
Cu13  O231  S    
C279  O6    A    
Cu2   O90   S    
C102  C223  S    
C77   C201  S    
C69   C246  S    
C229  H8    S    
C241  H20   S    
Cu36  O50   S    
C371  O213  A    
C325  O30   A    
C234  H14   S    
C129  C236  S    
C235  O261  A    
C344  O253  A    
C246  O11   A    
C351  O268  A    
C116  C384  A    
C18   C116  A    
C71   C177  A    
C54   C354  S    
C163  C270  S    
C57   O84   A    
C258  O151  D    
C83   C90   S    
C60   C166  A    
C349  O235  A    
C95   C167  A    
C61   C167  A    
C21   C359  S    
C309  O203  D    
C2    C89   S    
Cu34  O84   S    
C250  O143  D    
Cu4   O113  S    
C219  H78   S    
C354  O248  A    
C361  O218  A    
Cu27  Cu41  S    
C177  C284  S    
C338  O263  A    
C250  H29   S    
C321  O26   A    
C293  O186  D    
C45   C349  S    
C13   O71   A    
Cu24  O271  S    
C112  O62   A    
C41   C323  S    
C247  O140  D    
C265  O159  D    
C256  O150  D    
C43   C212  S    
C121  C228  S    
Cu27  O282  S    
C351  O39   A    
Cu44  O103  S    
C193  C299  S    
C265  H44   S    
C194  C300  S    
C370  O245  A    
C10   C123  A    
Cu39  O26   S    
Cu26  O252  S    
C281  O174  D    
C91   C181  A    
C51   C346  S    
Cu12  O278  S    
Cu9   O82   S    
C128  C234  S    
C239  H18   S    
C267  H47   S    
C302  O195  D    
Cu7   O201  S    
Cu17  O224  S    
C279  O252  A    
C46   O58   A    
C98   C161  A    
C138  C244  S    
C62   C326  S    
C214  O107  D    
Cu33  O288  S    
C34   C347  S    
C53   C160  A    
C288  O182  D    
C37   C143  A    
Cu10  O77   S    
C363  O78   A    
C38   C144  A    
Cu13  O66   S    
C360  O219  A    
C300  H80   S    
C26   C343  S    
Cu14  O230  S    
Cu42  O29   S    
C356  O228  A    
Cu24  O285  S    
Cu14  O73   S    
C71   C199  A    
C72   C205  A    
C275  O169  D    
Cu1   O94   S    
Cu3   O101  S    
C51   C158  A    
C85   C170  A    
C105  C211  S    
Cu3   O215  S    
C239  O132  D    
C358  O135  A    
C346  O47   A    
C36   C187  A    
Cu20  O250  S    
C89   C182  A    
C157  O73   A    
C68   O83   A    
C90   O92   A    
C335  O22   A    
C3    C115  A    
C319  O69   A    
C261  H40   S    
C282  H61   S    
C332  O270  A    
C295  H74   S    
Cu47  O267  S    
Cu11  O232  S    
Cu8   Cu9   S    
Cu45  O104  S    
C168  O281  A    
C379  O157  A    
C358  O57   A    
C46   O103  A    
C32   C327  S    
C247  H26   S    
C313  O206  D    
C180  C286  S    
C232  O126  D    
C181  C287  S    
C191  C297  S    
C364  O168  A    
C372  O211  A    
C182  C288  S    
C78   C159  A    
C367  O90   A    
C12   C122  A    
C25   C364  S    
C228  O121  D    
C49   C209  A    
C280  H59   S    
C228  H7    S    
C34   C141  A    
C16   C356  S    
C227  H6    S    
C67   C174  A    
C52   C204  A    
C14   C370  S    
C153  C260  S    
C24   O70   A    
C106  C383  A    
Cu38  O6    S    
C20   C119  A    
Cu22  O284  S    
Cu8   O88   S    
C283  H62   S    
C368  O267  A    
C41   C148  A    
C76   C209  A    
C9    C111  A    
C259  H38   S    
C218  O111  D    
C236  H15   S    
C143  C250  S    
C176  C283  S    
C80   C174  A    
C24   C99   S    
Cu18  O275  S    
C146  O102  A    
C126  C232  S    
Cu33  O22   S    
C169  C275  S    
C114  C219  S    
C170  C276  S    
Cu31  O41   S    
Cu43  O25   S    
C91   C374  S    
Cu16  O222  S    
Cu38  O27   S    
Cu5   O55   S    
Cu35  O3    S    
C64   C208  A    
C56   C163  A    
C67   C235  S    
C310  H90   S    
C309  H88   S    
Cu46  O24   S    
Cu3   O93   S    
C7    C377  S    
C217  O110  D    
C38   C337  S    
C102  C138  A    
C135  O77   A    
C243  H22   S    
C341  O89   A    
C257  O286  A    
C97   C156  A    
C82   C163  A    
Cu28  Cu40  S    
C330  O65   A    
C184  C291  S    
C29   C194  A    
C313  H92   S    
C5    C121  A    
C77   C184  A    
C100  C166  A    
C201  O255  A    
C94   C112  S    
C13   C98   S    
Cu30  O270  S    
Cu8   O157  S    
C179  O9    A    
C58   C179  S    
Cu1   O99   S    
C375  O215  A    
C327  O28   A    
C263  H42   S    
C105  C382  A    
C37   C186  A    
C50   C156  A    
C190  O257  A    
Cu4   O214  S    
C374  O95   A    
C259  O152  D    
Cu24  O239  S    
Cu23  O83   S    
C66   C173  A    
Cu17  O53   S    
C144  C251  S    
C65   C334  S    
Cu48  O79   S    
C132  C239  S    
C103  C352  S    
C285  H64   S    
C33   C140  A    
C74   C185  A    
Cu19  O276  S    
C189  C296  S    
C238  H17   S    
C213  O106  D    
Cu2   O168  S    
C378  O217  A    
Cu25  Cu39  S    
C378  C384  S    
C155  C262  S    
C179  O280  A    
C185  C292  S    
C274  O167  D    
C331  O18   A    
C50   C187  A    
Cu16  O228  S    
C6    C120  A    
C205  C311  S    
C196  C303  S    
Cu28  O273  S    
C52   C257  S    
C118  C225  S    
C380  O230  A    
Cu5   O67   S    
C307  H86   S    
C277  H57   S    
C339  O44   A    
C44   C151  A    
C315  O208  D    
C81   C124  S    
C306  O199  D    
C86   C171  A    
C235  O10   A    
C381  O113  A    
C375  O220  A    
Cu11  Cu44  S    
C202  C308  S    
C251  H30   S    
C298  H77   S    
Cu30  Cu42  S    
Cu10  O217  S    
C237  H16   S    
C23   C106  A    
C352  O80   A    
C15   C126  A    
C104  C363  S    
C315  H94   S    
C31   C138  A    
C254  H33   S    
C359  O68   A    
C245  O139  D    
C88   C139  A    
C66   C335  S    
C156  C263  S    
C78   C157  S    
C150  C256  S    
C345  O243  A    
Cu21  O249  S    
C338  O43   A    
C314  O207  D    
C40   C339  S    
C66   C191  A    
C56   C168  S    
C226  H5    S    
C325  O237  A    
C364  O24   A    
C243  O137  D    
C268  O275  A    
C34   C188  A    
Cu48  O59   S    
C253  O147  D    
C225  O118  D    
C353  O40   A    
C369  O232  A    
C55   C193  A    
C48   C210  A    
C35   O56   A    
C331  O240  A    
C102  C165  A    
C222  H3    S    
C217  H56   S    
C57   O54   A    
C329  O241  A    
C73   C320  S    
Cu21  O237  S    
C269  O162  D    
Cu31  O47   S    
C26   C132  A    
Cu42  O23   S    
Cu21  O265  S    
C316  O209  D    
C60   C202  A    
C106  C213  S    
C216  H45   S    
C352  O63   A    
Cu41  O49   S    
Cu44  O46   S    
C330  O91   A    
Cu1   Cu17  S    
C33   C328  S    
C84   C183  A    
C237  O130  D    
C55   C162  A    
Cu37  O5    S    
Cu47  O71   S    
C329  O17   A    
Cu34  O74   S    
C280  O173  D    
C267  O161  D    
Cu18  O281  S    
C159  C265  S    
C53   C268  S    
C328  O277  A    
C372  O223  A    
C158  C264  S    
C270  O163  D    
C281  H60   S    
C311  O205  D    
C223  O67   A    
C36   C348  S    
C276  H55   S    
C103  C133  A    
Cu26  O241  S    
C264  H43   S    
C328  O29   A    
C23   C362  S    
C107  C214  S    
C367  O256  A    
C45   C196  A    
Cu9   O216  S    
C332  O23   A    
C61   C194  A    
C297  H76   S    
C94   C134  A    
C208  C315  S    
C291  O184  D    
C277  O171  D    
C195  C302  S    
C266  O160  D    
C248  O141  D    
C37   C336  S    
Cu23  O75   S    
C8    C129  A    
C188  C295  S    
C16   C108  A    
Cu18  O233  S    
Cu15  O229  S    
Cu32  O287  S    
C7    C114  A    
C252  O145  D    
C88   C341  S    
C27   C133  A    
C82   C180  A    
C42   C189  A    
C292  H71   S    
Cu26  Cu38  S    
Cu29  O269  S    
C200  C307  S    
C337  O282  A    
C9    C361  S    
C361  O46   A    
C113  O96   A    
C365  O1    A    
Cu20  O264  S    
C151  C258  S    
Cu41  O39   S    
C139  C245  S    
