data_mof_unit_13801.cif
_audit_creation_date              2012-12-10T20:55:42-0500
_audit_creation_method            fapswitch 2.2
_symmetry_space_group_name_H-M    P1
_symmetry_Int_Tables_number       1
_space_group_crystal_system       triclinic
_cell_length_a                    15.861077
_cell_length_b                    15.030046
_cell_length_c                    10.616406
_cell_angle_alpha                 90.322577
_cell_angle_beta                  90.214104
_cell_angle_gamma                 91.516273
_cell_volume                      2529.92847361

loop_
_atom_site_label
_atom_site_type_symbol
_atom_type_description
_atom_site_fract_x
_atom_site_fract_y
_atom_site_fract_z
_atom_type_partial_charge
C1    C     C_1   0.250893 0.498202 0.493041 -0.117855
C2    C     C_R   0.433552 0.044260 0.448936 0.354845
C3    C     C_R   0.958862 0.552939 0.584412 -0.057420
C4    C     C_R   0.041563 0.460232 0.390523 -0.053068
C5    C     C_R   0.046823 0.550602 0.583902 -0.048794
C6    C     C_R   0.953527 0.461981 0.391578 -0.047715
C7    C     C_R   0.338942 0.499217 0.498343 0.886404
C8    C     C_R   0.661063 0.501112 0.499898 0.946311
C9    C     C_R   0.475862 0.499469 0.266519 0.892222
C10   C     C_R   0.497612 0.499816 0.743160 0.885329
C11   C     C_R   0.913006 0.507622 0.489179 0.027202
C12   C     C_1   0.749131 0.503801 0.496843 -0.166809
C13   C     C_R   0.087293 0.503633 0.487569 0.027860
C14   C     C_1   0.501261 0.807096 0.502241 0.237046
C15   C     C_1   0.501423 0.192736 0.496991 0.225251
C16   C     C_1   0.823762 0.505957 0.493369 -0.035402
C17   C     C_1   0.176354 0.499758 0.489355 -0.015678
C18   C     C_R   0.435239 0.666045 0.119377 0.054438
C19   C     C_R   0.410413 0.346540 0.866426 0.054641
C20   C     C_R   0.544528 0.653374 0.914752 0.045943
C21   C     C_R   0.400946 0.339654 0.124348 0.036250
C22   C     C_R   0.472695 0.742959 0.068700 -0.210113
C23   C     C_R   0.481228 0.498675 0.878965 -0.211729
C24   C     C_R   0.404919 0.264082 0.924800 -0.194114
C25   C     C_R   0.531465 0.735862 0.972389 -0.198797
C26   C     C_R   0.399138 0.261056 0.054339 -0.208354
C27   C     C_R   0.494927 0.577489 0.951821 0.018111
C28   C     C_R   0.430443 0.420528 0.067840 0.029218
C29   C     C_R   0.455021 0.581478 0.068806 0.037033
C30   C     C_R   0.440961 0.422154 0.935615 0.023673
C31   C     C_1   0.095579 0.595381 0.682800 0.185902
C32   C     C_1   0.904733 0.416489 0.293404 0.184684
C33   C     C_1   0.915705 0.601148 0.682904 0.186449
C34   C     C_R   0.445714 0.500668 0.135445 -0.238508
C35   C     C_1   0.084910 0.413672 0.290615 0.199110
C36   C     C_3   0.341792 0.052878 0.274813 0.156190
C37   C     C_3   0.414451 0.030315 0.183882 -0.418528
C38   C     C_3   0.380661 0.002484 0.054248 -0.950177
C39   C     C_3   0.698483 0.883940 0.495924 0.084809
C40   C     C_3   0.738138 0.796745 0.535357 -0.305812
C41   C     C_3   0.800940 0.764977 0.437432 -0.936018
C42   C     C_3   0.688552 0.149964 0.482610 0.113519
C43   C     C_3   0.692050 0.112229 0.347074 -0.466676
C44   C     C_3   0.740183 0.176136 0.260360 -0.858338
C45   C     C_R   0.502379 0.904856 0.502890 -0.280481
C46   C     C_3   0.302988 0.904191 0.540461 0.089374
C47   C     C_3   0.226965 0.841901 0.515651 -0.322612
C48   C     C_3   0.163478 0.845316 0.623075 -0.934161
C49   C     C_1   0.371330 0.675774 0.214684 0.188980
C50   C     C_1   0.347295 0.356579 0.770239 0.194914
C51   C     C_1   0.618023 0.646223 0.835622 0.188408
C52   C     C_1   0.350443 0.336059 0.236619 0.184212
C53   C     C_R   0.504506 0.094636 0.492894 -0.289882
C54   C     C_R   0.430404 0.949858 0.464475 0.286979
C55   C     C_R   0.577414 0.048743 0.532671 0.374817
C56   C     C_R   0.575317 0.954445 0.538414 0.353373
H1    H     H_    0.377840 0.199690 0.096730 0.156460
H2    H     H_    0.434205 0.988514 0.990655 0.271046
H3    H     H_    0.342950 0.055970 0.012124 0.257841
H4    H     H_    0.749445 0.935530 0.486588 0.168151
H5    H     H_    0.667445 0.873354 0.402086 0.106028
H6    H     H_    0.771176 0.806335 0.627166 0.242812
H7    H     H_    0.687694 0.744832 0.547152 0.246505
H8    H     H_    0.768583 0.751926 0.345944 0.267772
H9    H     H_    0.829314 0.702387 0.469820 0.275612
H10   H     H_    0.852239 0.815773 0.424207 0.261625
H11   H     H_    0.754607 0.163216 0.514013 0.174514
H12   H     H_    0.566824 0.794753 0.942796 0.161010
H13   H     H_    0.659245 0.215975 0.483828 0.152655
H14   H     H_    0.723974 0.047560 0.346845 0.216095
H15   H     H_    0.627499 0.101843 0.307901 0.212630
H16   H     H_    0.806166 0.186385 0.293927 0.264720
H17   H     H_    0.708820 0.241330 0.257308 0.271922
H18   H     H_    0.741409 0.147916 0.163516 0.268489
H19   H     H_    0.280457 0.973240 0.553291 0.165857
H20   H     H_    0.334857 0.882465 0.628570 0.141015
H21   H     H_    0.195483 0.861344 0.426593 0.225570
H22   H     H_    0.248658 0.772540 0.505061 0.248833
H23   H     H_    0.386661 0.204867 0.871394 0.149704
H24   H     H_    0.193196 0.824381 0.712683 0.274630
H25   H     H_    0.109136 0.799494 0.601887 0.273192
H26   H     H_    0.139827 0.913807 0.634248 0.263520
H27   H     H_    0.459536 0.807895 0.107732 0.157631
H28   H     H_    0.302311 0.103271 0.228812 0.147646
H29   H     H_    0.298397 0.994713 0.287762 0.186774
H30   H     H_    0.458476 0.088561 0.174720 0.223031
H31   H     H_    0.451204 0.974154 0.220372 0.219004
H32   H     H_    0.340427 0.941148 0.062136 0.271015
N1    N     N_1   0.500000 0.270550 0.500000 -0.108050
N2    N     N_1   0.306750 0.329040 0.323037 -0.156750
N3    N     N_1   0.500000 0.729450 0.500000 -0.108292
N4    N     N_1   0.134494 0.630907 0.761590 -0.199011
N5    N     N_1   0.865816 0.380282 0.215221 -0.199151
N6    N     N_1   0.881412 0.639670 0.761342 -0.182286
N7    N     N_1   0.119393 0.376635 0.210904 -0.191282
N8    N     N_1   0.319710 0.684093 0.290231 -0.193102
N9    N     N_1   0.293210 0.361729 0.697657 -0.186039
N10   N     N_1   0.677149 0.640579 0.772857 -0.199614
O1    O     O_R   0.378020 0.573650 0.500040 -0.617541
O2    O     O_3   0.642546 0.910985 0.591312 -0.595328
O3    O     O_3   0.650958 0.092449 0.573916 -0.604001
O4    O     O_3   0.358114 0.900102 0.436651 -0.637143
O5    O     O_R   0.621980 0.426350 0.499960 -0.617977
O6    O     O_R   0.621980 0.573650 0.499960 -0.610471
O7    O     O_R   0.378020 0.426350 0.500040 -0.599985
O8    O     O_R   0.499990 0.573670 0.316780 -0.609932
O9    O     O_R   0.500010 0.426330 0.683220 -0.613528
O10   O     O_R   0.500010 0.573670 0.683220 -0.609459
O11   O     O_R   0.499990 0.426330 0.316780 -0.609434
O12   O     O_3   0.368148 0.089894 0.392855 -0.634145
Zn1   Zn    Zn3+2 0.500000 0.598370 0.500000 0.984032
Zn2   Zn    Zn3+2 0.500000 0.401630 0.500000 0.988725

loop_
_geom_bond_atom_site_label_1
_geom_bond_atom_site_label_2
_ccdc_geom_bond_type
C6    C32   S    
C21   C26   A    
C27   C29   A    
O9    Zn2   S    
C52   N2    T    
C55   C56   A    
C33   N6    T    
C46   H20   S    
C46   O4    S    
N1    Zn2   S    
C40   H7    S    
C7    O1    A    
C15   C53   S    
C36   C37   S    
C24   C26   A    
C20   C51   S    
C20   C25   A    
C3    C33   S    
C40   H6    S    
C48   H25   S    
N3    Zn1   S    
C4    C13   A    
C38   H2    S    
C10   O10   A    
C12   C16   T    
C45   C56   A    
C22   C25   A    
C7    O7    A    
C23   C27   A    
C5    C13   A    
C51   N10   T    
C32   N5    T    
C4    C35   S    
C28   C34   A    
C1    C7    S    
C10   O9    A    
C25   H12   S    
C46   H19   S    
C8    O5    A    
C54   O4    S    
C14   C45   S    
O8    Zn1   S    
C53   C55   A    
C9    O11   A    
C39   H5    S    
C23   C30   A    
C37   H30   S    
C4    C6    A    
C2    C54   A    
O11   Zn2   S    
C39   C40   S    
C41   H9    S    
C9    O8    A    
C29   C34   A    
C42   H13   S    
C38   H32   S    
O5    Zn2   S    
C43   C44   S    
C37   C38   S    
C15   N1    T    
C11   C16   S    
C24   H23   S    
C47   C48   S    
C8    C12   S    
O1    Zn1   S    
C18   C29   A    
C44   H18   S    
C8    O6    A    
C40   C41   S    
C21   C28   A    
C45   C54   A    
C43   H14   S    
C36   O12   S    
C42   H11   S    
C36   H29   S    
C42   C43   S    
C56   O2    S    
O7    Zn2   S    
C42   O3    S    
C6    C11   A    
C46   C47   S    
C2    O12   S    
C50   N9    T    
C43   H15   S    
C18   C22   A    
C37   H31   S    
C3    C5    A    
C2    C53   A    
O6    Zn1   S    
C41   H10   S    
C20   C27   A    
C35   N7    T    
C10   C23   S    
C55   O3    S    
C1    C17   T    
C47   H22   S    
O10   Zn1   S    
C13   C17   S    
C22   H27   S    
C48   H24   S    
C28   C30   A    
C19   C24   A    
C19   C50   S    
C39   O2    S    
C9    C34   S    
C36   H28   S    
C39   H4    S    
C48   H26   S    
C44   H16   S    
C49   N8    T    
C44   H17   S    
C26   H1    S    
C14   N3    T    
C3    C11   A    
C38   H3    S    
C31   N4    T    
C47   H21   S    
C41   H8    S    
C19   C30   A    
C21   C52   S    
C18   C49   S    
C5    C31   S    
