data_mof_unit_17702.cif
_audit_creation_date              2012-12-10T18:45:07-0500
_audit_creation_method            fapswitch 2.2
_symmetry_space_group_name_H-M    P1
_symmetry_Int_Tables_number       1
_space_group_crystal_system       triclinic
_cell_length_a                    10.781432
_cell_length_b                    9.886676
_cell_length_c                    10.713681
_cell_angle_alpha                 89.650328
_cell_angle_beta                  89.332047
_cell_angle_gamma                 90.023597
_cell_volume                      1141.89930811

loop_
_atom_site_label
_atom_site_type_symbol
_atom_type_description
_atom_site_fract_x
_atom_site_fract_y
_atom_site_fract_z
_atom_type_partial_charge
C1    C     C_R   0.260171 0.499392 0.493700 0.866187
C2    C     C_R   0.739823 0.499363 0.506287 0.867540
C3    C     C_R   0.936529 0.619440 0.502704 -0.161118
C4    C     C_R   0.063545 0.619443 0.496014 -0.159717
C5    C     C_R   0.595433 0.072498 0.446801 -0.127023
C6    C     C_R   0.404589 0.071723 0.553196 -0.136096
C7    C     C_R   0.597310 0.929361 0.450281 0.569434
C8    C     C_R   0.402689 0.928648 0.549696 0.567343
C9    C     C_R   0.511741 0.499807 0.260049 0.937849
C10   C     C_R   0.489041 0.499022 0.740079 0.937691
C11   C     C_R   0.585139 0.738584 0.091650 0.001739
C12   C     C_R   0.409121 0.734194 0.901631 0.004576
C13   C     C_R   0.549462 0.860841 0.033201 -0.090482
C14   C     C_R   0.448402 0.859291 0.949890 -0.084524
C15   C     C_R   0.468099 0.615574 0.942342 -0.054155
C16   C     C_R   0.526084 0.617967 0.056675 -0.046812
C17   C     C_R   0.525092 0.496896 0.126017 -0.350947
C18   C     C_R   0.476947 0.494767 0.874263 -0.349997
C19   C     C_R   0.511033 0.373043 0.064345 0.544683
C20   C     C_R   0.501026 0.372636 0.936996 0.545180
C21   C     C_R   0.062483 0.372546 0.486200 -0.056239
C22   C     C_R   0.937368 0.372509 0.514813 -0.056188
C23   C     C_R   0.872722 0.496657 0.511483 -0.094406
C24   C     C_R   0.127257 0.496673 0.488464 -0.094308
H1    H     H_    0.888786 0.715797 0.502619 0.226398
H2    H     H_    0.111370 0.715805 0.495115 0.226125
H3    H     H_    0.671451 0.126935 0.403034 0.186761
H4    H     H_    0.328611 0.125529 0.596994 0.186274
N1    N     N_R   0.500000 0.857200 0.500000 -0.183136
N2    N     N_R   0.500000 0.142810 0.500000 -0.136266
O1    O     O_R   0.316770 0.614620 0.499990 -0.567692
O2    O     O_R   0.683230 0.614620 0.500010 -0.568155
O3    O     O_R   0.316800 0.385290 0.500000 -0.635001
O4    O     O_R   0.683200 0.385290 0.500000 -0.633660
O5    O     O_R   0.500010 0.614690 0.316770 -0.612361
O6    O     O_R   0.499990 0.614690 0.683230 -0.613640
O7    O     O_R   0.500040 0.385360 0.316770 -0.547914
O8    O     O_R   0.499960 0.385360 0.683230 -0.548241
Zn1   Zn    Zn3+2 0.500000 0.653120 0.500000 1.048656
Zn2   Zn    Zn3+2 0.500000 0.346880 0.500000 1.027653
F1    F     F_    0.507137 0.252834 0.125800 -0.635029
F2    F     F_    0.516810 0.253678 0.876630 -0.634665
C25   C     C_1   0.699061 0.729395 0.161510 0.251395
N3    N     N_1   0.791443 0.720018 0.214799 -0.136308
C26   C     C_1   0.294979 0.721976 0.832678 0.258965
N4    N     N_1   0.202535 0.710279 0.779973 -0.141430
C27   C     C_1   0.621938 0.981941 0.051675 0.321162
N5    N     N_1   0.683355 0.076466 0.065779 -0.101196
C28   C     C_1   0.383872 0.981800 0.915339 0.309187
N6    N     N_1   0.329082 0.077766 0.887636 -0.120132
C29   C     C_1   0.118645 0.246285 0.445619 0.226494
N7    N     N_1   0.161518 0.145522 0.411681 -0.167452
C30   C     C_1   0.880940 0.246049 0.556128 0.229195
N8    N     N_1   0.837771 0.145145 0.590587 -0.166750
F3    F     F_    0.698156 0.864475 0.405521 -0.663909
F4    F     F_    0.301773 0.863162 0.594369 -0.665536

loop_
_geom_bond_atom_site_label_1
_geom_bond_atom_site_label_2
_ccdc_geom_bond_type
C15   C18   A    
C20   F2    S    
C25   N3    T    
C11   C25   S    
C7    N1    A    
O7    Zn2   S    
C11   C16   A    
C4    H2    S    
C19   C20   A    
C12   C15   A    
C7    F3    S    
C10   O8    A    
C8    F4    S    
C9    O7    A    
C1    O3    A    
C13   C14   A    
O8    Zn2   S    
C11   C13   A    
N1    Zn1   S    
C10   C18   S    
O4    Zn2   S    
C8    N1    A    
C2    O2    A    
C21   C22   A    
C6    N2    A    
C12   C14   A    
C28   N6    T    
C22   C30   S    
C18   C20   A    
C21   C29   S    
O5    Zn1   S    
C4    C24   A    
C9    O5    A    
C21   C24   A    
C14   C28   S    
C19   F1    S    
N2    Zn2   S    
C15   C16   A    
O3    Zn2   S    
C27   N5    T    
C26   N4    T    
C1    O1    A    
C3    H1    S    
C1    C24   S    
C13   C27   S    
C5    N2    A    
O2    Zn1   S    
C9    C17   S    
C2    C23   S    
C5    C7    A    
C22   C23   A    
C16   C17   A    
C6    C8    A    
C17   C19   A    
C2    O4    A    
C5    H3    S    
C3    C23   A    
O6    Zn1   S    
C6    H4    S    
C3    C4    A    
C29   N7    T    
C30   N8    T    
O1    Zn1   S    
C12   C26   S    
C10   O6    A    
