data_mof_unit_24114.cif
_audit_creation_date              2013-03-05T16:17:06-0500
_audit_creation_method            fapswitch 2.2
_symmetry_space_group_name_H-M    P1
_symmetry_Int_Tables_number       1
_space_group_crystal_system       triclinic
_cell_length_a                    8.376956
_cell_length_b                    18.862996
_cell_length_c                    19.102489
_cell_angle_alpha                 102.604696
_cell_angle_beta                  94.831059
_cell_angle_gamma                 90.853364
_cell_volume                      2933.53778132

loop_
_atom_site_label
_atom_site_type_symbol
_atom_site_description
_atom_site_fract_x
_atom_site_fract_y
_atom_site_fract_z
_atom_type_partial_charge
P1    P     P_3+3 0.945300 0.665790 0.568510 0.464726
O1    O     O_2   0.117290 0.676350 0.548250 -0.361183
O2    O     O_3   0.869060 0.586940 0.542720 -0.392344
O3    O     O_3   0.356990 0.628630 0.417250 -0.356883
O4    O     O_2   0.258869 0.756222 0.483233 -0.386241
O5    O     O_3   0.990585 0.688529 0.662428 -0.601692
O6    O     O_3   0.295083 0.748082 0.349507 -0.521306
H1    H     H_    0.267997 0.642747 0.288984 0.146127
C1    C     C_3   0.271567 0.720749 0.221528 -0.630423
H2    H     H_    0.139877 0.724958 0.218342 0.222151
H3    H     H_    0.323176 0.775847 0.223888 0.232737
P2    P     P_3+3 0.360080 0.438780 0.334620 0.604609
P3    P     P_3+3 0.906018 0.575191 0.285969 0.446495
O7    O     O_2   0.186600 0.460070 0.325400 -0.349258
O8    O     O_3   0.942970 0.591450 0.378940 -0.350839
O9    O     O_2   0.057402 0.539806 0.255860 -0.413964
O10   O     O_3   0.333938 0.344364 0.308562 -0.435030
O11   O     O_3   0.920939 0.658505 0.261070 -0.515506
C2    C     C_3   0.779429 0.696255 0.271766 0.108343
H4    H     H_    0.735267 0.694608 0.324833 0.054948
H5    H     H_    0.687161 0.671305 0.227611 0.101817
C3    C     C_3   0.814571 0.775614 0.268333 -0.495278
H6    H     H_    0.883708 0.775615 0.221161 0.176032
C4    C     C_3   0.894190 0.360411 0.305421 0.313059
H7    H     H_    0.844901 0.414724 0.325216 0.067166
H8    H     H_    0.024121 0.362046 0.318252 0.209782
C5    C     C_3   0.860348 0.338593 0.223421 -0.766397
H9    H     H_    0.730178 0.335077 0.207379 0.182272
H10   H     H_    0.909826 0.381491 0.199264 0.211151
Ba1   Ba    Ba6+2 0.153490 0.533960 0.468530 1.648337
C6    C     C_3   0.861897 0.679967 0.702989 0.208396
H11   H     H_    0.757153 0.652220 0.668123 0.112073
C7    C     C_3   0.808745 0.755599 0.745069 -0.512693
H12   H     H_    0.713901 0.774171 0.709598 0.122320
C8    C     C_3   0.457954 0.316441 0.267242 0.395045
H13   H     H_    0.572708 0.335949 0.297639 0.092652
H14   H     H_    0.448528 0.333300 0.215049 0.062683
C9    C     C_3   0.450193 0.233729 0.250829 -0.782021
H15   H     H_    0.472396 0.213382 0.300859 0.260678
H16   H     H_    0.543613 0.212459 0.214568 0.237380
H17   H     H_    0.330953 0.212925 0.223708 0.238952
P4    P     P_3+3 0.865000 0.334200 0.431430 0.585165
O12   O     O_2   0.693010 0.323600 0.451730 -0.310684
O13   O     O_3   0.941240 0.413050 0.457220 -0.349255
O14   O     O_3   0.453310 0.371360 0.582690 -0.288721
O15   O     O_3   0.826145 0.308772 0.337509 -0.567646
P5    P     P_3+3 0.887089 0.413946 0.714199 0.523681
O16   O     O_3   0.371310 0.539060 0.587050 -0.317069
O17   O     O_3   0.867330 0.408540 0.621000 -0.382333
O18   O     O_2   0.748518 0.460428 0.744395 -0.370459
O19   O     O_3   0.835840 0.327761 0.726971 -0.435877
Ba2   Ba    Ba6+2 0.656680 0.466030 0.531410 1.685285
P6    P     P_3+3 0.375881 0.723118 0.427748 0.477733
C10   C     C_3   0.330096 0.695221 0.289438 0.344391
H18   H     H_    0.460701 0.687381 0.290101 -0.030174
O20   O     O_3   0.438990 0.460930 0.412890 -0.301866
C11   C     C_3   0.369263 0.697124 0.680105 0.433717
H19   H     H_    0.256548 0.665639 0.661926 0.159175
C12   C     C_3   0.332772 0.766723 0.733159 -1.076069
H20   H     H_    0.439174 0.804457 0.747328 0.231798
H21   H     H_    0.236414 0.795502 0.708893 0.237855
H22   H     H_    0.294085 0.753275 0.783034 0.305268
P7    P     P_3+3 0.446104 0.563816 0.679655 0.465664
O21   O     O_2   0.623700 0.539890 0.674570 -0.381231
O22   O     O_3   0.477240 0.657431 0.714530 -0.621007
C13   C     C_3   0.958875 0.280541 0.705191 0.445551
H23   H     H_    0.997298 0.285504 0.652017 0.027453
H24   H     H_    0.062034 0.291868 0.746854 0.074488
C14   C     C_3   0.898554 0.202687 0.698365 -0.866016
H25   H     H_    0.799348 0.188683 0.654780 0.267329
H26   H     H_    0.997414 0.164887 0.685303 0.209005
H27   H     H_    0.854459 0.196166 0.749901 0.273359
P8    P     P_3+3 0.428926 0.278547 0.583073 0.552004
C15   C     C_3   0.410162 0.321495 0.719120 0.465285
H28   H     H_    0.283812 0.329368 0.700523 -0.043811
O23   O     O_2   0.565961 0.240972 0.541649 -0.356022
O24   O     O_3   0.480977 0.267272 0.670326 -0.520094
H29   H     H_    0.479674 0.373594 0.726790 0.140510
H30   H     H_    0.348499 0.338414 0.829101 0.223223
C16   C     C_3   0.413027 0.298932 0.790846 -0.890189
H31   H     H_    0.538791 0.296736 0.813698 0.296163
H32   H     H_    0.352937 0.244558 0.783302 0.251460
C17   C     C_R   0.984668 0.957411 0.549358 0.016921
C18   C     C_R   0.082022 0.910359 0.580927 0.127866
C19   C     C_R   0.234136 0.935495 0.614481 -0.150042
C20   C     C_R   0.289935 0.006175 0.616044 -0.191853
C21   C     C_R   0.194682 0.053401 0.584314 0.114167
C22   C     C_R   0.041000 0.029243 0.551015 0.024953
C23   C     C_R   0.252904 0.123535 0.584006 -0.207613
C24   C     C_R   0.161388 0.170282 0.549536 -0.088645
C25   C     C_R   0.004802 0.146765 0.516447 0.007268
C26   C     C_R   0.945633 0.076028 0.517829 0.012758
C27   C     C_R   0.226249 0.237252 0.541344 0.022577
C28   C     C_R   0.139473 0.273036 0.494447 0.225815
C29   C     C_R   0.974367 0.262367 0.475527 0.105281
C30   C     C_R   0.909770 0.192822 0.479903 -0.114376
C31   C     C_R   0.832158 0.932442 0.515525 0.008177
C32   C     C_R   0.779622 0.859167 0.510102 -0.013402
C33   C     C_R   0.880743 0.810583 0.539495 -0.059992
C34   C     C_R   0.028179 0.838492 0.577243 -0.066739
H33   H     H_    0.311147 0.900099 0.638743 0.126119
H34   H     H_    0.408724 0.023676 0.641501 0.143166
H35   H     H_    0.373005 0.139801 0.608018 0.179143
H36   H     H_    0.105077 0.804247 0.602301 0.147064
C35   C     C_R   0.760609 0.164824 0.444119 -0.055643
C36   C     C_R   0.698611 0.096527 0.449159 0.104837
C37   C     C_R   0.792365 0.051277 0.484715 0.009244
C38   C     C_R   0.734389 0.980182 0.484923 0.030630
C39   C     C_R   0.543858 0.072355 0.418313 -0.159093
C40   C     C_R   0.483996 0.003525 0.421294 -0.128447
C41   C     C_R   0.579658 0.956399 0.452969 0.146319
C42   C     C_R   0.626259 0.834702 0.474928 -0.055984
C43   C     C_R   0.525062 0.885002 0.450210 -0.144136
C44   C     C_R   0.581217 0.760150 0.463416 0.166075
C45   C     C_R   0.690541 0.711555 0.484800 -0.403329
C46   C     C_R   0.832784 0.735492 0.527888 0.225995
H37   H     H_    0.691214 0.195197 0.411341 0.173386
H38   H     H_    0.468828 0.106773 0.391819 0.145864
H39   H     H_    0.364391 0.986258 0.396737 0.156008
H40   H     H_    0.406123 0.868393 0.425032 0.187763
H41   H     H_    0.658199 0.654168 0.472462 0.195161
N1    N     N_R   0.454827 0.547440 0.971108 -0.040662
N2    N     N_R   0.506342 0.548828 0.039480 -0.028643
C47   C     C_2   0.593387 0.518341 0.295405 -0.452918
C48   C     C_3   0.731848 0.512099 0.248555 0.179685
C49   C     C_2   0.676060 0.516148 0.172934 -0.209460
C50   C     C_2   0.524699 0.494895 0.147027 -0.049319
C51   C     C_2   0.411083 0.473450 0.197464 -0.248468
C52   C     C_1   0.459099 0.480684 0.268359 0.186174
N3    N     N_R   0.402519 0.430793 0.027046 -0.043223
N4    N     N_R   0.353134 0.429053 0.958506 -0.010232
C53   C     C_R   0.373219 0.488093 0.929682 0.266204
C54   C     C_R   0.476459 0.491441 0.069477 0.126712
C55   C     C_R   0.393179 0.518596 0.810022 -0.228882
C56   C     C_R   0.336312 0.516520 0.738605 0.237374
C57   C     C_R   0.085982 0.455993 0.756992 -0.011533
C58   C     C_R   0.140585 0.460964 0.830740 0.390302
C59   C     C_R   0.300337 0.488959 0.855823 -0.143323
C60   C     C_R   0.185751 0.483724 0.712322 -0.458561
H42   H     H_    0.762017 0.529555 0.137827 0.169848
H43   H     H_    0.510805 0.542972 0.829854 0.161913
H44   H     H_    0.596584 0.559568 0.345053 0.145502
C61   C     C_2   0.934231 0.267720 0.193347 0.837323
H45   H     H_    0.062881 0.262489 0.200918 0.051877
O25   O     O_2   0.850585 0.215698 0.160133 -0.583035
C62   C     C_2   0.918091 0.632745 0.753998 0.554552
H46   H     H_    0.832242 0.600152 0.773789 0.043270
O26   O     O_2   0.058723 0.634349 0.777240 -0.598112
C63   C     C_2   0.941800 0.812876 0.761485 0.718137
H47   H     H_    0.043367 0.808194 0.799058 0.065755
O27   O     O_2   0.934339 0.865862 0.734490 -0.618918
C64   C     C_2   0.737866 0.752791 0.815002 0.455555
H48   H     H_    0.609819 0.752298 0.817979 0.111951
O28   O     O_2   0.823995 0.749757 0.869120 -0.546605
C65   C     C_2   0.314549 0.668651 0.155404 0.549693
H49   H     H_    0.271065 0.612494 0.144236 0.033846
O29   O     O_2   0.396673 0.689233 0.113398 -0.554786
C66   C     C_2   0.441649 0.715256 0.617248 0.535594
H50   H     H_    0.466159 0.771134 0.614115 -0.044525
O30   O     O_2   0.474430 0.666045 0.568577 -0.552359
C67   C     C_2   0.661733 0.813484 0.255136 0.514014
H51   H     H_    0.589814 0.795180 0.204326 0.082127
O31   O     O_2   0.619258 0.865376 0.298953 -0.563378
S1    S     S_3+6 0.240788 0.293728 0.427239 -0.004307
O32   O     O_2   0.240562 0.374434 0.442249 -0.184682
O33   O     O_2   0.408241 0.267714 0.426191 -0.298303
O34   O     O_3   0.140564 0.254779 0.347720 -0.587196
H52   H     H_    0.146396 0.201774 0.344568 0.326732
C68   C     C_2   0.250210 0.443970 0.165541 0.630650
H53   H     H_    0.184990 0.468843 0.126154 0.048578
O35   O     O_2   0.192929 0.389519 0.179399 -0.629648
S2    S     S_3+6 0.013493 0.433885 0.892283 -0.013073
O36   O     O_2   0.045766 0.356279 0.894696 -0.264700
O37   O     O_2   0.050797 0.480425 0.966734 -0.317493
O38   O     O_3   0.816393 0.439651 0.870954 -0.467373
H54   H     H_    0.792883 0.491465 0.888828 0.348020
C69   C     C_2   0.128562 0.483430 0.637786 0.722631
H55   H     H_    0.059451 0.528017 0.625777 0.027582
O39   O     O_2   0.158360 0.432902 0.589357 -0.560971
C70   C     C_2   0.915904 0.815133 0.334981 0.785736
H56   H     H_    0.935052 0.791102 0.381595 0.003551
O40   O     O_2   0.976902 0.874875 0.337252 -0.575373

loop_
_geom_bond_atom_site_label_1
_geom_bond_atom_site_label_2
_geom_bond_distance
_ccdc_geom_bond_type
C13   H24   1.109175 S    
C30   C35   1.409393 A    
P7    O22   1.753186 S    
C49   C50   1.343836 D    
C45   H41   1.081628 S    
C17   C22   1.421035 A    
O3    P6    1.752777 S    
C5    H10   1.106678 S    
C29   C30   1.433536 A    
C68   H53   1.084969 S    
C2    H4    1.114443 S    
C4    C5    1.530919 S    
P8    C27   1.893778 S    
C21   C22   1.409859 A    
C35   H37   1.078607 S    
C51   C52   1.356617 D    
C11   C66   1.490681 S    
C42   C44   1.415491 A    
C67   H51   1.083183 S    
C11   H19   1.096763 S    
P5    O17   1.754431 S    
C19   C20   1.399500 A    
C70   H56   1.085538 S    
C56   C60   1.400014 A    
C49   H42   1.087252 S    
C27   C28   1.398371 A    
P3    O11   1.744130 S    
N2    C54   1.359995 A    
Ba1   O16   2.769183 S    
S1    O32   1.486422 D    
C8    H14   1.107829 S    
C4    H8    1.093831 S    
O11   C2    1.398740 S    
C63   O27   1.220709 D    
C9    H15   1.107933 S    
P5    C57   1.876564 S    
O12   Ba2   2.818706 S    
C11   C12   1.525629 S    
C13   C14   1.520593 S    
C65   O29   1.220177 D    
C36   C37   1.410617 A    
C53   C59   1.492947 S    
C45   C46   1.399201 A    
C34   H36   1.075528 S    
O14   P8    1.761258 S    
P1    O1    1.544101 D    
P4    O15   1.753929 S    
C14   H26   1.109603 S    
C40   C41   1.404568 A    
C58   S2    1.798103 S    
C25   C30   1.437886 A    
C6    C62   1.509471 S    
C17   C18   1.410259 A    
C70   O40   1.220930 D    
C69   O39   1.219713 D    
C15   O24   1.400690 S    
P2    O10   1.746616 S    
C5    C61   1.499901 S    
C37   C38   1.420418 A    
C6    C7    1.567936 S    
C50   C51   1.520143 S    
P1    C46   1.891617 S    
C1    H2    1.104714 S    
C24   C27   1.412676 A    
S2    O38   1.677898 S    
P3    C48   1.859374 S    
O13   Ba2   2.951493 S    
O5    C6    1.406653 S    
C51   C68   1.479346 S    
O34   H52   0.990634 S    
C15   C16   1.519304 S    
C23   H35   1.080929 S    
C66   O30   1.214689 D    
C68   O35   1.216820 D    
C47   H44   1.085430 S    
C28   C29   1.399928 A    
P4    O13   1.568980 S    
O7    Ba1   2.823318 S    
C57   C60   1.414985 A    
N1    C53   1.358747 A    
C42   C43   1.412060 A    
C67   O31   1.219959 D    
S2    O37   1.504335 D    
C39   H38   1.083815 S    
C31   C32   1.423575 A    
P5    O18   1.539895 D    
C62   O26   1.221005 D    
S1    O34   1.682783 S    
C12   H21   1.104974 S    
C32   C42   1.420040 A    
P2    C52   1.873212 S    
P4    C29   1.946810 S    
C18   C34   1.407446 A    
C22   C26   1.413777 A    
C2    C3    1.537786 S    
C18   C19   1.403987 A    
C9    H17   1.110212 S    
C3    C70   1.510649 S    
Ba2   O21   2.823449 S    
H1    C10   1.109319 S    
C25   C26   1.422901 A    
C3    C67   1.504834 S    
C20   C21   1.404638 A    
C16   H31   1.110820 S    
O16   P7    1.784375 S    
P5    O19   1.748362 S    
O14   Ba2   2.829270 S    
P7    O21   1.565764 D    
Ba1   O20   2.938450 S    
P6    C44   1.862784 S    
P1    O5    1.758187 S    
P1    O2    1.568979 S    
C8    H13   1.094923 S    
P7    C56   1.870399 S    
O2    Ba1   2.950563 S    
C2    H5    1.111964 S    
C60   C69   1.462318 S    
C43   H40   1.079999 S    
C26   C37   1.408197 A    
C33   C34   1.409764 A    
C31   C38   1.412263 A    
O16   Ba2   2.937521 S    
O17   Ba2   2.752638 S    
C8    C9    1.522084 S    
C7    H12   1.110984 S    
C41   C43   1.404393 A    
C4    H7    1.110357 S    
C1    H3    1.109956 S    
P2    O20   1.549082 S    
C16   H32   1.110845 S    
C64   O28   1.222283 D    
C69   H55   1.082356 S    
P3    O8    1.735182 S    
C15   H29   1.109994 S    
C66   H50   1.086211 S    
P8    O23   1.542317 D    
N3    C54   1.356102 A    
P4    O12   1.544503 D    
O6    P6    1.749267 S    
N4    C53   1.359920 A    
C20   H34   1.083656 S    
C28   S1    1.706829 S    
C15   H28   1.110363 S    
C33   C46   1.431035 A    
C14   H27   1.110623 S    
C19   H33   1.083644 S    
S2    O36   1.502429 D    
O8    Ba1   2.751992 S    
C62   H46   1.082659 S    
C58   C59   1.435212 A    
O4    P6    1.542218 D    
C61   O25   1.220397 D    
Ba1   Ba2   4.664740 S    
C10   H18   1.105594 S    
C12   H22   1.110007 S    
P2    Ba1   3.405226 S    
C6    H11   1.105976 S    
C50   C54   1.489423 S    
C11   O22   1.395014 S    
C57   C58   1.426591 A    
C7    C64   1.517728 S    
C40   H39   1.083710 S    
C55   C59   1.413518 A    
O2    Ba2   2.830707 S    
C44   C45   1.403989 A    
C55   C56   1.398666 A    
C35   C36   1.407582 A    
C38   C41   1.408483 A    
O1    Ba1   2.818150 S    
C4    O15   1.397266 S    
C21   C23   1.404536 A    
N3    N4    1.332689 A    
P2    O7    1.519648 D    
O38   H54   0.990971 S    
C7    C63   1.505106 S    
C63   H47   1.083471 S    
C55   H43   1.083259 S    
C9    H16   1.110212 S    
C24   C25   1.427433 A    
C48   C49   1.498814 S    
S1    O33   1.493259 D    
P1    Ba1   3.389725 S    
C47   C52   1.324786 D    
C13   H23   1.113472 S    
Ba1   O13   2.830043 S    
C14   H25   1.111090 S    
H30   C16   1.105373 S    
Ba2   O20   2.768542 S    
C12   H20   1.109380 S    
C64   H48   1.078931 S    
C1    C65   1.495409 S    
C32   C33   1.428370 A    
C17   C31   1.407786 A    
P3    O9    1.537856 D    
C39   C40   1.399298 A    
C65   H49   1.084950 S    
P8    O24   1.745982 S    
C3    H6    1.111437 S    
C1    C10   1.525655 S    
O10   C8    1.397387 S    
O6    C10   1.401071 S    
N1    N2    1.335128 A    
C23   C24   1.409742 A    
O19   C13   1.402338 S    
O3    Ba1   2.829948 S    
C61   H45   1.084070 S    
P4    Ba2   3.390350 S    
C47   C48   1.514285 S    
C5    H9    1.104553 S    
C36   C39   1.404318 A    
