data_mof_unit_29103.cif
_audit_creation_date              2012-12-10T18:31:51-0500
_audit_creation_method            fapswitch 2.2
_symmetry_space_group_name_H-M    P1
_symmetry_Int_Tables_number       1
_space_group_crystal_system       triclinic
_cell_length_a                    10.809333
_cell_length_b                    14.870849
_cell_length_c                    15.438876
_cell_angle_alpha                 81.539778
_cell_angle_beta                  90.751993
_cell_angle_gamma                 104.306099
_cell_volume                      2377.8803274

loop_
_atom_site_label
_atom_site_type_symbol
_atom_type_description
_atom_site_fract_x
_atom_site_fract_y
_atom_site_fract_z
_atom_type_partial_charge
C1    C     C_R   0.482973 0.441459 0.662514 0.842257
C2    C     C_3   0.117766 0.491936 0.506275 -0.163681
C3    C     C_3   0.084612 0.548127 0.414458 0.310129
C4    C     C_3   0.088787 0.543014 0.588062 0.278814
C5    C     C_R   0.493388 0.407531 0.755317 -0.088567
C6    C     C_R   0.553654 0.595874 0.245640 -0.064447
C7    C     C_R   0.538237 0.292584 0.872037 0.217287
C8    C     C_R   0.507389 0.317338 0.784792 -0.269735
C9    C     C_R   0.507934 0.472582 0.813046 -0.273814
C10   C     C_R   0.551194 0.453750 0.897518 0.043389
C11   C     C_R   0.561660 0.361325 0.928790 0.138760
C12   C     C_R   0.740746 0.497691 0.505170 0.905507
C13   C     C_R   0.579358 0.524273 0.952327 0.088726
C14   C     C_R   0.595185 0.497743 0.042579 0.079588
C15   C     C_R   0.610061 0.406386 0.072065 -0.260988
C16   C     C_R   0.596032 0.340111 0.015599 -0.224761
C17   C     C_R   0.591999 0.620416 0.919885 -0.244046
C18   C     C_R   0.602148 0.686237 0.976336 -0.244410
C19   C     C_R   0.595001 0.657572 0.066431 0.179112
C20   C     C_R   0.591842 0.563001 0.100239 0.087498
C21   C     C_R   0.586155 0.721386 0.123175 -0.199671
C22   C     C_R   0.564591 0.690455 0.212598 -0.209494
C23   C     C_R   0.524033 0.558796 0.337866 0.852346
C24   C     C_R   0.572848 0.534390 0.190268 -0.262245
C25   C     C_R   0.672375 0.836410 0.652134 -0.038466
C26   C     C_R   0.659613 0.752860 0.616298 0.213981
C27   C     C_R   0.502027 0.790749 0.519620 -0.103874
C28   C     C_R   0.509647 0.875801 0.552699 -0.067003
C29   C     C_R   0.595340 0.897347 0.620893 0.100783
C30   C     C_R   0.437449 0.940686 0.518825 0.083136
C31   C     C_R   0.459767 0.030088 0.548161 0.067261
C32   C     C_R   0.527397 0.040777 0.627279 0.043697
C33   C     C_R   0.598261 0.977147 0.659684 -0.180012
C34   C     C_R   0.256953 0.497630 0.502346 0.912651
C35   C     C_R   0.343628 0.919160 0.456183 -0.242525
C36   C     C_R   0.295195 0.988426 0.409143 -0.202797
C37   C     C_R   0.341317 0.082128 0.421198 0.084171
C38   C     C_R   0.417297 0.103961 0.494729 -0.043719
C39   C     C_R   0.320692 0.154608 0.357381 0.056089
C40   C     C_R   0.368461 0.248092 0.370380 0.302042
C41   C     C_R   0.456877 0.199957 0.505738 -0.159231
C42   C     C_3   0.885383 0.385093 0.522522 0.222054
C43   C     C_3   0.033311 0.381520 0.520355 0.221309
C44   C     C_3   0.938916 0.545875 0.418256 -0.253039
C45   C     C_3   0.942698 0.543453 0.586955 -0.054505
C46   C     C_3   0.875796 0.493055 0.509168 -0.117498
H1    H     H_    0.609236 0.271383 0.041166 0.176435
H2    H     H_    0.565698 0.462691 0.218251 0.164155
H3    H     H_    0.553090 0.739628 0.255265 0.157996
H4    H     H_    0.608743 0.758857 0.949328 0.147760
H5    H     H_    0.495274 0.266656 0.740083 0.156777
H6    H     H_    0.485447 0.538702 0.790368 0.164043
H7    H     H_    0.636171 0.384905 0.138152 0.139932
H8    H     H_    0.595901 0.646953 0.850871 0.137673
H9    H     H_    0.590467 0.794094 0.097952 0.135086
H10   H     H_    0.652443 0.989144 0.718261 0.179796
H11   H     H_    0.517968 0.223430 0.557361 0.163478
H12   H     H_    0.227700 0.968048 0.358977 0.149454
H13   H     H_    0.437899 0.768233 0.469179 0.158741
H14   H     H_    0.307009 0.849270 0.441010 0.139742
H15   H     H_    0.889987 0.504173 0.368280 0.159549
H16   H     H_    0.933352 0.616399 0.572685 0.146995
N1    N     N_R   0.573860 0.731700 0.552730 -0.105512
N2    N     N_R   0.426060 0.268290 0.447230 -0.126659
O1    O     O_R   0.462770 0.383110 0.605620 -0.627727
O2    O     O_R   0.510160 0.531900 0.639510 -0.614585
O3    O     O_R   0.661510 0.425600 0.483070 -0.585217
O4    O     O_R   0.708900 0.574390 0.516960 -0.617578
O5    O     O_R   0.489840 0.468100 0.360490 -0.581717
O6    O     O_R   0.537230 0.616890 0.394380 -0.623494
O7    O     O_R   0.291100 0.425610 0.483040 -0.640732
O8    O     O_R   0.338490 0.574400 0.516930 -0.575096
Zn1   Zn    Zn3+2 0.468350 0.400660 0.477370 0.938980
Zn2   Zn    Zn3+2 0.531650 0.599340 0.522630 0.940866
N3    N     N_3   0.813593 0.336310 0.452672 -0.424347
H17   H     H_    0.856069 0.355755 0.390461 0.162661
H18   H     H_    0.792477 0.263202 0.468239 0.169653
N4    N     N_2   0.164465 0.641947 0.579662 -0.265745
H19   H     H_    0.122081 0.692579 0.549433 0.188116
C47   C     C_3   0.240041 0.676394 0.652070 -0.699223
H20   H     H_    0.283342 0.752783 0.635134 0.217813
H21   H     H_    0.318874 0.640996 0.665551 0.260327
H22   H     H_    0.179208 0.665704 0.711807 0.230201
N5    N     N_3   0.913490 0.638862 0.390155 -0.463127
H23   H     H_    0.822317 0.631227 0.363972 0.206034
H24   H     H_    0.918314 0.677793 0.441487 0.188119
N6    N     N_2   0.166006 0.645755 0.401053 -0.271709
H25   H     H_    0.128966 0.699865 0.413415 0.226915
C48   C     C_3   0.262713 0.677672 0.331316 -0.743464
H26   H     H_    0.331883 0.742403 0.344359 0.208754
H27   H     H_    0.217787 0.694858 0.267977 0.225790
H28   H     H_    0.315613 0.623869 0.326232 0.255931
N7    N     N_2   0.549140 0.199610 0.901356 -0.321095
H29   H     H_    0.585781 0.170212 0.854215 0.235570
C49   C     C_3   0.433758 0.137571 0.942605 -0.804855
H30   H     H_    0.452277 0.068519 0.968465 0.241596
H31   H     H_    0.356401 0.126932 0.894185 0.246623
H32   H     H_    0.402217 0.166989 0.998117 0.246633
N8    N     N_3   0.817944 0.338825 0.606663 -0.453481
H33   H     H_    0.773315 0.268083 0.606758 0.172229
H34   H     H_    0.874736 0.343660 0.661436 0.222260
N9    N     N_2   0.374569 0.320427 0.298156 -0.266707
H35   H     H_    0.416746 0.308888 0.242751 0.218806
C50   C     C_3   0.258574 0.350081 0.279104 -0.740169
H36   H     H_    0.176601 0.289519 0.273116 0.231172
H37   H     H_    0.271469 0.399775 0.216806 0.230673
H38   H     H_    0.239243 0.387907 0.331209 0.287799
N10   N     N_3   0.761555 0.859129 0.720150 -0.485562
H39   H     H_    0.738391 0.805982 0.773950 0.178826
H40   H     H_    0.853254 0.862493 0.697018 0.184084
N11   N     N_3   0.733911 0.688193 0.647067 -0.393224
H41   H     H_    0.715957 0.667117 0.714188 0.164491
H42   H     H_    0.830078 0.723189 0.636483 0.147390
N12   N     N_2   0.068137 0.328951 0.601907 -0.328024
H43   H     H_    0.163139 0.347663 0.617065 0.234714
C51   C     C_3   0.022789 0.227191 0.619121 -0.847945
H44   H     H_    0.013188 0.204213 0.690955 0.249700
H45   H     H_    0.092706 0.194030 0.592490 0.241108
H46   H     H_    0.929405 0.201324 0.589581 0.243707
N13   N     N_3   0.508844 0.103523 0.685149 -0.483233
H47   H     H_    0.587407 0.161489 0.679211 0.161822
H48   H     H_    0.422787 0.122835 0.673634 0.191146
N14   N     N_2   0.258684 0.135740 0.277467 -0.308970
H49   H     H_    0.168603 0.091202 0.285434 0.219334
C52   C     C_3   0.336828 0.114677 0.211393 -0.796315
H50   H     H_    0.359364 0.045921 0.232045 0.240164
H51   H     H_    0.427550 0.169802 0.198875 0.236994
H52   H     H_    0.284186 0.111616 0.149255 0.238977
N15   N     N_3   0.058708 0.331543 0.448153 -0.473455
H53   H     H_    0.990025 0.268906 0.446667 0.167079
H54   H     H_    0.137905 0.303799 0.459945 0.235858
N16   N     N_3   0.107581 0.502788 0.338749 -0.464383
H55   H     H_    0.037947 0.442134 0.332889 0.172807
H56   H     H_    0.095155 0.545328 0.280722 0.196151
N17   N     N_2   0.875309 0.506859 0.671880 -0.294123
H57   H     H_    0.777435 0.484484 0.668720 0.245574
C53   C     C_3   0.911845 0.560072 0.744013 -0.762819
H58   H     H_    0.827730 0.551686 0.787881 0.228460
H59   H     H_    0.950547 0.635872 0.720389 0.228233
H60   H     H_    0.984042 0.533195 0.784430 0.256850
N18   N     N_3   0.121441 0.493970 0.672647 -0.440480
H61   H     H_    0.054209 0.433322 0.698527 0.216256
H62   H     H_    0.212250 0.481526 0.670907 0.157853

loop_
_geom_bond_atom_site_label_1
_geom_bond_atom_site_label_2
_ccdc_geom_bond_type
N6    H25   S    
N7    H29   S    
C49   H30   S    
C23   O5    A    
C19   C20   A    
N3    H17   S    
C50   H37   S    
N12   H43   S    
C49   H32   S    
O1    Zn1   S    
N14   H49   S    
C45   C46   S    
N10   H39   S    
C4    N4    S    
C12   O4    A    
C42   N3    S    
C30   C35   A    
C1    C5    S    
C15   H7    S    
C28   C29   A    
C19   C21   A    
N5    H24   S    
C36   H12   S    
N18   H62   S    
C43   N12   S    
C30   C31   A    
N4    C47   S    
N14   C52   S    
O4    Zn2   S    
C15   C16   A    
O2    Zn2   S    
C29   C33   A    
C45   H16   S    
C39   N14   S    
C51   H44   S    
C17   C18   A    
C18   C19   A    
C42   C46   S    
C20   C24   A    
N13   H48   S    
N16   H55   S    
O6    Zn2   S    
C52   H52   S    
C1    O1    A    
N2    Zn1   S    
O5    Zn1   S    
O3    Zn1   S    
C48   H27   S    
C9    C10   A    
C2    C34   S    
C33   H10   S    
N17   H57   S    
N7    C49   S    
C21   C22   A    
C23   O6    A    
C9    H6    S    
C32   N13   S    
C47   H22   S    
C16   H1    S    
C50   H36   S    
C12   O3    A    
C44   C46   S    
C7    C11   A    
C4    C45   S    
C25   C29   A    
C7    N7    S    
C53   H60   S    
C3    C44   S    
C45   N17   S    
C3    N6    S    
C3    N16   S    
C24   H2    S    
C51   H46   S    
C14   C20   A    
C7    C8    A    
N5    H23   S    
C38   C41   A    
O8    Zn2   S    
C39   C40   A    
O7    Zn1   S    
C17   H8    S    
N4    H19   S    
C25   C26   A    
C42   N8    S    
C35   H14   S    
C35   C36   A    
C2    C4    S    
C26   N1    A    
C5    C9    A    
C37   C38   A    
C53   H59   S    
C11   C16   A    
N8    H33   S    
C43   N15   S    
C2    C43   S    
C6    C24   A    
C1    O2    A    
N11   H42   S    
C48   H28   S    
N9    C50   S    
N3    H18   S    
C8    H5    S    
C27   N1    A    
C22   H3    S    
C12   C46   S    
N8    H34   S    
N6    C48   S    
C52   H50   S    
C42   C43   S    
C34   O8    A    
C4    N18   S    
N13   H47   S    
C18   H4    S    
C21   H9    S    
N15   H53   S    
N17   C53   S    
C36   C37   A    
N11   H41   S    
C31   C32   A    
C47   H20   S    
C44   N5    S    
C10   C13   A    
C5    C8    A    
N12   C51   S    
C49   H31   S    
N1    Zn2   S    
C44   H15   S    
C53   H58   S    
C40   N2    A    
C31   C38   A    
C13   C17   A    
C32   C33   A    
C28   C30   A    
C2    C3    S    
C41   H11   S    
C37   C39   A    
C27   H13   S    
N18   H61   S    
N10   H40   S    
C6    C23   S    
C26   N11   S    
C47   H21   S    
C51   H45   S    
N9    H35   S    
C10   C11   A    
C40   N9    S    
N16   H56   S    
C27   C28   A    
C52   H51   S    
C14   C15   A    
C41   N2    A    
C48   H26   S    
C13   C14   A    
C34   O7    A    
C50   H38   S    
C25   N10   S    
N15   H54   S    
C6    C22   A    
