data_mof_unit_59075.cif
_audit_creation_date              2012-10-26T19:31:24-0400
_audit_creation_method            fapswitch 2.2
_symmetry_space_group_name_H-M    P1
_symmetry_Int_Tables_number       1
_space_group_crystal_system       triclinic
_cell_length_a                    14.643459
_cell_length_b                    15.871513
_cell_length_c                    17.149857
_cell_angle_alpha                 90.112201
_cell_angle_beta                  85.252306
_cell_angle_gamma                 90.979572
_cell_volume                      3971.6070206

loop_
_atom_site_label
_atom_site_type_symbol
_atom_type_description
_atom_site_fract_x
_atom_site_fract_y
_atom_site_fract_z
_atom_type_partial_charge
C1    C     C_R   0.500798 0.660369 0.500335 0.591467
C2    C     C_3   0.582679 0.032267 0.516596 -0.049949
C3    C     C_3   0.504079 0.916452 0.499420 0.034842
C4    C     C_3   0.497419 0.083565 0.500903 0.036546
C5    C     C_1   0.504670 0.824966 0.499842 0.056409
C6    C     C_1   0.496253 0.175040 0.500612 0.056455
C7    C     C_3   0.021193 0.458244 0.564602 -0.054087
C8    C     C_3   0.978836 0.542544 0.436659 -0.067880
C9    C     C_3   0.962096 0.538405 0.564588 -0.014372
C10   C     C_3   0.037868 0.462331 0.436775 -0.012226
C11   C     C_3   0.966956 0.421558 0.497978 0.019963
C12   C     C_R   0.499208 0.339631 0.500166 0.538480
C13   C     C_3   0.033025 0.579177 0.503380 -0.004603
C14   C     C_3   0.907676 0.501572 0.498241 0.000385
C15   C     C_3   0.092247 0.499196 0.503022 -0.005102
C16   C     C_R   0.487363 0.497791 0.650584 0.527087
C17   C     C_R   0.512621 0.501162 0.349320 0.578806
C18   C     C_1   0.805535 0.500630 0.499377 0.230812
C19   C     C_1   0.194432 0.499671 0.501082 0.212688
C20   C     C_R   0.477394 0.490819 0.736279 -0.037296
C21   C     C_R   0.522220 0.507181 0.263443 -0.014056
C22   C     C_R   0.521650 0.425341 0.773590 0.015451
C23   C     C_3   0.480906 0.027057 0.429887 -0.010512
C24   C     C_R   0.471723 0.567860 0.225420 -0.033389
C25   C     C_R   0.512693 0.419907 0.856059 0.012552
C26   C     C_R   0.480557 0.573127 0.143148 -0.001397
C27   C     C_R   0.454728 0.476331 0.899694 -0.018947
C28   C     C_R   0.538411 0.516436 0.099654 -0.013066
C29   C     C_R   0.402685 0.535783 0.861950 0.029414
C30   C     C_R   0.592223 0.458436 0.137208 -0.008167
C31   C     C_R   0.415758 0.544126 0.780002 -0.069840
C32   C     C_R   0.584250 0.454128 0.219751 -0.040336
C33   C     C_2   0.458610 0.481068 0.984975 -0.097280
C34   C     C_3   0.520642 0.972974 0.570407 -0.011544
C35   C     C_2   0.534468 0.510858 0.014461 -0.099148
C36   C     C_2   0.570280 0.358641 0.725916 0.279317
C37   C     C_2   0.413726 0.629511 0.271460 0.234748
C38   C     C_R   0.034412 0.410282 0.638702 0.013082
C39   C     C_R   0.957473 0.374310 0.681501 -0.086732
C40   C     C_R   0.967382 0.329711 0.750386 -0.108250
C41   C     C_R   0.054066 0.321145 0.777543 -0.088520
C42   C     C_R   0.130878 0.357253 0.735854 -0.096291
C43   C     C_R   0.121274 0.401661 0.666750 -0.092825
C44   C     C_R   0.965745 0.590962 0.362765 0.008524
C45   C     C_3   0.565846 0.975173 0.445376 -0.010884
C46   C     C_R   0.042640 0.627868 0.320641 -0.106590
C47   C     C_R   0.032840 0.673000 0.252038 -0.113449
C48   C     C_R   0.946319 0.681206 0.224484 -0.086038
C49   C     C_R   0.869567 0.644175 0.265480 -0.096512
C50   C     C_R   0.879061 0.599195 0.334288 -0.092248
C51   C     C_2   0.066297 0.668747 0.507868 0.185021
C52   C     C_2   0.933547 0.332005 0.493972 0.204815
C53   C     C_R   0.640583 0.394141 0.260792 0.086275
C54   C     C_R   0.733506 0.412570 0.268735 -0.051573
C55   C     C_R   0.786445 0.356448 0.307830 -0.074210
C56   C     C_3   0.435665 0.024810 0.554934 -0.012200
C57   C     C_R   0.747159 0.281351 0.338415 -0.057135
C58   C     C_R   0.654707 0.262725 0.330786 -0.086872
C59   C     C_R   0.601243 0.319105 0.292482 -0.037424
C60   C     C_R   0.362666 0.607330 0.739516 0.013560
C61   C     C_R   0.404892 0.682419 0.710844 -0.081410
C62   C     C_R   0.354473 0.741220 0.672376 -0.105885
C63   C     C_R   0.262275 0.724989 0.661583 -0.065716
C64   C     C_R   0.220043 0.650062 0.689547 -0.077561
C65   C     C_R   0.269861 0.591531 0.728773 -0.084460
C66   C     C_2   0.337959 0.592885 0.907376 0.274340
C67   C     C_1   0.503071 0.749663 0.500077 0.062810
C68   C     C_2   0.654266 0.401385 0.088740 0.224871
C69   C     C_2   0.432045 0.640398 0.102842 0.275256
C70   C     C_2   0.564933 0.356962 0.898286 0.271425
C71   C     C_2   0.634109 0.947894 0.380681 0.206009
C72   C     C_2   0.367383 0.051948 0.619675 0.208745
C73   C     C_2   0.458494 0.056177 0.350579 0.225414
C74   C     C_2   0.543612 0.944068 0.649624 0.219827
C75   C     C_R   0.669582 0.072696 0.542393 0.018312
C76   C     C_R   0.756117 0.056382 0.504178 -0.083115
C77   C     C_R   0.834989 0.094658 0.529947 -0.090840
C78   C     C_1   0.497244 0.250342 0.500452 0.040448
C79   C     C_R   0.828354 0.149166 0.594136 -0.059471
C80   C     C_R   0.742765 0.165814 0.632537 -0.067366
C81   C     C_R   0.663832 0.127582 0.607058 -0.086449
C82   C     C_R   0.331997 0.927245 0.457840 0.019169
C83   C     C_R   0.245444 0.943392 0.496095 -0.084414
C84   C     C_R   0.166652 0.904852 0.470440 -0.090625
C85   C     C_R   0.173385 0.850236 0.406329 -0.055769
C86   C     C_R   0.258988 0.833786 0.367860 -0.063599
C87   C     C_R   0.337839 0.872286 0.393214 -0.079888
C88   C     C_2   0.923981 0.582631 0.637172 0.221174
C89   C     C_3   0.418837 0.967774 0.483678 -0.051887
C90   C     C_2   0.078698 0.417965 0.365312 0.210736
Cu1   Cu    Cu3+1 0.409780 0.500000 0.499990 1.071859
Cu2   Cu    Cu3+1 0.590220 0.500000 0.500010 1.047348
H1    H     H_    0.594522 0.528699 0.976158 0.142818
H2    H     H_    0.110295 0.621703 0.340985 0.132267
H3    H     H_    0.092390 0.701472 0.220187 0.114701
H4    H     H_    0.938778 0.716018 0.171261 0.127822
H5    H     H_    0.802597 0.650121 0.243834 0.132559
H6    H     H_    0.818615 0.570728 0.364035 0.118879
H7    H     H_    0.017499 0.719480 0.509759 0.117780
H8    H     H_    0.982339 0.281245 0.491250 0.138677
H9    H     H_    0.764567 0.470367 0.244861 0.099539
H10   H     H_    0.857942 0.371052 0.314204 0.119491
H11   H     H_    0.788311 0.237451 0.367936 0.153480
H12   H     H_    0.398985 0.462407 0.023380 0.175473
H13   H     H_    0.624604 0.204546 0.354553 0.134105
H14   H     H_    0.529573 0.304268 0.287103 0.146464
H15   H     H_    0.476474 0.695310 0.718447 0.156267
H16   H     H_    0.386733 0.799363 0.650753 0.140827
H17   H     H_    0.223612 0.770563 0.631609 0.148835
H18   H     H_    0.148727 0.637353 0.680904 0.116232
H19   H     H_    0.236551 0.533738 0.750356 0.111635
H20   H     H_    0.324466 0.654951 0.885028 0.127452
H21   H     H_    0.682637 0.421058 0.031109 0.125114
H22   H     H_    0.366316 0.662958 0.127148 0.097805
H23   H     H_    0.617567 0.374680 0.676060 0.136424
H24   H     H_    0.536500 0.331743 0.954045 0.121836
H25   H     H_    0.668805 0.994879 0.342522 0.102725
H26   H     H_    0.332699 0.004874 0.657742 0.097045
H27   H     H_    0.451699 0.010407 0.304314 0.118080
H28   H     H_    0.548150 0.989671 0.696359 0.126226
H29   H     H_    0.763773 0.013801 0.455157 0.120286
H30   H     H_    0.901415 0.081825 0.500232 0.113089
H31   H     H_    0.889485 0.178680 0.613979 0.119790
H32   H     H_    0.737591 0.208225 0.682155 0.153279
H33   H     H_    0.598028 0.140821 0.637777 0.152784
H34   H     H_    0.344393 0.641186 0.256950 0.074392
H35   H     H_    0.237724 0.986009 0.545088 0.120051
H36   H     H_    0.100214 0.917542 0.500200 0.110666
H37   H     H_    0.112317 0.820505 0.386588 0.119427
H38   H     H_    0.264252 0.791307 0.318294 0.116824
H39   H     H_    0.403649 0.859112 0.362455 0.140957
H40   H     H_    0.970109 0.605725 0.678995 0.105261
H41   H     H_    0.062668 0.437989 0.307665 0.115701
H42   H     H_    0.889711 0.380755 0.661443 0.149422
H43   H     H_    0.907795 0.301940 0.782769 0.140180
H44   H     H_    0.061688 0.286763 0.830989 0.131158
H45   H     H_    0.197982 0.351025 0.757181 0.133679
H46   H     H_    0.181783 0.429372 0.636417 0.121581
N1    N     N_1   0.725810 0.500000 0.500030 -0.174123
N2    N     N_1   0.274190 0.500000 0.499970 -0.176203
O1    O     O_R   0.423830 0.620920 0.499990 -0.461421
O2    O     O_2   0.444032 0.669304 0.324847 -0.497421
O3    O     O_2   0.147861 0.685016 0.509001 -0.528778
O4    O     O_2   0.851824 0.315769 0.494386 -0.541248
O5    O     O_2   0.296591 0.570430 0.968727 -0.515251
O6    O     O_2   0.672385 0.331156 0.111211 -0.477207
O7    O     O_2   0.466364 0.673081 0.042745 -0.472406
O8    O     O_2   0.641484 0.335494 0.873136 -0.472282
O9    O     O_2   0.650586 0.873451 0.370219 -0.480981
O10   O     O_2   0.350888 0.126366 0.630286 -0.479789
O11   O     O_2   0.447797 0.130740 0.337588 -0.505079
O12   O     O_R   0.576170 0.379080 0.500010 -0.500977
O13   O     O_2   0.557623 0.869928 0.661935 -0.509459
O14   O     O_2   0.841672 0.592697 0.649685 -0.482072
O15   O     O_2   0.128816 0.358205 0.371783 -0.488786
O16   O     O_R   0.576200 0.620920 0.500000 -0.478820
O17   O     O_R   0.423800 0.379080 0.500000 -0.482182
O18   O     O_R   0.414980 0.500010 0.613590 -0.497247
O19   O     O_R   0.585020 0.499990 0.386410 -0.506761
O20   O     O_R   0.567350 0.500010 0.613600 -0.505926
O21   O     O_R   0.432650 0.499990 0.386400 -0.471497
O22   O     O_2   0.555777 0.284245 0.741162 -0.488204

loop_
_geom_bond_atom_site_label_1
_geom_bond_atom_site_label_2
_ccdc_geom_bond_type
C84   H36   S    
C34   C56   S    
C8    C13   S    
C73   H27   S    
C16   O20   A    
C33   H12   S    
C41   C42   A    
C14   C18   S    
C54   H9    S    
C2    C4    S    
C5    C67   T    
C53   C59   A    
C53   C54   A    
C27   C33   S    
C15   C19   S    
C55   H10   S    
C52   O4    D    
C82   C89   S    
Cu2   O19   S    
C23   C45   S    
C76   H29   S    
C24   C26   A    
C10   C15   S    
C9    C88   S    
C38   C39   A    
C11   C14   S    
C6    C78   T    
C62   H16   S    
C82   C87   A    
C27   C29   A    
C43   H46   S    
C7    C9    S    
C46   C47   A    
C87   H39   S    
C12   O12   A    
C65   H19   S    
C66   O5    D    
C9    C13   S    
C11   C52   S    
C85   H37   S    
C13   C51   S    
C83   C84   A    
C28   C35   S    
C19   N2    T    
C56   C72   S    
C22   C25   A    
C12   C78   S    
Cu2   O12   S    
C23   C89   S    
C77   H30   S    
C12   O17   A    
C68   H21   S    
C2    C34   S    
C7    C15   S    
C74   H28   S    
C4    C56   S    
C42   H45   S    
C36   O22   D    
C18   N1    T    
C23   C73   S    
C17   O19   A    
C40   H43   S    
C44   C46   A    
C35   H1    S    
C2    C45   S    
C51   H7    S    
C57   H11   S    
C21   C32   A    
C69   H22   S    
C50   H6    S    
C59   H14   S    
C37   O2    D    
C71   H25   S    
C63   C64   A    
C16   O18   A    
C76   C77   A    
C4    C6    S    
Cu1   Cu2   S    
C90   H41   S    
C86   C87   A    
C86   H38   S    
C3    C34   S    
C70   H24   S    
C58   C59   A    
C85   C86   A    
C79   H31   S    
C3    C45   S    
C17   C21   S    
Cu1   N2    S    
C74   O13   D    
C60   C61   A    
C88   O14   D    
C31   C60   S    
C63   H17   S    
C1    O16   A    
C7    C11   S    
C75   C76   A    
C62   C63   A    
C64   H18   S    
C47   C48   A    
C46   H2    S    
C16   C20   S    
C24   C37   S    
C77   C79   A    
Cu2   O16   S    
C84   C85   A    
C17   O21   A    
C34   C74   S    
C56   C89   S    
C20   C22   A    
C60   C65   A    
C82   C83   A    
C72   O10   D    
C55   C57   A    
C69   O7    D    
C79   C80   A    
C70   O8    D    
C42   C43   A    
C88   H40   S    
C32   C53   S    
C39   C40   A    
C68   O6    D    
C45   C71   S    
C37   H34   S    
C80   H32   S    
C44   C50   A    
C4    C23   S    
C54   C55   A    
C48   C49   A    
C8    C14   S    
C48   H4    S    
C81   H33   S    
C75   C81   A    
C8    C44   S    
C83   H35   S    
C80   C81   A    
C3    C5    S    
C1    C67   S    
C51   O3    D    
C25   C27   A    
C22   C36   S    
C26   C28   A    
C3    C89   S    
Cu2   O20   S    
C58   H13   S    
C64   C65   A    
C13   C15   S    
Cu1   O18   S    
C38   C43   A    
C29   C31   A    
C30   C32   A    
C36   H23   S    
C57   C58   A    
C71   O9    D    
C28   C30   A    
C33   C35   D    
C7    C38   S    
C52   H8    S    
C9    C14   S    
C61   C62   A    
C61   H15   S    
C30   C68   S    
Cu1   O17   S    
C1    O1    A    
C10   C11   S    
C49   H5    S    
C29   C66   S    
C10   C90   S    
C8    C10   S    
C49   C50   A    
C21   C24   A    
C72   H26   S    
C26   C69   S    
C47   H3    S    
Cu1   O21   S    
C40   C41   A    
C25   C70   S    
C66   H20   S    
C90   O15   D    
Cu2   N1    S    
C39   H42   S    
C41   H44   S    
C73   O11   D    
C2    C75   S    
Cu1   O1    S    
C20   C31   A    
