data_mof_unit_53766.cif
_audit_creation_date              2012-10-26T17:12:43-0400
_audit_creation_method            fapswitch 2.2
_symmetry_space_group_name_H-M    P1
_symmetry_Int_Tables_number       1
_space_group_crystal_system       triclinic
_cell_length_a                    27.934028
_cell_length_b                    18.838144
_cell_length_c                    16.66506
_cell_angle_alpha                 89.999971
_cell_angle_beta                  62.981663
_cell_angle_gamma                 90.0
_cell_volume                      7812.47416434

loop_
_atom_site_label
_atom_site_type_symbol
_atom_type_description
_atom_site_fract_x
_atom_site_fract_y
_atom_site_fract_z
_atom_type_partial_charge
C1    C     C_R   0.297578 0.734328 0.327644 0.593631
C2    C     C_R   0.602433 0.000035 0.493595 -0.020834
C3    C     C_R   0.687370 0.722707 0.909789 -0.073547
C4    C     C_R   0.113597 0.817336 0.050139 0.232962
C5    C     C_R   0.874084 0.157268 0.960326 0.307169
C6    C     C_R   0.886402 0.817338 0.949861 0.232962
C7    C     C_R   0.125914 0.157269 0.039675 0.307170
C8    C     C_R   0.613597 0.317338 0.050139 0.232962
C9    C     C_R   0.374088 0.657273 0.960323 0.307170
C10   C     C_R   0.386403 0.317337 0.949861 0.232960
C11   C     C_R   0.625912 0.657273 0.039677 0.307169
C12   C     C_R   0.146206 0.809119 0.094291 0.261801
C13   C     C_R   0.897567 0.500035 0.506404 -0.020834
C14   C     C_R   0.835106 0.150391 0.931892 0.321610
C15   C     C_R   0.853793 0.809121 0.905710 0.261800
C16   C     C_R   0.164892 0.150392 0.068110 0.321607
C17   C     C_R   0.646206 0.309121 0.094291 0.261800
C18   C     C_R   0.335110 0.650397 0.931887 0.321607
C19   C     C_R   0.353795 0.309118 0.905708 0.261804
C20   C     C_R   0.664890 0.650396 0.068113 0.321607
C21   C     C_R   0.241058 0.694369 0.792523 0.264970
C22   C     C_R   0.764266 0.313691 0.199351 0.333313
C23   C     C_R   0.758943 0.694367 0.207477 0.264971
C24   C     C_R   0.102433 0.500035 0.493596 -0.020834
C25   C     C_R   0.235733 0.313691 0.800650 0.333302
C26   C     C_R   0.741056 0.194366 0.792524 0.264971
C27   C     C_R   0.264265 0.813691 0.199352 0.333283
C28   C     C_R   0.258943 0.194366 0.207476 0.264972
C29   C     C_R   0.735734 0.813692 0.800650 0.333295
C30   C     C_R   0.278616 0.693111 0.825844 0.322126
C31   C     C_R   0.733783 0.328932 0.152662 0.308582
C32   C     C_R   0.721384 0.693110 0.174156 0.322126
C33   C     C_R   0.266217 0.328931 0.847338 0.308568
C34   C     C_R   0.778613 0.193107 0.825847 0.322125
C35   C     C_R   0.608392 0.874183 0.466946 0.224371
C36   C     C_R   0.233782 0.828931 0.152663 0.308576
C37   C     C_R   0.221386 0.193108 0.174154 0.322127
C38   C     C_R   0.766216 0.828933 0.847340 0.308573
C39   C     C_R   0.929367 0.898360 0.063738 0.578937
C40   C     C_R   0.071351 0.100793 0.935579 0.563718
C41   C     C_R   0.070633 0.898360 0.936262 0.578939
C42   C     C_R   0.928648 0.100793 0.064421 0.563717
C43   C     C_R   0.429367 0.398360 0.063738 0.578937
C44   C     C_R   0.571351 0.600794 0.935580 0.563718
C45   C     C_R   0.570632 0.398360 0.936262 0.578938
C46   C     C_R   0.391587 0.125894 0.533151 0.223790
C47   C     C_R   0.428649 0.600794 0.064420 0.563716
C48   C     C_R   0.053727 0.629142 0.486928 -0.019470
C49   C     C_R   0.946279 0.370925 0.513048 -0.019234
C50   C     C_R   0.946272 0.629142 0.513073 -0.019471
C51   C     C_R   0.053721 0.370925 0.486952 -0.019234
C52   C     C_R   0.553728 0.129142 0.486925 -0.019471
C53   C     C_R   0.446279 0.870925 0.513049 -0.019233
C54   C     C_R   0.446273 0.129142 0.513070 -0.019471
C55   C     C_R   0.553721 0.870925 0.486953 -0.019233
C56   C     C_R   0.026589 0.694413 0.493920 0.337414
C57   C     C_R   0.391607 0.874184 0.533055 0.224371
C58   C     C_R   0.973404 0.305648 0.506108 0.340214
C59   C     C_R   0.973410 0.694413 0.506081 0.337414
C60   C     C_R   0.026596 0.305648 0.493891 0.340214
C61   C     C_R   0.526590 0.194413 0.493915 0.337415
C62   C     C_R   0.473403 0.805648 0.506110 0.340215
C63   C     C_R   0.473412 0.194413 0.506076 0.337414
C64   C     C_R   0.526596 0.805648 0.493893 0.340214
C65   C     C_R   0.973806 0.564793 0.504118 -0.025444
C66   C     C_R   0.026190 0.435274 0.495894 -0.025449
C67   C     C_R   0.026194 0.564793 0.495882 -0.025443
C68   C     C_R   0.608414 0.125894 0.466845 0.223793
C69   C     C_R   0.973810 0.435274 0.504105 -0.025448
C70   C     C_R   0.473807 0.064793 0.504116 -0.025442
C71   C     C_R   0.526190 0.935274 0.495894 -0.025448
C72   C     C_R   0.526194 0.064793 0.495881 -0.025444
C73   C     C_R   0.473810 0.935274 0.504106 -0.025449
C74   C     C_R   0.447961 0.000035 0.506908 0.035131
C75   C     C_R   0.552039 0.000035 0.493090 0.035131
C76   C     C_R   0.947961 0.500035 0.506909 0.035131
C77   C     C_R   0.052039 0.500035 0.493091 0.035131
C78   C     C_R   0.371631 0.935536 0.509014 -0.009472
C79   C     C_R   0.108392 0.374184 0.466945 0.224371
C80   C     C_R   0.628401 0.064526 0.490889 -0.010703
C81   C     C_R   0.628369 0.935536 0.490986 -0.009472
C82   C     C_R   0.371599 0.064526 0.509109 -0.010703
C83   C     C_R   0.871631 0.435536 0.509014 -0.009472
C84   C     C_R   0.128401 0.564526 0.490890 -0.010702
C85   C     C_R   0.128369 0.435536 0.490986 -0.009472
C86   C     C_R   0.871599 0.564526 0.509110 -0.010703
C87   C     C_R   0.328121 0.935325 0.485783 0.005563
C88   C     C_R   0.671895 0.064710 0.514169 0.001524
C89   C     C_R   0.671879 0.935325 0.514217 0.005562
C90   C     C_R   0.891586 0.625894 0.533153 0.223792
C91   C     C_R   0.328105 0.064710 0.485830 0.001523
C92   C     C_R   0.828121 0.435325 0.485783 0.005563
C93   C     C_R   0.171895 0.564710 0.514169 0.001525
C94   C     C_R   0.171879 0.435325 0.514217 0.005563
C95   C     C_R   0.828105 0.564710 0.485831 0.001525
C96   C     C_R   0.312082 0.000018 0.463037 0.180242
C97   C     C_R   0.687918 0.000018 0.536963 0.180243
C98   C     C_R   0.812082 0.500018 0.463037 0.180244
C99   C     C_R   0.187918 0.500018 0.536963 0.180243
C100  C     C_R   0.891608 0.374183 0.533054 0.224370
C101  C     C_R   0.702519 0.266294 0.672156 0.554872
C102  C     C_R   0.108413 0.625894 0.466847 0.223794
C103  C     C_R   0.215511 0.757809 0.957776 -0.053516
C104  C     C_R   0.780838 0.236057 0.044777 -0.053638
C105  C     C_R   0.784489 0.757808 0.042224 -0.053516
C106  C     C_R   0.219162 0.236057 0.955223 -0.053639
C107  C     C_R   0.715510 0.257807 0.957777 -0.053516
C108  C     C_R   0.280840 0.736060 0.044775 -0.053637
C109  C     C_R   0.284490 0.257806 0.042223 -0.053517
C110  C     C_R   0.719160 0.736059 0.955225 -0.053638
C111  C     C_R   0.262965 0.716593 0.914996 0.014748
C112  C     C_R   0.702422 0.734328 0.672356 0.593632
C113  C     C_R   0.736818 0.283108 0.082520 0.022031
C114  C     C_R   0.737035 0.716592 0.085003 0.014749
C115  C     C_R   0.263182 0.283107 0.917479 0.022038
C116  C     C_R   0.762963 0.216589 0.914999 0.014748
C117  C     C_R   0.236819 0.783109 0.082520 0.022033
C118  C     C_R   0.237036 0.216589 0.085002 0.014748
C119  C     C_R   0.763180 0.783109 0.917481 0.022034
C120  C     C_R   0.292472 0.699963 0.963225 -0.005561
C121  C     C_R   0.699980 0.285915 0.044829 0.017507
C122  C     C_R   0.707528 0.699962 0.036775 -0.005560
C123  C     C_R   0.297481 0.266294 0.327844 0.554870
C124  C     C_R   0.300021 0.285914 0.955170 0.017509
C125  C     C_R   0.792469 0.199959 0.963229 -0.005558
C126  C     C_R   0.199980 0.785916 0.044829 0.017508
C127  C     C_R   0.207530 0.199959 0.036772 -0.005559
C128  C     C_R   0.800019 0.785916 0.955171 0.017507
C129  C     C_R   0.136211 0.812455 0.955208 -0.038944
C130  C     C_R   0.858993 0.179623 0.049112 -0.065766
C131  C     C_R   0.863789 0.812455 0.044791 -0.038947
C132  C     C_R   0.141006 0.179623 0.950888 -0.065768
C133  C     C_R   0.636210 0.312455 0.955209 -0.038947
C134  C     C_R   0.797578 0.234328 0.327644 0.593631
C135  C     C_R   0.358996 0.679627 0.049110 -0.065767
C136  C     C_R   0.363790 0.312455 0.044791 -0.038947
C137  C     C_R   0.641005 0.679626 0.950889 -0.065767
C138  C     C_R   0.110031 0.837802 0.903889 0.024340
C139  C     C_R   0.888011 0.159733 0.097496 0.003497
C140  C     C_R   0.889969 0.837802 0.096111 0.024338
C141  C     C_R   0.111988 0.159733 0.902504 0.003497
C142  C     C_R   0.610030 0.337802 0.903889 0.024338
C143  C     C_R   0.388012 0.659735 0.097496 0.003497
C144  C     C_R   0.389970 0.337802 0.096111 0.024339
C145  C     C_R   0.202519 0.766294 0.672156 0.554875
C146  C     C_R   0.611988 0.659735 0.902504 0.003498
C147  C     C_R   0.126972 0.811206 0.815859 0.200887
C148  C     C_R   0.872769 0.189778 0.183284 0.185515
C149  C     C_R   0.873028 0.811206 0.184141 0.200889
C150  C     C_R   0.127231 0.189778 0.816716 0.185513
C151  C     C_R   0.626972 0.311206 0.815859 0.200889
C152  C     C_R   0.372770 0.689779 0.183284 0.185516
C153  C     C_R   0.373028 0.311206 0.184141 0.200888
C154  C     C_R   0.627231 0.689779 0.816716 0.185514
C155  C     C_R   0.174893 0.771674 0.772813 -0.021256
C156  C     C_R   0.202422 0.234327 0.672356 0.593631
C157  C     C_R   0.824522 0.228865 0.226782 0.022876
C158  C     C_R   0.825107 0.771674 0.227187 -0.021256
C159  C     C_R   0.175478 0.228865 0.773218 0.022877
C160  C     C_R   0.674893 0.271674 0.772813 -0.021257
C161  C     C_R   0.324523 0.728867 0.226781 0.022873
C162  C     C_R   0.325107 0.271674 0.227187 -0.021256
C163  C     C_R   0.675477 0.728866 0.773218 0.022876
C164  C     C_R   0.199957 0.746131 0.824823 -0.045356
C165  C     C_R   0.798936 0.253893 0.174679 0.004240
C166  C     C_R   0.800043 0.746130 0.175177 -0.045357
C167  C     C_R   0.797481 0.766294 0.327844 0.554871
C168  C     C_R   0.201064 0.253892 0.825321 0.004246
C169  C     C_R   0.699956 0.246130 0.824824 -0.045357
C170  C     C_R   0.298938 0.753896 0.174678 0.004241
C171  C     C_R   0.300043 0.246130 0.175176 -0.045357
C172  C     C_R   0.701063 0.753894 0.825322 0.004244
C173  C     C_R   0.199048 0.631250 0.518384 0.573105
C174  C     C_R   0.800958 0.368761 0.481602 0.592597
C175  C     C_R   0.800952 0.631250 0.481616 0.573102
C176  C     C_R   0.199042 0.368761 0.518398 0.592594
C177  C     C_R   0.699048 0.131250 0.518384 0.573102
C178  C     C_R   0.397567 0.000035 0.506403 -0.020833
C179  C     C_R   0.300958 0.868761 0.481602 0.592599
C180  C     C_R   0.300952 0.131250 0.481616 0.573097
C181  C     C_R   0.699042 0.868761 0.518398 0.592595
C182  C     C_R   0.184226 0.773072 0.912054 -0.054089
C183  C     C_R   0.812629 0.222705 0.090213 -0.073546
C184  C     C_R   0.815774 0.773071 0.087945 -0.054089
C185  C     C_R   0.187371 0.222704 0.909787 -0.073549
C186  C     C_R   0.684225 0.273070 0.912055 -0.054088
C187  C     C_R   0.312631 0.722708 0.090211 -0.073542
C188  C     C_R   0.315775 0.273070 0.087945 -0.054088
Cl1   Cl    Cl    0.278685 0.000023 0.394007 -0.488012
Cl2   Cl    Cl    0.846853 0.675492 0.628229 -0.530589
Cl3   Cl    Cl    0.846832 0.324803 0.628235 -0.551589
Cl4   Cl    Cl    0.153146 0.675492 0.371772 -0.530604
Cl5   Cl    Cl    0.084420 0.819059 0.763220 -0.440084
Cl6   Cl    Cl    0.917937 0.187367 0.231334 -0.440993
Cl7   Cl    Cl    0.915580 0.819059 0.236780 -0.440088
Cl8   Cl    Cl    0.082062 0.187368 0.768666 -0.440995
Cl9   Cl    Cl    0.584420 0.319060 0.763219 -0.440085
Cl10  Cl    Cl    0.417937 0.687367 0.231335 -0.440991
Cl11  Cl    Cl    0.415580 0.319060 0.236781 -0.440083
Cl12  Cl    Cl    0.721315 0.000023 0.605993 -0.488034
Cl13  Cl    Cl    0.582063 0.687367 0.768665 -0.440992
Cl14  Cl    Cl    0.043779 0.804638 0.114753 -0.462636
Cl15  Cl    Cl    0.939082 0.175560 0.873394 -0.388031
Cl16  Cl    Cl    0.956220 0.804642 0.885243 -0.462614
Cl17  Cl    Cl    0.060916 0.175561 0.126606 -0.388030
Cl18  Cl    Cl    0.543780 0.304640 0.114756 -0.462618
Cl19  Cl    Cl    0.439087 0.675562 0.873393 -0.388029
Cl20  Cl    Cl    0.456221 0.304640 0.885245 -0.462622
Cl21  Cl    Cl    0.560913 0.675563 0.126607 -0.388030
Cl22  Cl    Cl    0.778685 0.500023 0.394007 -0.488040
Cl23  Cl    Cl    0.221315 0.500023 0.605993 -0.488046
Cl24  Cl    Cl    0.653168 0.824803 0.371766 -0.551592
Cl25  Cl    Cl    0.346854 0.175492 0.628227 -0.530585
Cl26  Cl    Cl    0.346831 0.824803 0.628235 -0.551592
Cl27  Cl    Cl    0.653148 0.175492 0.371770 -0.530597
Cl28  Cl    Cl    0.153169 0.324803 0.371765 -0.551592
Cu1   Cu    Cu3+1 0.209920 0.785290 0.495070 1.199347
Cu2   Cu    Cu3+1 0.504760 0.500000 0.075850 1.242066
Cu3   Cu    Cu3+1 0.995240 1.000000 0.924150 1.242065
Cu4   Cu    Cu3+1 0.004760 0.000000 0.075850 1.242070
Cu5   Cu    Cu3+1 0.790080 0.214710 0.504930 1.189757
Cu6   Cu    Cu3+1 0.790080 0.785290 0.504930 1.199383
Cu7   Cu    Cu3+1 0.209920 0.214710 0.495070 1.189754
Cu8   Cu    Cu3+1 0.709920 0.285290 0.495070 1.199369
Cu9   Cu    Cu3+1 0.290080 0.714710 0.504930 1.189757
Cu10  Cu    Cu3+1 0.290080 0.285290 0.504930 1.199405
Cu11  Cu    Cu3+1 0.709920 0.714710 0.495070 1.189756
Cu12  Cu    Cu3+1 0.495240 0.500000 0.924150 1.242067
H1    H     H_    0.578728 0.746687 0.510312 0.351677
H2    H     H_    0.800013 0.078699 0.894464 0.338077
H3    H     H_    0.908374 0.843539 0.790069 0.388998
H4    H     H_    0.199983 0.078699 0.105541 0.338080
H5    H     H_    0.591624 0.343537 0.209932 0.389000
H6    H     H_    0.300019 0.578703 0.894457 0.338074
H7    H     H_    0.408378 0.343529 0.790065 0.389001
H8    H     H_    0.699980 0.578702 0.105545 0.338077
H9    H     H_    0.206275 0.634574 0.739822 0.348631
H10   H     H_    0.738481 0.398055 0.276230 0.404243
H11   H     H_    0.793725 0.634574 0.260178 0.348632
H12   H     H_    0.421386 0.253338 0.489343 0.352675
H13   H     H_    0.261500 0.398072 0.723808 0.404256
H14   H     H_    0.706273 0.134574 0.739821 0.348631
H15   H     H_    0.238455 0.898025 0.276261 0.404246
H16   H     H_    0.293726 0.134574 0.260179 0.348634
H17   H     H_    0.761515 0.898055 0.723782 0.404257
H18   H     H_    0.335414 0.663257 0.708872 0.398336
H19   H     H_    0.704754 0.408842 0.115054 0.334961
H20   H     H_    0.664586 0.663257 0.291129 0.398335
H21   H     H_    0.295249 0.408840 0.884944 0.334959
H22   H     H_    0.835412 0.163251 0.708876 0.398335
H23   H     H_    0.421271 0.746687 0.489691 0.351677
H24   H     H_    0.204751 0.908841 0.115059 0.334970
H25   H     H_    0.164587 0.163254 0.291126 0.398335
H26   H     H_    0.795246 0.908842 0.884947 0.334962
H27   H     H_    0.578615 0.253339 0.510650 0.352672
H28   H     H_    0.078728 0.246687 0.510310 0.351677
H29   H     H_    0.921386 0.753339 0.489347 0.352674
H30   H     H_    0.921272 0.246687 0.489689 0.351677
H31   H     H_    0.078614 0.753339 0.510654 0.352675
H32   H     H_    0.091617 0.843516 0.209939 0.389012
O1    O     O_R   0.255040 0.869590 0.478480 -0.442407
O2    O     O_R   0.817950 0.203450 0.375560 -0.468389
O3    O     O_R   0.817950 0.796550 0.375560 -0.459834
O4    O     O_R   0.182050 0.203450 0.624440 -0.468393
O5    O     O_R   0.682050 0.296550 0.624440 -0.459833
O6    O     O_R   0.317950 0.703450 0.375560 -0.468386
O7    O     O_R   0.317950 0.296550 0.375560 -0.459834
O8    O     O_R   0.682050 0.703450 0.624440 -0.468390
O9    O     O_R   0.250530 0.763330 0.367210 -0.442101
O10   O     O_R   0.749470 0.236670 0.632790 -0.457224
O11   O     O_R   0.749470 0.763330 0.632790 -0.442075
O12   O     O_R   0.744960 0.130410 0.521520 -0.447489
O13   O     O_R   0.250530 0.236670 0.367210 -0.457227
O14   O     O_R   0.750530 0.263330 0.367210 -0.442088
O15   O     O_R   0.249470 0.736670 0.632790 -0.457224
O16   O     O_R   0.249470 0.263330 0.632790 -0.442063
O17   O     O_R   0.750530 0.736670 0.367210 -0.457226
O18   O     O_R   0.177260 0.690030 0.513710 -0.502439
O19   O     O_R   0.822740 0.309970 0.486290 -0.499193
O20   O     O_R   0.822740 0.690030 0.486290 -0.502441
O21   O     O_R   0.177260 0.309970 0.513710 -0.499195
O22   O     O_R   0.677260 0.190030 0.513710 -0.502440
O23   O     O_R   0.744960 0.869590 0.521520 -0.442398
O24   O     O_R   0.322740 0.809970 0.486290 -0.499193
O25   O     O_R   0.322740 0.190030 0.486290 -0.502442
O26   O     O_R   0.677260 0.809970 0.513710 -0.499194
O27   O     O_R   0.051640 0.926880 0.885090 -0.439458
O28   O     O_R   0.948360 0.073120 0.114910 -0.442418
O29   O     O_R   0.948360 0.926880 0.114910 -0.439457
O30   O     O_R   0.051640 0.073120 0.885090 -0.442419
O31   O     O_R   0.551640 0.426880 0.885090 -0.439457
O32   O     O_R   0.448360 0.573120 0.114910 -0.442417
O33   O     O_R   0.448360 0.426880 0.114910 -0.439457
O34   O     O_R   0.255040 0.130410 0.478480 -0.447492
O35   O     O_R   0.551640 0.573120 0.885090 -0.442417
O36   O     O_R   0.940620 0.926560 0.986760 -0.497971
O37   O     O_R   0.059380 0.073440 0.013240 -0.489509
O38   O     O_R   0.059380 0.926560 0.013240 -0.497968
O39   O     O_R   0.940620 0.073440 0.986760 -0.489510
O40   O     O_R   0.440620 0.426560 0.986760 -0.497970
O41   O     O_R   0.559380 0.573440 0.013240 -0.489511
O42   O     O_R   0.559380 0.426560 0.013240 -0.497972
O43   O     O_R   0.440620 0.573440 0.986760 -0.489510
O44   O     O_3   0.549748 0.740477 0.492304 -0.558140
O45   O     O_R   0.755040 0.369590 0.478480 -0.442404
O46   O     O_3   0.450287 0.259576 0.507537 -0.557888
O47   O     O_3   0.450250 0.740477 0.507700 -0.558139
O48   O     O_3   0.549717 0.259576 0.492450 -0.557889
O49   O     O_3   0.049749 0.240477 0.492301 -0.558139
O50   O     O_3   0.950285 0.759576 0.507544 -0.557892
O51   O     O_3   0.950251 0.240477 0.507697 -0.558139
O52   O     O_3   0.049715 0.759576 0.492458 -0.557897
O53   O     O_3   0.124502 0.813971 0.186987 -0.585487
O54   O     O_3   0.837206 0.090424 0.882938 -0.600566
O55   O     O_3   0.875497 0.813975 0.813015 -0.585456
O56   O     O_R   0.244960 0.630410 0.521520 -0.447487
O57   O     O_3   0.162790 0.090427 0.117067 -0.600559
O58   O     O_3   0.624502 0.313977 0.186985 -0.585462
O59   O     O_3   0.337212 0.590432 0.882930 -0.600561
O60   O     O_3   0.375499 0.313971 0.813013 -0.585453
O61   O     O_3   0.662787 0.590431 0.117071 -0.600560
O62   O     O_3   0.242413 0.639146 0.736919 -0.631428
O63   O     O_3   0.767550 0.362454 0.258808 -0.623078
O64   O     O_3   0.757588 0.639145 0.263082 -0.631421
O65   O     O_3   0.232448 0.362453 0.741192 -0.623105
O66   O     O_3   0.742411 0.139145 0.736919 -0.631421
O67   O     O_R   0.244960 0.369590 0.521520 -0.442394
O68   O     O_3   0.267542 0.862452 0.258818 -0.623065
O69   O     O_3   0.257588 0.139145 0.263082 -0.631413
O70   O     O_3   0.732452 0.862453 0.741186 -0.623097
O71   O     O_3   0.330849 0.672129 0.770628 -0.571340
O72   O     O_3   0.706551 0.392852 0.170274 -0.641531
O73   O     O_3   0.669151 0.672129 0.229372 -0.571341
O74   O     O_3   0.293452 0.392850 0.829724 -0.641546
O75   O     O_3   0.830846 0.172122 0.770632 -0.571343
O76   O     O_3   0.206549 0.892852 0.170278 -0.641520
O77   O     O_3   0.169153 0.172125 0.229370 -0.571340
O78   O     O_R   0.755040 0.630410 0.478480 -0.447490
O79   O     O_3   0.793449 0.892853 0.829727 -0.641538
O80   O     O_R   0.182050 0.796550 0.624440 -0.459833

loop_
_geom_bond_atom_site_label_1
_geom_bond_atom_site_label_2
_ccdc_geom_bond_type
Cu4   O29   S    
C17   O58   S    
C151  Cl9   S    
H18   O71   S    
Cu10  O25   S    
C19   O60   S    
C129  C182  A    
Cu6   O3    S    
Cu7   Cu10  S    
C88   C177  S    
C12   O53   S    
C145  O15   A    
C181  O23   A    
C52   C61   A    
Cu2   O33   S    
C26   O66   S    
C12   C126  A    
C54   C63   A    
C58   C60   A    
C47   C143  S    
C44   O41   A    
C61   C63   A    
C103  C126  A    
C95   C175  S    
C62   C64   A    
C131  C140  A    
C91   C96   A    
C50   C90   A    
Cu8   O22   S    
C162  C171  A    
H32   O53   S    
C70   C74   A    
C4    C12   A    
C147  C155  A    
C24   C85   A    
Cu2   O42   S    
C88   C97   A    
Cu3   O39   S    
C119  C128  A    
C49   C69   A    
C97   Cl12  S    
C43   C144  S    
H21   O74   S    
Cu2   Cu12  S    
Cu7   O4    S    
C109  C118  A    
Cu1   O80   S    
C22   O63   S    
C11   C20   A    
C150  C159  A    
C165  C183  A    
C137  C146  A    
C166  C184  A    
C175  O20   A    
Cu5   O2    S    
C9    Cl19  S    
C71   C73   A    
C58   O51   S    
C106  C127  A    
C176  O21   A    
C27   O68   S    
C51   C66   A    
C89   C181  S    
C142  C151  A    
C52   C72   A    
C41   O38   A    
C154  C163  A    
C54   C70   A    
C82   C178  A    
H9    O62   S    
C163  C172  A    
C7    C132  A    
Cu10  O67   S    
H20   O73   S    
Cu1   O18   S    
C83   C100  A    
C43   O33   A    
C45   C142  S    
C18   O59   S    
Cu11  O26   S    
C50   C59   A    
C177  O12   A    
C79   C85   A    
C154  Cl13  S    
H12   O46   S    
C173  O18   A    
C62   O47   S    
C66   C77   A    
C39   C140  S    
C32   O73   S    
C57   C78   A    
Cu3   O30   S    
H11   O64   S    
C8    C17   A    
C56   C59   A    
C106  C115  A    
H30   O51   S    
C80   C88   A    
C179  O1    A    
Cu6   Cu11  S    
C93   C173  S    
C84   C93   A    
C105  C184  A    
C14   O54   S    
C156  O16   A    
C86   C95   A    
C20   O61   S    
C104  C183  A    
H23   O47   S    
C42   O39   A    
H1    O44   S    
C41   O27   A    
C55   C71   A    
C2    C75   A    
C78   C87   A    
C39   O29   A    
C84   C102  A    
C67   C77   A    
C35   Cl24  S    
C99   Cl23  S    
C133  C142  A    
C130  C183  A    
C37   C118  A    
C1    O9    A    
C3    C110  A    
C69   C76   A    
C85   C94   A    
Cu9   O24   S    
C180  O25   A    
C68   Cl27  S    
C10   Cl20  S    
C46   C82   A    
C15   O55   S    
C101  C160  S    
Cu4   O38   S    
C29   C38   A    
C149  C158  A    
C167  O17   A    
C20   C122  A    
C152  C161  A    
Cu10  O7    S    
C135  C143  A    
C174  O19   A    
C48   C67   A    
C40   C141  S    
C136  C188  A    
C30   O71   S    
Cu9   O15   S    
C174  O45   A    
C63   O46   S    
C72   C75   A    
C112  O11   A    
C135  C187  A    
C141  C150  A    
C25   C168  A    
C139  C148  A    
Cu1   O1    S    
C1    O6    A    
C157  C165  A    
C92   C174  S    
C170  C187  A    
H29   O50   S    
H31   O52   S    
C24   C77   A    
C46   Cl25  S    
C91   C180  S    
Cu12  O43   S    
H16   O69   S    
C45   O31   A    
C167  O3    A    
Cu6   O11   S    
C9    C135  A    
C79   Cl28  S    
C116  C125  A    
C33   O74   S    
C118  C127  A    
C90   Cl2   S    
C132  C141  A    
C112  O8    A    
C180  O34   A    
H22   O75   S    
C7    C16   A    
C2    C81   A    
C110  C119  A    
C5    Cl15  S    
Cu8   O14   S    
Cu3   O27   S    
Cu4   O28   S    
C149  Cl7   S    
C181  O26   A    
C28   C37   A    
C28   O69   S    
H26   O79   S    
Cu12  O31   S    
C148  C157  A    
H19   O72   S    
C16   C127  A    
C51   C79   A    
C107  C116  A    
C104  C113  A    
C9    C18   A    
C113  C121  A    
H14   O66   S    
H10   O63   S    
C51   C60   A    
C140  C149  A    
C31   C113  A    
Cu5   O10   S    
C123  O13   A    
Cu1   Cu9   S    
C23   O64   S    
C43   O40   A    
Cu12  O40   S    
C73   C74   A    
C7    Cl17  S    
C145  O80   A    
C107  C186  A    
C65   C76   A    
C171  C188  A    
C40   O37   A    
C169  C186  A    
Cu5   Cu8   S    
C108  C120  A    
C3    C172  A    
C25   O65   S    
C130  C139  A    
C103  C111  A    
C56   O52   S    
C104  C125  A    
C65   C67   A    
C158  C167  S    
C102  Cl4   S    
C160  C169  A    
C173  O56   A    
C40   O30   A    
C3    C137  A    
Cu8   O45   S    
C93   C99   A    
C81   C89   A    
C8    C133  A    
C1    C161  S    
C21   C164  A    
Cu10  O16   S    
C47   O32   A    
C108  C117  A    
C179  O24   A    
C53   C73   A    
C33   C115  A    
C60   O49   S    
H25   O77   S    
C132  C185  A    
C6    Cl16  S    
C38   O79   S    
C4    Cl14  S    
C10   C19   A    
C48   C102  A    
C46   C54   A    
C8    Cl18  S    
Cu2   O41   S    
C5    C14   A    
H2    O54   S    
Cu5   O12   S    
H27   O48   S    
C17   C121  A    
C143  C152  A    
C15   C128  A    
C86   C90   A    
C107  C121  A    
Cu6   O20   S    
H17   O70   S    
Cu3   Cu4   S    
C158  C166  A    
C112  C163  S    
C101  O5    A    
C53   C57   A    
C115  C124  A    
C78   C178  A    
H5    O58   S    
C106  C185  A    
C6    C131  A    
C59   O50   S    
C4    C129  A    
C27   C36   A    
Cu4   O37   S    
C21   C30   A    
C13   C83   A    
C153  C162  A    
C23   C32   A    
C11   C137  A    
C136  C144  A    
C110  C122  A    
C37   O77   S    
C164  C182  A    
C82   C91   A    
C123  O7    A    
Cu3   O36   S    
H3    O55   S    
H24   O76   S    
C94   C176  S    
Cu7   O21   S    
C68   C80   A    
Cu9   O56   S    
C74   C178  A    
C34   O75   S    
C64   O44   S    
C103  C182  A    
C108  C187  A    
C35   C81   A    
C95   C98   A    
C92   C98   A    
C83   C92   A    
C98   Cl22  S    
C14   C125  A    
Cu12  O35   S    
C10   C136  A    
Cu11  O8    S    
C66   C69   A    
C16   O57   S    
H4    O57   S    
C34   C116  A    
Cu7   O34   S    
C159  C168  A    
C131  C184  A    
C144  C153  A    
C6    C15   A    
C22   C165  A    
C26   C34   A    
H28   O49   S    
C26   C169  A    
C44   O35   A    
Cu7   O13   S    
C13   C86   A    
C44   C146  S    
H15   O68   S    
C52   C68   A    
C134  O2    A    
C156  O4    A    
C31   O72   S    
H6    O59   S    
C50   C65   A    
C109  C188  A    
C19   C124  A    
C22   C31   A    
C129  C138  A    
C35   C55   A    
C105  C114  A    
C175  O78   A    
Cu8   O5    S    
C123  C162  S    
H8    O61   S    
C49   C58   A    
C89   C97   A    
C111  C120  A    
Cu11  O78   S    
C114  C122  A    
C96   Cl1   S    
C146  C154  A    
C36   C117  A    
C21   O62   S    
C23   C166  A    
C53   C62   A    
C177  O22   A    
C28   C171  A    
C27   C170  A    
C13   C76   A    
C138  C147  A    
C87   C96   A    
C41   C138  S    
C152  Cl10  S    
C45   O42   A    
Cu11  O17   S    
C150  Cl8   S    
C133  C186  A    
C161  C170  A    
C36   O76   S    
C134  O14   A    
Cu5   O19   S    
C100  Cl3   S    
C38   C119  A    
C18   C120  A    
Cu9   O6    S    
C61   O48   S    
C148  Cl6   S    
C48   C56   A    
C5    C130  A    
C168  C185  A    
C105  C128  A    
C42   C139  S    
C156  C159  S    
C47   O43   A    
Cu6   O23   S    
H7    O60   S    
C109  C124  A    
C153  Cl11  S    
C55   C64   A    
C155  C164  A    
C101  O10   A    
C30   C111  A    
C151  C160  A    
C24   C84   A    
C11   Cl21  S    
C49   C100  A    
C71   C75   A    
C94   C99   A    
Cu1   O9    S    
C147  Cl5   S    
C29   C172  A    
C2    C80   A    
C176  O67   A    
C87   C179  S    
C145  C155  S    
C134  C157  S    
C57   Cl26  S    
C25   C33   A    
C39   O36   A    
H13   O65   S    
C117  C126  A    
C70   C72   A    
C29   O70   S    
C32   C114  A    
C42   O28   A    
Cu2   O32   S    
