data_mof_unit_48197.cif
_audit_creation_date              2012-12-10T17:58:17-0500
_audit_creation_method            fapswitch 2.2
_symmetry_space_group_name_H-M    P1
_symmetry_Int_Tables_number       1
_space_group_crystal_system       triclinic
_cell_length_a                    9.562035
_cell_length_b                    10.775571
_cell_length_c                    15.438028
_cell_angle_alpha                 89.257286
_cell_angle_beta                  74.693482
_cell_angle_gamma                 89.868562
_cell_volume                      1534.12316104

loop_
_atom_site_label
_atom_site_type_symbol
_atom_type_description
_atom_site_fract_x
_atom_site_fract_y
_atom_site_fract_z
_atom_type_partial_charge
C1    C     C_R   0.998736 0.262675 0.502606 0.900398
C2    C     C_R   0.000216 0.737400 0.499318 0.897476
C3    C     C_R   0.574886 0.425647 0.090821 -0.187959
C4    C     C_R   0.415395 0.520561 0.904257 -0.183692
C5    C     C_R   0.719646 0.409293 0.045932 -0.216719
C6    C     C_R   0.270305 0.535257 0.948926 -0.212153
C7    C     C_R   0.913894 0.061910 0.577920 0.037034
C8    C     C_R   0.081957 0.938398 0.423342 0.031346
C9    C     C_R   0.916626 0.931920 0.575575 0.336938
C10   C     C_R   0.079695 0.068320 0.425778 0.339971
C11   C     C_R   0.999778 0.871456 0.498972 -0.191008
C12   C     C_R   0.997754 0.128754 0.502704 -0.185304
C13   C     C_R   0.550929 0.425117 0.557648 -0.121125
C14   C     C_R   0.449577 0.573503 0.441519 -0.134731
C15   C     C_R   0.402807 0.424744 0.557864 0.479077
C16   C     C_R   0.597498 0.574782 0.441782 0.475995
C17   C     C_R   0.918432 0.498581 0.672188 0.836332
C18   C     C_R   0.081546 0.500272 0.327786 0.832433
C19   C     C_R   0.872584 0.486838 0.770473 -0.037599
C20   C     C_R   0.126724 0.502683 0.229163 -0.041182
C21   C     C_R   0.916277 0.419746 0.910870 -0.219666
C22   C     C_R   0.076897 0.540525 0.085682 -0.208662
C23   C     C_R   0.967882 0.445201 0.819372 -0.193766
C24   C     C_R   0.028370 0.529767 0.178730 -0.165540
C25   C     C_R   0.726618 0.506819 0.814491 -0.203826
C26   C     C_R   0.272843 0.482258 0.185419 -0.199403
C27   C     C_R   0.670557 0.478238 0.906238 0.083835
C28   C     C_R   0.324149 0.489080 0.091326 0.088100
C29   C     C_R   0.768977 0.435993 0.954596 0.157480
C30   C     C_R   0.223620 0.521370 0.041756 0.155396
C31   C     C_R   0.520214 0.490238 0.951026 0.065189
C32   C     C_R   0.472720 0.468631 0.045548 0.065315
Cu1   Cu    Cu3+1 0.140660 0.500020 0.500000 1.027375
Cu2   Cu    Cu3+1 0.859340 0.499980 0.500000 1.028739
H1    H     H_    0.793798 0.375650 0.083289 0.158507
H2    H     H_    0.194202 0.559158 0.910332 0.157807
H3    H     H_    0.345284 0.464599 0.226822 0.163014
H4    H     H_    0.659174 0.545159 0.775096 0.170561
H5    H     H_    0.914988 0.545940 0.211156 0.199863
H6    H     H_    0.081065 0.429024 0.786685 0.204770
H7    H     H_    0.991222 0.385115 0.947232 0.154656
H8    H     H_    0.999870 0.565737 0.048117 0.153193
H9    H     H_    0.546439 0.400203 0.160935 0.160442
H10   H     H_    0.440626 0.531171 0.832386 0.155908
H11   H     H_    0.588147 0.364918 0.603595 0.164630
H12   H     H_    0.413112 0.630959 0.394038 0.165563
N1    N     N_R   0.352080 0.500030 0.499980 -0.208008
N2    N     N_R   0.647920 0.499970 0.500020 -0.210687
O1    O     O_R   0.118740 0.319660 0.500000 -0.500312
O2    O     O_R   0.881260 0.680340 0.500000 -0.502279
O3    O     O_R   0.881170 0.319630 0.500010 -0.601004
O4    O     O_R   0.118830 0.680370 0.499990 -0.591292
O5    O     O_R   0.055570 0.500030 0.629830 -0.545045
O6    O     O_R   0.944430 0.499970 0.370170 -0.541804
O7    O     O_R   0.818000 0.500000 0.629840 -0.593189
O8    O     O_R   0.182000 0.500000 0.370160 -0.590358
C33   C     C_3   0.825470 0.127585 0.661503 -0.364318
C34   C     C_3   0.913064 0.143196 0.730100 -0.734229
H13   H     H_    0.949520 0.051704 0.749796 0.289876
H14   H     H_    0.009098 0.202613 0.701558 0.274390
H15   H     H_    0.844887 0.188335 0.791036 0.240230
H16   H     H_    0.787415 0.220047 0.645627 0.189795
H17   H     H_    0.724338 0.075562 0.692804 0.259202
C35   C     C_3   0.170218 0.872660 0.339881 -0.335705
C36   C     C_3   0.331551 0.873090 0.335930 -0.701838
H18   H     H_    0.348322 0.840138 0.400852 0.253493
H19   H     H_    0.390870 0.811017 0.281641 0.232041
H20   H     H_    0.377713 0.967795 0.321716 0.291394
H21   H     H_    0.134902 0.775158 0.337292 0.173940
H22   H     H_    0.153098 0.917477 0.278312 0.247878
Cl1   Cl    Cl    0.820349 0.842973 0.670210 -0.636862
Cl2   Cl    Cl    0.173407 0.157210 0.330420 -0.642837
Cl3   Cl    Cl    0.288244 0.322430 0.633214 -0.657724
Cl4   Cl    Cl    0.712832 0.676278 0.365771 -0.639757

loop_
_geom_bond_atom_site_label_1
_geom_bond_atom_site_label_2
_ccdc_geom_bond_type
C27   C29   A    
C15   N1    A    
C16   N2    A    
C33   H16   S    
C14   H12   S    
Cu1   O4    S    
C3    H9    S    
Cu2   O3    S    
C16   Cl4   S    
C22   C24   A    
C34   H14   S    
C23   H6    S    
C24   H5    S    
C2    O2    A    
C20   C24   A    
C36   H19   S    
C1    O1    A    
C35   H22   S    
C17   O7    A    
C18   O8    A    
C34   H15   S    
Cu2   O7    S    
C1    C12   S    
C2    C11   S    
C10   C12   A    
C33   H17   S    
C5    C29   A    
C21   C23   A    
Cu1   O5    S    
C7    C12   A    
Cu2   O2    S    
C27   C31   A    
C28   C32   A    
C4    C6    A    
C4    H10   S    
C34   H13   S    
C21   C29   A    
C19   C23   A    
C25   H4    S    
C9    C11   A    
C31   C32   A    
C36   H20   S    
Cu1   Cu2   S    
C35   H21   S    
C1    O3    A    
C2    O4    A    
C8    C35   S    
C21   H7    S    
C6    C30   A    
Cu2   O6    S    
C13   C15   A    
Cu1   N1    S    
C14   C16   A    
Cu2   N2    S    
C17   O5    A    
C7    C9    A    
C22   C30   A    
C15   Cl3   S    
C9    Cl1   S    
C3    C5    A    
C13   N2    A    
C26   H3    S    
C14   N1    A    
C25   C27   A    
C26   C28   A    
C35   C36   S    
C28   C30   A    
C13   H11   S    
C33   C34   S    
C22   H8    S    
C20   C26   A    
Cu1   O8    S    
C8    C11   A    
C5    H1    S    
C17   C19   S    
C6    H2    S    
C18   C20   S    
C3    C32   A    
C19   C25   A    
C4    C31   A    
C18   O6    A    
C8    C10   A    
C36   H18   S    
Cu1   O1    S    
C7    C33   S    
C10   Cl2   S    
