data_mof_unit_41246.cif
_audit_creation_date              2012-12-11T16:19:57-0500
_audit_creation_method            fapswitch 2.2
_symmetry_space_group_name_H-M    P1
_symmetry_Int_Tables_number       1
_space_group_crystal_system       triclinic
_cell_length_a                    13.848167
_cell_length_b                    14.049863
_cell_length_c                    29.882112
_cell_angle_alpha                 97.823338
_cell_angle_beta                  90.536266
_cell_angle_gamma                 119.11364
_cell_volume                      5012.94264704

loop_
_atom_site_label
_atom_site_type_symbol
_atom_type_description
_atom_site_fract_x
_atom_site_fract_y
_atom_site_fract_z
_atom_type_partial_charge
C1    C     C_R   0.725887 0.102815 0.567233 0.530393
C2    C     C_R   0.372768 0.681775 0.676710 0.026346
C3    C     C_R   0.297490 0.713299 0.663054 -0.144022
C4    C     C_R   0.290446 0.732213 0.619305 -0.138833
C5    C     C_R   0.261123 0.650354 0.828310 -0.135083
C6    C     C_R   0.235682 0.624116 0.871701 -0.137090
C7    C     C_R   0.399738 0.604881 0.878853 -0.117238
C8    C     C_R   0.423532 0.628757 0.835248 -0.110940
C9    C     C_R   0.352836 0.648829 0.809553 0.033653
C10   C     C_1   0.370110 0.661587 0.763081 -0.077223
C11   C     C_1   0.376779 0.670352 0.723604 -0.083266
C12   C     C_R   0.383124 0.786608 0.550095 0.516596
C13   C     C_R   0.302986 0.597711 0.896895 0.019788
C14   C     C_3   0.348520 0.001184 0.737743 0.162874
C15   C     C_3   0.255088 0.103886 0.707704 -0.114708
C16   C     C_3   0.223403 0.124148 0.756945 -0.219067
C17   C     C_1   0.288388 0.189165 0.877679 -0.018936
C18   C     C_3   0.363842 0.095744 0.708780 0.076820
C19   C     C_3   0.299757 0.016291 0.783188 -0.210123
C20   C     C_3   0.310368 0.131081 0.791851 0.063215
C21   C     C_3   0.430569 0.221588 0.784944 0.188592
C22   C     C_3   0.456118 0.206445 0.735154 -0.173108
C23   C     C_R   0.430059 0.094244 0.573064 0.564287
C24   C     C_1   0.291906 0.157494 0.838813 -0.047324
C25   C     C_1   0.394751 0.091175 0.660843 -0.097628
C26   C     C_1   0.413713 0.094747 0.621149 -0.052497
C27   C     C_3   0.786531 0.196096 0.726356 -0.182229
C28   C     C_3   0.989251 0.309488 0.708332 0.289796
C29   C     C_3   0.031718 0.319664 0.759895 -0.241169
C30   C     C_1   0.986351 0.240478 0.871783 -0.028502
C31   C     C_3   0.877228 0.195125 0.695361 0.099155
C32   C     C_3   0.833382 0.226260 0.777056 -0.231666
C33   C     C_3   0.943422 0.223980 0.782213 0.015775
C34   C     C_R   0.718878 0.095253 0.442653 0.549752
C35   C     C_3   0.930524 0.113148 0.756583 0.190178
C36   C     C_3   0.891574 0.095594 0.705329 0.198240
C37   C     C_1   0.972030 0.236141 0.831387 -0.052637
C38   C     C_1   0.838031 0.177413 0.647232 -0.004962
C39   C     C_1   0.794086 0.149897 0.609164 -0.045214
C40   C     C_3   0.306120 0.759776 0.270805 -0.185717
C41   C     C_3   0.280810 0.566377 0.269639 0.183769
C42   C     C_3   0.270034 0.550502 0.216967 -0.182540
C43   C     C_1   0.311412 0.610994 0.110265 -0.018766
C44   C     C_3   0.353756 0.691293 0.289083 0.077943
C45   C     C_R   0.382371 0.785144 0.425108 0.534199
C46   C     C_3   0.294718 0.739866 0.218193 -0.080646
C47   C     C_3   0.342204 0.662416 0.199911 0.048269
C48   C     C_3   0.463243 0.706368 0.220013 -0.231572
C49   C     C_3   0.471231 0.731466 0.272501 -0.269831
C50   C     C_1   0.331572 0.640951 0.150381 -0.069460
C51   C     C_1   0.360125 0.710732 0.338589 -0.054754
C52   C     C_1   0.366917 0.737119 0.378816 -0.030865
C53   C     C_R   0.356129 0.139081 0.402820 0.014590
C54   C     C_R   0.406706 0.247470 0.392036 0.260855
C55   C     C_R   0.395277 0.261880 0.347358 -0.097321
C56   C     C_R   0.396052 0.116046 0.443650 0.558467
C57   C     C_R   0.329277 0.170823 0.314393 -0.009813
C58   C     C_R   0.268563 0.065763 0.326139 -0.143565
C59   C     C_R   0.281682 0.049806 0.370234 -0.182337
C60   C     C_R   0.239731 0.107200 0.153328 -0.132256
C61   C     C_R   0.228598 0.111068 0.107181 -0.044636
C62   C     C_R   0.420030 0.263832 0.114458 0.258312
C63   C     C_R   0.427101 0.259863 0.160774 -0.103056
C64   C     C_R   0.334961 0.185633 0.180297 -0.032985
C65   C     C_1   0.336442 0.186785 0.228041 -0.047167
C66   C     C_1   0.333195 0.182288 0.267733 -0.039894
C67   C     C_R   0.364366 0.727613 0.588943 0.003212
C68   C     C_R   0.315103 0.200579 0.088888 0.009552
C69   C     C_R   0.773241 0.131506 0.401432 -0.021440
C70   C     C_R   0.794226 0.059855 0.371034 -0.153872
C71   C     C_R   0.813621 0.078496 0.326716 -0.183690
C72   C     C_R   0.814202 0.169673 0.312774 0.049501
C73   C     C_R   0.805532 0.249326 0.343549 0.276577
C74   C     C_R   0.783329 0.228143 0.388191 -0.130931
C75   C     C_R   0.864005 0.293162 0.163930 -0.043868
C76   C     C_R   0.895935 0.303256 0.119665 -0.150293
C77   C     C_R   0.853350 0.112105 0.106072 -0.129528
C78   C     C_R   0.436530 0.689732 0.601314 -0.127768
C79   C     C_R   0.824430 0.101306 0.150345 0.253487
C80   C     C_R   0.831893 0.192244 0.179448 0.037518
C81   C     C_1   0.821845 0.184752 0.226449 -0.005568
C82   C     C_1   0.818010 0.178048 0.265858 0.016701
C83   C     C_R   0.895205 0.214489 0.091340 -0.043523
C84   C     C_R   0.281181 0.231892 0.922519 0.528297
C85   C     C_R   0.265314 0.545836 0.937856 0.525580
C86   C     C_R   0.002930 0.245095 0.919890 0.569490
C87   C     C_R   0.292062 0.241259 0.048867 0.534801
C88   C     C_R   0.274994 0.558588 0.064523 0.543981
C89   C     C_R   0.441283 0.665630 0.645258 0.005813
C90   C     C_R   0.953702 0.232406 0.049912 0.556246
Cr1   Cr    Cr6+3 0.583400 0.162540 0.509180 1.012550
Cr2   Cr    Cr6+3 0.584070 0.916690 0.495550 0.988841
Cr3   Cr    Cr6+3 0.332550 0.920810 0.495240 0.993531
Cr4   Cr    Cr6+3 0.086700 0.177000 0.983690 0.981709
Cr5   Cr    Cr6+3 0.336880 0.419130 0.994740 1.017460
Cr6   Cr    Cr6+3 0.084850 0.422220 0.995960 1.003438
H1    H     H_    0.160878 0.619431 0.884536 0.125608
H2    H     H_    0.292786 0.917782 0.719101 0.097544
H3    H     H_    0.276608 0.181242 0.694514 0.117293
H4    H     H_    0.140406 0.056246 0.762063 0.099730
H5    H     H_    0.217244 0.200274 0.763326 0.114967
H6    H     H_    0.537929 0.210153 0.734070 0.101240
H7    H     H_    0.465226 0.276489 0.718800 0.116591
H8    H     H_    0.488714 0.209736 0.806775 0.114060
H9    H     H_    0.341244 0.006489 0.812649 0.123559
H10   H     H_    0.206946 0.667815 0.808796 0.096436
H11   H     H_    0.846735 0.309603 0.791258 0.093889
H12   H     H_    0.765213 0.258854 0.718157 0.108582
H13   H     H_    0.046433 0.398486 0.780369 0.107861
H14   H     H_    0.111914 0.322180 0.765221 0.094422
H15   H     H_    0.809610 0.021342 0.699918 0.149663
H16   H     H_    0.247259 0.728546 0.687051 0.102797
H17   H     H_    0.773134 0.170257 0.798631 0.149127
H18   H     H_    0.013752 0.119389 0.758134 0.109047
H19   H     H_    0.203685 0.692049 0.208097 0.115505
H20   H     H_    0.223352 0.736482 0.283460 0.135217
H21   H     H_    0.326669 0.524038 0.279339 0.086361
H22   H     H_    0.181534 0.514083 0.203945 0.144717
H23   H     H_    0.296222 0.489602 0.203210 0.085709
H24   H     H_    0.524691 0.821709 0.284171 0.127903
H25   H     H_    0.233955 0.760263 0.610546 0.134757
H26   H     H_    0.511842 0.689770 0.287223 0.102673
H27   H     H_    0.524834 0.779630 0.206387 0.134485
H28   H     H_    0.360758 0.848927 0.284363 0.114796
H29   H     H_    0.487795 0.642350 0.210045 0.119970
H30   H     H_    0.172418 0.044797 0.168848 0.108825
H31   H     H_    0.216977 0.995025 0.300535 0.111909
H32   H     H_    0.240980 0.966271 0.377635 0.138499
H33   H     H_    0.495262 0.687624 0.578074 0.112455
H34   H     H_    0.503984 0.315503 0.181489 0.123083
H35   H     H_    0.441685 0.343452 0.338122 0.110670
H36   H     H_    0.927177 0.382200 0.108209 0.135257
H37   H     H_    0.765553 0.281835 0.411787 0.124828
H38   H     H_    0.787156 0.985024 0.380367 0.140703
H39   H     H_    0.849997 0.042022 0.084355 0.135272
H40   H     H_    0.495139 0.628338 0.821122 0.098049
H41   H     H_    0.822957 0.018989 0.302712 0.113237
H42   H     H_    0.454228 0.586146 0.897409 0.125263
H43   H     H_    0.211637 0.950083 0.781633 0.071205
O1    O     O_R   0.494060 0.188820 0.559230 -0.519649
O2    O     O_R   0.480140 0.824500 0.445020 -0.493779
O3    O     O_R   0.308480 0.808690 0.440220 -0.509314
O4    O     O_R   0.340970 0.020670 0.455610 -0.506568
O5    O     O_3   0.500010 0.000010 0.499990 -0.264769
O6    O     O_R   0.969690 0.151000 0.934080 -0.514965
O7    O     O_R   0.187530 0.180840 0.938210 -0.522288
O8    O     O_R   0.358160 0.327300 0.941250 -0.519765
O9    O     O_R   0.323950 0.507710 0.953980 -0.507716
O10   O     O_R   0.170530 0.527770 0.952070 -0.525837
O11   O     O_R   0.987720 0.318450 0.945940 -0.493452
O12   O     O_R   0.678470 0.153390 0.554100 -0.513291
O13   O     O_R   0.976400 0.159230 0.032040 -0.530089
O14   O     O_R   0.193740 0.188470 0.029020 -0.517273
O15   O     O_R   0.364860 0.335530 0.039220 -0.465635
O16   O     O_R   0.330170 0.515340 0.044800 -0.482627
O17   O     O_R   0.177230 0.536000 0.050040 -0.515917
O18   O     O_R   0.993930 0.326080 0.036750 -0.492473
O19   O     O_3   0.169480 0.339450 0.991460 -0.268983
O20   O     O_R   0.697870 0.003940 0.549410 -0.523474
O21   O     O_R   0.480980 0.827230 0.535590 -0.514461
O22   O     O_R   0.309390 0.811640 0.537920 -0.525681
O23   O     O_R   0.341810 0.023400 0.546180 -0.498588
O24   O     O_R   0.493150 0.185870 0.461540 -0.467074
O25   O     O_R   0.677630 0.150660 0.463530 -0.504534
O26   O     O_R   0.696960 0.000990 0.451710 -0.512894
C91   C     C_3   0.156391 0.013972 0.673287 -0.260032
C92   C     C_3   0.147055 0.899647 0.658514 -0.311339
C93   C     C_3   0.084785 0.843607 0.611713 -0.460518
H44   H     H_    0.010128 0.850876 0.607485 0.152696
H45   H     H_    0.139053 0.882307 0.584898 0.179652
H46   H     H_    0.059613 0.754573 0.606641 0.136246
H47   H     H_    0.228177 0.905305 0.654446 0.170685
H48   H     H_    0.105079 0.845741 0.684128 0.139949
H49   H     H_    0.078585 0.998659 0.687821 0.189558
H50   H     H_    0.159763 0.050503 0.642139 0.156842
O27   O     O_3   0.451504 0.010217 0.749415 -0.634917
C94   C     C_3   0.444198 0.918919 0.767532 -0.011013
H51   H     H_    0.489181 0.886299 0.745770 0.173797
H52   H     H_    0.357509 0.850248 0.767110 0.116864
C95   C     C_3   0.498461 0.956138 0.816730 -0.272272
H53   H     H_    0.534191 0.046814 0.826727 0.169550
H54   H     H_    0.433770 0.915369 0.840034 0.136260
C96   C     C_3   0.590318 0.927941 0.824116 -0.457705
H55   H     H_    0.562423 0.840373 0.810644 0.157737
H56   H     H_    0.615319 0.943368 0.860942 0.148182
H57   H     H_    0.663804 0.980622 0.807190 0.188572
O28   O     O_3   0.442513 0.328141 0.797756 -0.591421
C97   C     C_3   0.554755 0.409645 0.809957 -0.014546
H58   H     H_    0.566913 0.487059 0.799146 0.143317
H59   H     H_    0.614820 0.389307 0.792488 0.101420
C98   C     C_3   0.579750 0.430212 0.861439 -0.251793
H60   H     H_    0.519021 0.450028 0.878216 0.191670
H61   H     H_    0.571292 0.354505 0.872670 0.153066
C99   C     C_3   0.696831 0.525507 0.876092 -0.490825
H62   H     H_    0.759061 0.506728 0.860133 0.142679
H63   H     H_    0.712569 0.538180 0.913509 0.148970
H64   H     H_    0.706335 0.602847 0.866192 0.137376
O29   O     O_3   0.061518 0.316322 0.673288 -0.548795
C100  C     C_3   0.152465 0.301261 0.683041 0.027972
H65   H     H_    0.169969 0.264956 0.650874 0.157387
H66   H     H_    0.136105 0.241393 0.706216 0.154270
C101  C     C_3   0.253326 0.413345 0.699271 -0.297355
H67   H     H_    0.276588 0.460298 0.670579 0.184862
H68   H     H_    0.231064 0.457691 0.726869 0.183119
C102  C     C_3   0.351275 0.405204 0.717192 -0.484005
H69   H     H_    0.328445 0.361227 0.746419 0.203360
H70   H     H_    0.421676 0.488301 0.729726 0.160595
H71   H     H_    0.377386 0.362857 0.690089 0.137727
C103  C     C_3   0.964353 0.406754 0.705807 -0.198803
C104  C     C_3   0.066284 0.521826 0.709373 -0.280214
C105  C     C_3   0.030602 0.610017 0.712356 -0.478538
H72   H     H_    0.996171 0.609488 0.678544 0.151152
H73   H     H_    0.966926 0.595395 0.736868 0.141346
H74   H     H_    0.101846 0.693050 0.724738 0.120237
H75   H     H_    0.121117 0.539898 0.740152 0.150282
H76   H     H_    0.113373 0.525459 0.679230 0.202586
H77   H     H_    0.914740 0.390960 0.673462 0.144992
H78   H     H_    0.914991 0.412690 0.733892 0.095758
O30   O     O_3   0.965225 0.077109 0.677393 -0.625209
C106  C     C_3   0.911453 0.995885 0.638001 -0.012647
H79   H     H_    0.976647 0.002690 0.615333 0.148028
H80   H     H_    0.856765 0.012425 0.617653 0.156072
C107  C     C_3   0.847556 0.876023 0.647358 -0.301690
H81   H     H_    0.904693 0.852701 0.662487 0.156989
H82   H     H_    0.784775 0.864414 0.671788 0.145101
C108  C     C_3   0.787342 0.796918 0.603263 -0.487630
H83   H     H_    0.715718 0.806160 0.592534 0.157730
H84   H     H_    0.756612 0.710563 0.608432 0.144892
H85   H     H_    0.843044 0.813572 0.575423 0.143463
O31   O     O_3   0.850471 0.023368 0.776447 -0.620607
C109  C     C_3   0.898513 0.975994 0.801489 0.003544
H86   H     H_    0.845250 0.943149 0.829335 0.162168
H87   H     H_    0.982768 0.036971 0.818133 0.125350
C110  C     C_3   0.900580 0.880093 0.771256 -0.275753
H88   H     H_    0.815160 0.819000 0.756162 0.162456
H89   H     H_    0.953571 0.911333 0.743303 0.156054
C111  C     C_3   0.945757 0.823156 0.798079 -0.494128
H90   H     H_    0.030455 0.883227 0.814088 0.144829
H91   H     H_    0.949894 0.756702 0.774915 0.137011
H92   H     H_    0.890532 0.785974 0.824848 0.144574
C112  C     C_3   0.673572 0.089608 0.721703 -0.263866
C113  C     C_3   0.605946 0.047221 0.675284 -0.297808
C114  C     C_3   0.606267 0.946114 0.649932 -0.436371
H93   H     H_    0.688505 0.962306 0.640669 0.149589
H94   H     H_    0.575279 0.880125 0.671142 0.150715
H95   H     H_    0.552074 0.918300 0.618243 0.178874
H96   H     H_    0.518355 0.016844 0.680104 0.218614
H97   H     H_    0.627790 0.113595 0.654759 0.155236
H98   H     H_    0.677380 0.022072 0.735382 0.177569
H99   H     H_    0.628845 0.116100 0.745728 0.200891
O32   O     O_3   0.173154 0.522864 0.285468 -0.583193
C115  C     C_3   0.155766 0.446978 0.315390 0.003676
H100  H     H_    0.084947 0.438314 0.335022 0.164255
H101  H     H_    0.228367 0.477969 0.340716 0.115235
C116  C     C_3   0.125938 0.333001 0.289137 -0.275849
H102  H     H_    0.049332 0.301363 0.266411 0.174534
H103  H     H_    0.193071 0.338837 0.267690 0.151654
C117  C     C_3   0.108058 0.251550 0.321375 -0.473343
H104  H     H_    0.186672 0.278362 0.342001 0.148063
H105  H     H_    0.080457 0.168434 0.301556 0.150444
H106  H     H_    0.043987 0.246272 0.344491 0.157973
C118  C     C_3   0.332926 0.847683 0.197703 -0.267767
C119  C     C_3   0.458866 0.925139 0.199643 -0.276265
C120  C     C_3   0.486316 0.040089 0.191367 -0.447260
H107  H     H_    0.441267 0.034912 0.159373 0.153856
H108  H     H_    0.463326 0.081494 0.220164 0.167218
H109  H     H_    0.576823 0.090606 0.188679 0.152774
H110  H     H_    0.499688 0.933542 0.233198 0.170965
H111  H     H_    0.493441 0.891557 0.172516 0.179822
H112  H     H_    0.298633 0.825345 0.161662 0.141286
H113  H     H_    0.294073 0.893450 0.215682 0.139505
C121  C     C_3   0.124082 0.018478 0.079761 -0.238717
C122  C     C_3   0.151958 0.954306 0.041124 -0.285150
C123  C     C_3   0.047098 0.864505 0.012603 -0.446757
H114  H     H_    0.990653 0.805106 0.033955 0.148257
H115  H     H_    0.003291 0.901835 0.996903 0.153634
H116  H     H_    0.069643 0.819005 0.985201 0.139120
H117  H     H_    0.207742 0.010416 0.018608 0.167258
H118  H     H_    0.195609 0.915335 0.055689 0.154736
H119  H     H_    0.071064 0.958340 0.101676 0.111440
H120  H     H_    0.071386 0.050070 0.067188 0.189664
O33   O     O_3   0.479171 0.338399 0.423123 -0.575056
C124  C     C_3   0.418522 0.372662 0.452567 0.018300
H121  H     H_    0.469056 0.411018 0.485692 0.156962
H122  H     H_    0.337841 0.303027 0.459671 0.115371
C125  C     C_3   0.399929 0.459359 0.433838 -0.282601
H123  H     H_    0.480903 0.527736 0.426799 0.165890
H124  H     H_    0.345840 0.421400 0.401553 0.143310
C126  C     C_3   0.345423 0.506449 0.467349 -0.469405
H125  H     H_    0.263812 0.439610 0.474624 0.146618
H126  H     H_    0.332039 0.567920 0.452606 0.151894
H127  H     H_    0.399504 0.547996 0.499520 0.143879
O34   O     O_3   0.514626 0.337201 0.096263 -0.557001
C127  C     C_3   0.544168 0.279604 0.061247 0.025924
H128  H     H_    0.600163 0.340367 0.040261 0.155097
H129  H     H_    0.471895 0.216192 0.037683 0.116068
C128  C     C_3   0.606461 0.226981 0.080598 -0.286759
H130  H     H_    0.686990 0.293127 0.098117 0.168975
H131  H     H_    0.557298 0.174170 0.105453 0.157242
C129  C     C_3   0.628138 0.156172 0.043107 -0.472456
H132  H     H_    0.548896 0.091307 0.024007 0.141289
H133  H     H_    0.668207 0.114889 0.058264 0.163580
H134  H     H_    0.683781 0.208294 0.019404 0.153875
C130  C     C_3   0.873487 0.392926 0.194886 -0.251701
C131  C     C_3   0.759132 0.376075 0.206834 -0.282672
C132  C     C_3   0.768824 0.479980 0.234928 -0.436933
H135  H     H_    0.823764 0.503931 0.266456 0.170504
H136  H     H_    0.803127 0.549164 0.215103 0.145253
H137  H     H_    0.685453 0.464159 0.244264 0.135937
H138  H     H_    0.705138 0.355444 0.175358 0.162109
H139  H     H_    0.718399 0.306937 0.226432 0.190415
H140  H     H_    0.926318 0.409450 0.226376 0.181562
H141  H     H_    0.915484 0.467653 0.178338 0.132528
O35   O     O_3   0.805532 0.337180 0.326497 -0.581691
C133  C     C_3   0.837658 0.432694 0.359086 -0.010127
H142  H     H_    0.891961 0.505363 0.342973 0.149027
H143  H     H_    0.889415 0.438981 0.389291 0.110767
C134  C     C_3   0.734948 0.441201 0.372042 -0.249504
H144  H     H_    0.694475 0.448793 0.341452 0.161775
H145  H     H_    0.673933 0.365272 0.384639 0.207351
C135  C     C_3   0.765347 0.540844 0.408478 -0.468062
H146  H     H_    0.803021 0.533289 0.439847 0.148601
H147  H     H_    0.689396 0.545264 0.416602 0.172170
H148  H     H_    0.824864 0.618141 0.396282 0.134109
O36   O     O_3   0.791085 0.002102 0.165652 -0.578066
C136  C     C_3   0.886318 0.995004 0.177255 0.006598
H149  H     H_    0.945835 0.068600 0.201991 0.129092
H150  H     H_    0.928584 0.988537 0.146392 0.122313
C137  C     C_3   0.851179 0.891985 0.199063 -0.252164
H151  H     H_    0.807104 0.896483 0.229484 0.161114
H152  H     H_    0.793199 0.817572 0.174611 0.173124
C138  C     C_3   0.951212 0.881099 0.213096 -0.496101
H153  H     H_    0.994466 0.872954 0.182917 0.137835
H154  H     H_    0.923025 0.806325 0.229290 0.141371
H155  H     H_    0.010137 0.954427 0.237778 0.142970
C139  C     C_3   0.528845 0.637494 0.658821 -0.261695
C140  C     C_3   0.514565 0.531867 0.629620 -0.293793
C141  C     C_3   0.591743 0.494676 0.648246 -0.458683
H156  H     H_    0.679769 0.559037 0.648296 0.143946
H157  H     H_    0.574965 0.478193 0.683435 0.140696
H158  H     H_    0.578374 0.417655 0.626693 0.163849
H159  H     H_    0.427471 0.464395 0.628244 0.169367
H160  H     H_    0.533563 0.546743 0.594360 0.150392
H161  H     H_    0.611047 0.707258 0.654876 0.134964
H162  H     H_    0.529361 0.629567 0.695126 0.147021

loop_
_geom_bond_atom_site_label_1
_geom_bond_atom_site_label_2
_ccdc_geom_bond_type
C54   O33   S    
C99   H63   S    
C116  H103  S    
Cr5   O19   S    
C137  H152  S    
C107  H81   S    
C85   O9    A    
C140  C141  S    
C107  C108  S    
C71   H41   S    
C40   C46   S    
O33   C124  S    
C97   C98   S    
C29   H13   S    
C78   H33   S    
C5    C6    A    
C42   H23   S    
C49   H24   S    
Cr4   O13   S    
C131  H138  S    
C29   C33   S    
C123  H114  S    
C41   C42   S    
C48   H29   S    
C19   C20   S    
C121  C122  S    
C87   O14   A    
C15   C91   S    
C136  H149  S    
C125  C126  S    
Cr4   O6    S    
C100  H65   S    
C21   C22   S    
C18   C25   S    
C110  H89   S    
C120  H109  S    
C76   C83   A    
C95   H54   S    
C77   C79   A    
C78   C89   A    
C91   H49   S    
C101  H67   S    
C27   C31   S    
C51   C52   T    
C88   O16   A    
C1    O20   A    
C112  H98   S    
C90   O13   A    
C72   C73   A    
O35   C133  S    
C110  C111  S    
C75   C76   A    
Cr3   O22   S    
C3    H16   S    
C16   C20   S    
Cr6   O11   S    
C41   O32   S    
C36   H15   S    
C132  H135  S    
C69   C74   A    
C34   C69   S    
C93   H44   S    
C55   C57   A    
C45   O3    A    
Cr1   O25   S    
C86   O6    A    
C129  H132  S    
C84   O8    A    
C130  H140  S    
C134  C135  S    
C14   C19   S    
C16   H4    S    
C139  C140  S    
C122  H117  S    
C62   C68   A    
C60   C64   A    
C103  H77   S    
C98   C99   S    
C73   O35   S    
C32   C33   S    
C125  H124  S    
Cr6   O17   S    
C27   H12   S    
C109  C110  S    
C69   C70   A    
C1    C39   S    
Cr1   O1    S    
C99   H64   S    
C7    C13   A    
C20   C21   S    
C130  H141  S    
C135  H146  S    
C13   C85   S    
C70   H38   S    
C31   C36   S    
Cr3   O3    S    
C115  H100  S    
C15   C18   S    
C57   C66   S    
C7    C8    A    
C53   C54   A    
C46   H19   S    
C34   O25   A    
C86   O11   A    
C38   C39   T    
C104  H75   S    
C97   H59   S    
C112  C113  S    
C127  H129  S    
C63   H34   S    
C134  H145  S    
C56   O4    A    
C93   H46   S    
C120  H107  S    
C94   H52   S    
C100  C101  S    
C34   O26   A    
C9    C10   S    
C61   C121  S    
C140  H159  S    
C129  H134  S    
C135  H148  S    
Cr6   O18   S    
C12   O22   A    
C121  H119  S    
C111  H90   S    
C124  C125  S    
C128  H131  S    
O31   C109  S    
C2    C11   S    
C36   O30   S    
C106  H79   S    
C14   H2    S    
C47   C50   S    
C102  H70   S    
C40   H28   S    
C23   O1    A    
Cr5   O8    S    
C138  H153  S    
C96   H57   S    
C118  H113  S    
C45   C52   S    
C25   C26   T    
C101  C102  S    
C113  H97   S    
C22   H7    S    
C5    C9    A    
O34   C127  S    
C114  H95   S    
C103  C104  S    
Cr2   O2    S    
Cr3   O5    S    
C115  C116  S    
C19   H43   S    
C94   H51   S    
C141  H157  S    
C3    C4    A    
C53   C56   S    
C54   C55   A    
C130  C131  S    
C133  C134  S    
C18   C22   S    
C107  H82   S    
C43   C50   T    
C118  C119  S    
C84   O7    A    
C141  H158  S    
C35   O31   S    
C90   O18   A    
C117  H104  S    
C71   C72   A    
C139  H161  S    
C76   H36   S    
C57   C58   A    
Cr4   O14   S    
C33   C35   S    
C123  H115  S    
C10   C11   T    
C63   C64   A    
C16   H5    S    
C40   C44   S    
C105  H74   S    
C108  H83   S    
C111  H92   S    
C124  H121  S    
C68   C87   S    
C136  H150  S    
C41   H21   S    
C106  C107  S    
Cr4   O7    S    
C8    H40   S    
C123  H116  S    
C73   C74   A    
C35   C36   S    
C138  H155  S    
C48   H27   S    
O32   C115  S    
C91   H50   S    
C101  H68   S    
C43   C88   S    
C88   O17   A    
C28   C29   S    
Cr1   O5    S    
C127  H128  S    
C114  H93   S    
C126  H127  S    
C128  H130  S    
C23   C26   S    
C14   O27   S    
C21   H8    S    
Cr2   O26   S    
C32   H11   S    
C132  H136  S    
C70   C71   A    
C79   O36   S    
C32   H17   S    
C92   H48   S    
C23   O23   A    
C93   H45   S    
C99   H62   S    
C116  C117  S    
C133  H142  S    
Cr4   O19   S    
C45   O2    A    
Cr1   O24   S    
C27   C112  S    
C129  H133  S    
C5    H10   S    
C141  H156  S    
C119  H110  S    
C89   C139  S    
C132  H137  S    
C29   H14   S    
C127  C128  S    
C92   C93   S    
C42   H22   S    
C58   C59   A    
C131  H139  S    
C28   O29   S    
C98   H60   S    
C30   C37   T    
C60   C61   A    
C2    C89   A    
C98   H61   S    
C62   C63   A    
C118  H112  S    
C105  H72   S    
C113  C114  S    
C87   O15   A    
C109  H87   S    
C12   O21   A    
C19   H9    S    
C48   C49   S    
C55   H35   S    
C41   C44   S    
C110  H88   S    
O30   C106  S    
C95   H53   S    
C115  H101  S    
C121  H120  S    
C46   C47   S    
C27   C32   S    
C28   C31   S    
C112  H99   S    
Cr2   O21   S    
C7    H42   S    
C92   H47   S    
C31   C38   S    
Cr5   O15   S    
C64   C65   S    
C17   C84   S    
C28   C103  S    
O28   C97   S    
C137  C138  S    
Cr3   O23   S    
C104  H76   S    
Cr6   O10   S    
C4    H25   S    
C1    O12   A    
O36   C136  S    
C33   C37   S    
C120  H108  S    
C131  C132  S    
C100  H66   S    
C75   C130  S    
C44   C49   S    
Cr6   O19   S    
C124  H122  S    
C137  H151  S    
C14   C18   S    
C96   H55   S    
C106  H80   S    
C81   C82   T    
C53   C59   A    
C102  H69   S    
C56   O24   A    
C122  H118  S    
Cr2   O20   S    
C103  H78   S    
C138  H154  S    
C96   H56   S    
C125  H123  S    
C77   C83   A    
C15   C16   S    
C74   H37   S    
C62   O34   S    
C35   H18   S    
C139  H162  S    
C20   C24   S    
C8    C9    A    
C135  H147  S    
O29   C100  S    
C30   C86   S    
C75   C80   A    
Cr3   O4    S    
C95   C96   S    
C58   H31   S    
C67   C78   A    
C136  C137  S    
C21   O28   S    
C12   C67   S    
C133  H143  S    
C17   C24   T    
C114  H94   S    
C59   H32   S    
C97   H58   S    
C117  H105  S    
C134  H144  S    
C47   C48   S    
C119  H111  S    
C94   C95   S    
C122  C123  S    
C140  H160  S    
C44   C51   S    
O27   C94   S    
C105  H73   S    
C65   C66   T    
C108  H84   S    
C111  H91   S    
C91   C92   S    
C128  C129  S    
C117  H106  S    
C116  H102  S    
C126  H125  S    
C6    H1    S    
C102  H71   S    
C83   C90   S    
Cr5   O9    S    
C15   H3    S    
C80   C81   S    
C4    C67   A    
C46   C118  S    
C108  H85   S    
C113  H96   S    
C22   H6    S    
C60   H30   S    
C2    C3    A    
C6    C13   A    
Cr1   O12   S    
C61   C68   A    
C40   H20   S    
C119  C120  S    
C49   H26   S    
C126  H126  S    
Cr5   O16   S    
C42   C47   S    
Cr2   O5    S    
C85   O10   A    
C79   C80   A    
C104  C105  S    
C109  H86   S    
C77   H39   S    
C72   C82   S    
