data_mof_unit_27133.cif
_audit_creation_date              2013-03-05T16:05:30-0500
_audit_creation_method            fapswitch 2.2
_symmetry_space_group_name_H-M    P1
_symmetry_Int_Tables_number       1
_space_group_crystal_system       triclinic
_cell_length_a                    10.827115
_cell_length_b                    9.686951
_cell_length_c                    10.628196
_cell_angle_alpha                 90.288146
_cell_angle_beta                  95.18038
_cell_angle_gamma                 89.956437
_cell_volume                      1110.136373

loop_
_atom_site_label
_atom_site_type_symbol
_atom_site_description
_atom_site_fract_x
_atom_site_fract_y
_atom_site_fract_z
_atom_type_partial_charge
O1    O     O_R   0.319640 0.618740 0.499990 -0.589158
O2    O     O_R   0.680360 0.381260 0.500010 -0.589158
O3    O     O_R   0.680360 0.618740 0.500010 -0.589001
O4    O     O_R   0.319640 0.381260 0.499990 -0.588999
C1    C     C_R   0.871569 0.499967 0.500181 -0.014267
C2    C     C_R   0.128431 0.500033 0.499818 -0.014266
C3    C     C_R   0.262528 0.500027 0.499660 0.767160
C4    C     C_R   0.737471 0.499973 0.500339 0.767156
O5    O     O_R   0.499970 0.618770 0.316850 -0.580056
O6    O     O_R   0.500030 0.381230 0.683150 -0.580054
O7    O     O_R   0.500030 0.618770 0.683150 -0.588123
O8    O     O_R   0.499970 0.381230 0.316850 -0.588123
C5    C     C_R   0.499167 0.499600 0.259778 0.790134
C6    C     C_R   0.500833 0.500400 0.740222 0.790138
Cu1   Cu    Cu3+1 0.500000 0.640660 0.500000 0.924456
Cu2   Cu    Cu3+1 0.500000 0.359340 0.500000 0.924457
N1    N     N_R   0.500000 0.852070 0.500000 -0.191488
N2    N     N_R   0.500000 0.147930 0.500000 -0.191488
C7    C     C_3   0.400556 0.571086 0.033239 -0.220002
C8    C     C_3   0.599443 0.428914 0.966761 -0.220022
C9    C     C_3   0.505860 0.631939 0.960483 -0.177403
C10   C     C_3   0.494140 0.368062 0.039517 -0.177391
C11   C     C_3   0.396800 0.441338 0.948376 0.221045
C12   C     C_3   0.603200 0.558662 0.051624 0.221027
H1    H     H_    0.318883 0.628020 0.062875 0.135563
H2    H     H_    0.681117 0.371980 0.937125 0.135564
H3    H     H_    0.511797 0.739730 0.926488 0.147066
H4    H     H_    0.488204 0.260270 0.073512 0.147067
C13   C     C_3   0.500690 0.501263 0.877118 -0.019942
C14   C     C_3   0.499310 0.498737 0.122882 -0.019946
C15   C     C_R   0.419275 0.073772 0.417101 0.235474
C16   C     C_R   0.580725 0.926228 0.582899 0.235475
C17   C     C_R   0.580709 0.074496 0.582937 0.240836
C18   C     C_R   0.419291 0.925504 0.417063 0.240835
C19   C     C_R   0.064398 0.374714 0.504225 -0.190069
C20   C     C_R   0.935601 0.625286 0.495774 -0.190070
C21   C     C_R   0.936581 0.374684 0.504364 -0.191460
C22   C     C_R   0.063419 0.625316 0.495635 -0.191458
H5    H     H_    0.112740 0.276682 0.507737 0.154631
H6    H     H_    0.887260 0.723318 0.492262 0.154630
H7    H     H_    0.889034 0.276638 0.507846 0.153532
H8    H     H_    0.110966 0.723362 0.492154 0.153531
C23   C     C_3   0.326869 0.145114 0.322647 -0.785415
H9    H     H_    0.327391 0.256833 0.323081 0.274321
H10   H     H_    0.344351 0.115134 0.224951 0.195582
H11   H     H_    0.230890 0.116406 0.340584 0.193093
C24   C     C_3   0.673131 0.854886 0.677353 -0.785416
H12   H     H_    0.672609 0.743166 0.676919 0.274321
H13   H     H_    0.769110 0.883594 0.659416 0.193093
H14   H     H_    0.655649 0.884866 0.775049 0.195582
C25   C     C_3   0.672580 0.146571 0.678069 -0.785689
H15   H     H_    0.673746 0.258259 0.676356 0.271733
H16   H     H_    0.652955 0.119272 0.775552 0.199066
H17   H     H_    0.768659 0.115772 0.662265 0.190910
C26   C     C_3   0.327420 0.853429 0.321931 -0.785689
H18   H     H_    0.326254 0.741741 0.323644 0.271733
H19   H     H_    0.231341 0.884228 0.337735 0.190910
H20   H     H_    0.347044 0.880728 0.224448 0.199066
C27   C     C_3   0.278932 0.374809 0.887238 -0.876336
H21   H     H_    0.302945 0.283205 0.831212 0.244896
H22   H     H_    0.219639 0.342090 0.961581 0.227428
H23   H     H_    0.227402 0.450092 0.823920 0.231466
C28   C     C_3   0.721074 0.625178 0.112765 -0.876222
H24   H     H_    0.697073 0.716794 0.168806 0.244876
H25   H     H_    0.772599 0.549871 0.176084 0.231443
H26   H     H_    0.780367 0.657889 0.038412 0.227416

loop_
_geom_bond_atom_site_label_1
_geom_bond_atom_site_label_2
_geom_bond_distance
_ccdc_geom_bond_type
C7    C9    1.552466 S    
O4    Cu2   1.964119 S    
C1    C4    1.452045 S    
C19   H5    1.083157 S    
C26   H18   1.082264 S    
C2    C22   1.401384 A    
C27   H21   1.109898 S    
C9    C13   1.539614 S    
C2    C3    1.452046 S    
O1    Cu1   1.964440 S    
C1    C21   1.401384 A    
C17   C25   1.520363 S    
O2    Cu2   1.964439 S    
C9    H3    1.110433 S    
C7    C11   1.541717 S    
C24   H12   1.082222 S    
C23   H9    1.082222 S    
C25   H17   1.109025 S    
C16   C17   1.436264 A    
C20   C22   1.384030 A    
O5    Cu1   1.956981 S    
C28   H26   1.109711 S    
C18   C26   1.520362 S    
C24   H13   1.109197 S    
O6    Cu2   1.956980 S    
O8    C5    1.299552 A    
C11   C27   1.521015 S    
C23   H10   1.109360 S    
C8    H2    1.110475 S    
C26   H20   1.109561 S    
C15   C23   1.520166 S    
O4    C3    1.305589 A    
Cu1   Cu2   2.725133 S    
C11   C13   1.528079 S    
C16   C24   1.520166 S    
C8    C10   1.552461 S    
C22   H8    1.083040 S    
C24   H14   1.109360 S    
C12   C14   1.528078 S    
C8    C13   1.537440 S    
C26   H19   1.109025 S    
C21   H7    1.083040 S    
C7    H1    1.110475 S    
C23   H11   1.109196 S    
C28   H25   1.110304 S    
C12   C28   1.521022 S    
C27   H22   1.109639 S    
N2    C17   1.383070 A    
C6    C13   1.455078 S    
C25   H15   1.082264 S    
C1    C20   1.401515 A    
O8    Cu2   1.959101 S    
C5    C14   1.455078 S    
C20   H6    1.083157 S    
O3    Cu1   1.964118 S    
C2    C19   1.401515 A    
Cu2   N2    2.047919 S    
O3    C4    1.305589 A    
N1    C18   1.383071 A    
C9    C12   1.540879 S    
O7    C6    1.299552 A    
Cu1   N1    2.047918 S    
N1    C16   1.382662 A    
O5    C5    1.301018 A    
C10   C11   1.540879 S    
C27   H23   1.110178 S    
C10   H4    1.110434 S    
N2    C15   1.382663 A    
C10   C14   1.539608 S    
C19   C21   1.384030 A    
O1    C3    1.305930 A    
C7    C14   1.537442 S    
O7    Cu1   1.959101 S    
C8    C12   1.541718 S    
C15   C18   1.436264 A    
O2    C4    1.305930 A    
C28   H24   1.110034 S    
O6    C6    1.301018 A    
C25   H16   1.109560 S    
