data_mof_unit_10084.cif
_audit_creation_date              2012-10-26T18:57:49-0400
_audit_creation_method            fapswitch 2.2
_symmetry_space_group_name_H-M    P1
_symmetry_Int_Tables_number       1
_space_group_crystal_system       triclinic
_cell_length_a                    15.091461
_cell_length_b                    13.90891
_cell_length_c                    15.972601
_cell_angle_alpha                 89.881259
_cell_angle_beta                  90.588878
_cell_angle_gamma                 90.037261
_cell_volume                      3352.55621311

loop_
_atom_site_label
_atom_site_type_symbol
_atom_type_description
_atom_site_fract_x
_atom_site_fract_y
_atom_site_fract_z
_atom_type_partial_charge
C1    C     C_R   0.329978 0.499817 0.500061 0.539145
C2    C     C_R   0.438222 0.790464 0.453393 0.383225
C3    C     C_R   0.449799 0.209879 0.442259 0.375526
C4    C     C_R   0.561732 0.790462 0.546538 0.384522
C5    C     C_R   0.499935 0.054759 0.499678 -0.049401
C6    C     C_R   0.499957 0.945356 0.499617 -0.049550
C7    C     C_R   0.499364 0.500108 0.341307 0.533008
C8    C     C_R   0.499991 0.499913 0.658691 0.532842
C9    C     C_R   0.537250 0.576227 0.956189 0.234951
C10   C     C_R   0.452457 0.426756 0.043712 0.233693
C11   C     C_R   0.540402 0.574207 0.044070 0.235628
C12   C     C_R   0.670115 0.499834 0.500435 0.539818
C13   C     C_R   0.449863 0.428445 0.955764 0.237548
C14   C     C_R   0.494880 0.501390 0.912435 -0.045633
C15   C     C_R   0.496062 0.500857 0.087443 -0.047216
C16   C     C_1   0.496964 0.500159 0.822761 0.020252
C17   C     C_1   0.496658 0.500785 0.177171 0.016227
C18   C     C_1   0.497844 0.500445 0.252232 -0.016254
C19   C     C_1   0.498596 0.499785 0.747737 -0.012899
C20   C     C_R   0.092502 0.565701 0.459268 0.252051
C21   C     C_R   0.904205 0.416934 0.466161 0.247885
C22   C     C_R   0.906635 0.567503 0.545414 0.252704
C23   C     C_R   0.048759 0.491814 0.503358 0.077008
C24   C     C_R   0.097515 0.420576 0.546219 0.250733
C25   C     C_R   0.184643 0.570574 0.461693 -0.126308
C26   C     C_R   0.811323 0.419664 0.467015 -0.169515
C27   C     C_R   0.814631 0.572443 0.539699 -0.125149
C28   C     C_R   0.190172 0.422558 0.541939 -0.163867
C29   C     C_R   0.233527 0.498312 0.501642 -0.088834
C30   C     C_R   0.766782 0.498201 0.501540 -0.088886
C31   C     C_3   0.672596 0.623462 0.097019 -0.104925
C32   C     C_3   0.318389 0.381552 0.899566 -0.104499
C33   C     C_3   0.519410 0.725134 0.901192 -0.118013
C34   C     C_R   0.951609 0.491107 0.506245 0.078084
C35   C     C_3   0.464724 0.277166 0.099137 -0.097765
C36   C     C_3   0.015619 0.600043 0.338307 0.006748
C37   C     C_3   0.078176 0.631931 0.268734 -0.271445
C38   C     C_3   0.045947 0.596923 0.183233 -0.487331
C39   C     C_3   0.920338 0.313419 0.352058 0.005733
C40   C     C_3   0.877626 0.213397 0.354154 -0.245152
C41   C     C_3   0.944066 0.135552 0.379379 -0.399786
C42   C     C_3   0.983628 0.607778 0.664994 0.005660
C43   C     C_3   0.921845 0.641727 0.734239 -0.271999
C44   C     C_3   0.954654 0.608961 0.820331 -0.487950
C45   C     C_R   0.546959 0.107816 0.560641 -0.148562
C46   C     C_3   0.082611 0.333436 0.670029 0.001486
C47   C     C_3   0.127290 0.235106 0.680459 -0.242948
C48   C     C_3   0.062013 0.152476 0.667496 -0.405151
C49   C     C_3   0.689957 0.238584 0.612396 0.012025
C50   C     C_3   0.722436 0.199050 0.696625 -0.271983
C51   C     C_3   0.822053 0.180712 0.695967 -0.489555
C52   C     C_3   0.374785 0.762356 0.323021 0.006594
C53   C     C_3   0.284630 0.803577 0.297042 -0.279036
C54   C     C_3   0.276992 0.815191 0.202242 -0.487258
C55   C     C_3   0.311004 0.237778 0.383853 0.010231
C56   C     C_R   0.434842 0.892077 0.456294 -0.147585
C57   C     C_3   0.281689 0.204407 0.296746 -0.270963
C58   C     C_3   0.182871 0.181400 0.294186 -0.488425
C59   C     C_3   0.629787 0.766144 0.676012 -0.000164
C60   C     C_3   0.721392 0.808025 0.696064 -0.280339
C61   C     C_3   0.734363 0.824298 0.789806 -0.483816
C62   C     C_R   0.452949 0.108258 0.438838 -0.153166
C63   C     C_R   0.565139 0.892133 0.543006 -0.148463
C64   C     C_R   0.550126 0.209384 0.557566 0.379624
Cu1   Cu    Cu3+1 0.500000 0.596430 0.500000 1.041582
Cu2   Cu    Cu3+1 0.500000 0.403570 0.500000 1.036140
H1    H     H_    0.217921 0.628775 0.429698 0.170856
H2    H     H_    0.681243 0.555305 0.132869 0.093292
H3    H     H_    0.706078 0.681357 0.133052 0.132953
H4    H     H_    0.312564 0.448735 0.861892 0.091765
H5    H     H_    0.283319 0.389727 0.960099 0.145163
H6    H     H_    0.284662 0.323488 0.863922 0.127816
H7    H     H_    0.497462 0.755360 0.962027 0.152076
H8    H     H_    0.461069 0.702158 0.862971 0.099476
H9    H     H_    0.552968 0.783554 0.866457 0.121403
H10   H     H_    0.524123 0.297803 0.136922 0.106741
H11   H     H_    0.485154 0.245356 0.038442 0.148058
H12   H     H_    0.773492 0.361378 0.439774 0.123964
H13   H     H_    0.428892 0.220761 0.134498 0.132883
H14   H     H_    0.948922 0.630881 0.325595 0.153054
H15   H     H_    0.007489 0.520239 0.336665 0.116555
H16   H     H_    0.082191 0.711706 0.267824 0.170376
H17   H     H_    0.145501 0.602497 0.281021 0.156370
H18   H     H_    0.042965 0.517121 0.182142 0.142370
H19   H     H_    0.092585 0.621456 0.134276 0.146358
H20   H     H_    0.979167 0.626524 0.168743 0.139107
H21   H     H_    0.978535 0.311146 0.310075 0.133490
H22   H     H_    0.873717 0.365981 0.322516 0.080274
H23   H     H_    0.780543 0.632523 0.567736 0.173885
H24   H     H_    0.821850 0.212444 0.398907 0.150540
H25   H     H_    0.850484 0.196415 0.290949 0.107472
H26   H     H_    0.998110 0.131658 0.332940 0.135585
H27   H     H_    0.910098 0.064761 0.381367 0.127209
H28   H     H_    0.972691 0.150586 0.442350 0.197167
H29   H     H_    0.050282 0.639640 0.675823 0.152905
H30   H     H_    0.992177 0.528212 0.669386 0.116574
H31   H     H_    0.918233 0.721507 0.733256 0.170311
H32   H     H_    0.854337 0.612134 0.723123 0.159498
H33   H     H_    0.957308 0.529204 0.823373 0.139304
H34   H     H_    0.228710 0.366131 0.571366 0.127496
H35   H     H_    0.908540 0.635041 0.869019 0.148756
H36   H     H_    0.021675 0.638675 0.833573 0.140691
H37   H     H_    0.023981 0.336510 0.711460 0.132198
H38   H     H_    0.128317 0.390836 0.693287 0.078316
H39   H     H_    0.182129 0.227595 0.635187 0.157423
H40   H     H_    0.156120 0.229766 0.744616 0.106473
H41   H     H_    0.010387 0.154326 0.716414 0.132806
H42   H     H_    0.097751 0.082912 0.672453 0.127421
H43   H     H_    0.030137 0.157069 0.604625 0.194521
H44   H     H_    0.725851 0.306714 0.599909 0.169803
H45   H     H_    0.581275 0.071908 0.611344 0.101098
H46   H     H_    0.708200 0.187896 0.561167 0.098678
H47   H     H_    0.707231 0.251601 0.746817 0.179459
H48   H     H_    0.687625 0.130675 0.710905 0.153635
H49   H     H_    0.838668 0.126862 0.647315 0.151379
H50   H     H_    0.843678 0.152520 0.757963 0.137932
H51   H     H_    0.858458 0.248568 0.683201 0.164328
H52   H     H_    0.385599 0.694451 0.288074 0.168856
H53   H     H_    0.428636 0.812686 0.303774 0.112548
H54   H     H_    0.231425 0.754728 0.318730 0.174238
H55   H     H_    0.274729 0.874669 0.326979 0.152711
H56   H     H_    0.380593 0.927979 0.424880 0.100727
H57   H     H_    0.329111 0.864766 0.179178 0.150750
H58   H     H_    0.211062 0.845573 0.185705 0.143262
H59   H     H_    0.283834 0.744337 0.170981 0.150255
H60   H     H_    0.273590 0.303987 0.399474 0.169674
H61   H     H_    0.292308 0.182639 0.431494 0.102923
H62   H     H_    0.295889 0.261911 0.250310 0.196854
H63   H     H_    0.319517 0.139161 0.279052 0.149909
H64   H     H_    0.167753 0.122173 0.338579 0.147431
H65   H     H_    0.163330 0.158411 0.230080 0.143758
H66   H     H_    0.143634 0.245967 0.311025 0.156840
H67   H     H_    0.418668 0.072672 0.387990 0.099319
H68   H     H_    0.620566 0.699933 0.714019 0.178397
H69   H     H_    0.577045 0.817352 0.695793 0.099495
H70   H     H_    0.773026 0.757855 0.673784 0.176443
H71   H     H_    0.730317 0.877455 0.662867 0.153400
H72   H     H_    0.684788 0.876582 0.813000 0.145449
H73   H     H_    0.801689 0.853727 0.801884 0.140851
H74   H     H_    0.727730 0.755382 0.824476 0.182929
H75   H     H_    0.619482 0.928284 0.573844 0.099234
H76   H     H_    0.705836 0.618245 0.035313 0.146551
N1    N     N_R   0.500000 0.258690 0.500000 -0.205480
N2    N     N_R   0.500000 0.741310 0.500000 -0.200392
O1    O     O_R   0.371460 0.581430 0.500010 -0.454956
O2    O     O_3   0.407750 0.355313 0.912324 -0.542267
O3    O     O_3   0.579831 0.648936 0.913184 -0.563685
O4    O     O_3   0.407309 0.355944 0.086789 -0.553668
O5    O     O_3   0.045530 0.636149 0.416565 -0.542315
O6    O     O_3   0.950704 0.339663 0.433125 -0.534719
O7    O     O_3   0.952261 0.640514 0.585959 -0.543122
O8    O     O_3   0.052853 0.346351 0.586221 -0.534967
O9    O     O_3   0.598319 0.260160 0.616948 -0.529557
O10   O     O_3   0.374270 0.739373 0.409521 -0.545321
O11   O     O_3   0.402366 0.261405 0.382646 -0.533113
O12   O     O_R   0.628540 0.418570 0.499990 -0.502450
O13   O     O_3   0.625578 0.739058 0.590532 -0.544303
O14   O     O_R   0.628540 0.581430 0.499990 -0.453278
O15   O     O_R   0.371460 0.418570 0.500010 -0.498775
O16   O     O_R   0.499980 0.581410 0.380310 -0.492771
O17   O     O_R   0.500020 0.418590 0.619690 -0.447030
O18   O     O_R   0.500020 0.581410 0.619690 -0.496260
O19   O     O_R   0.499980 0.418590 0.380310 -0.452211
O20   O     O_3   0.582288 0.647458 0.087546 -0.550315

loop_
_geom_bond_atom_site_label_1
_geom_bond_atom_site_label_2
_ccdc_geom_bond_type
C46   O8    S    
C21   C26   A    
C2    N2    A    
C1    O1    A    
C25   H1    S    
C43   H32   S    
C39   H21   S    
C43   C44   S    
C57   H62   S    
C53   H54   S    
C32   H6    S    
C41   H28   S    
C53   C54   S    
C55   O11   S    
C4    C63   A    
C26   H12   S    
C38   H20   S    
C42   H30   S    
C39   H22   S    
C62   H67   S    
C57   H63   S    
C36   C37   S    
C8    O17   A    
C7    O19   A    
C5    C6    S    
C44   H33   S    
C36   O5    S    
C48   H41   S    
C32   O2    S    
C20   C25   A    
C52   O10   S    
C20   O5    S    
C46   C47   S    
C59   H69   S    
C49   C50   S    
C24   O8    S    
C22   O7    S    
C11   C15   A    
C33   H9    S    
C41   H27   S    
C4    O13   S    
C58   H66   S    
C47   H39   S    
Cu1   O18   S    
Cu2   O19   S    
C23   C24   A    
C55   H60   S    
C33   O3    S    
C36   H15   S    
C60   H71   S    
C38   H18   S    
C47   H40   S    
C48   H43   S    
C59   C60   S    
C2    O10   S    
C13   C14   A    
C27   C30   A    
C13   O2    S    
C12   O12   A    
Cu1   O16   S    
C1    C29   S    
Cu2   O15   S    
C50   C51   S    
C32   H5    S    
C25   C29   A    
C31   H2    S    
C22   C34   A    
C54   H59   S    
C35   H10   S    
C8    C19   S    
C38   H19   S    
C42   H29   S    
C43   H31   S    
C1    O15   A    
C3    N1    A    
C36   H14   S    
C39   C40   S    
Cu1   N2    S    
C44   H36   S    
C61   H73   S    
C32   H4    S    
C7    O16   A    
C46   H38   S    
C64   O9    S    
C35   H11   S    
C51   H49   S    
Cu2   O17   S    
C60   C61   S    
C50   H48   S    
C56   H56   S    
C6    C63   A    
C9    C14   A    
C37   C38   S    
C47   C48   S    
C39   O6    S    
C20   C23   A    
C58   H65   S    
C7    C18   S    
C3    O11   S    
C17   C18   T    
C63   H75   S    
C21   O6    S    
C42   O7    S    
C9    C11   A    
C2    C56   A    
C49   H46   S    
C33   H7    S    
C40   C41   S    
C55   H61   S    
C26   C30   A    
C22   C27   A    
C55   C57   S    
C14   C16   S    
C37   H16   S    
C54   H57   S    
C42   C43   S    
Cu1   O1    S    
C52   C53   S    
C3    C62   A    
C49   O9    S    
C15   C17   S    
C54   H58   S    
C31   O20   S    
C28   C29   A    
C23   C34   S    
C59   H68   S    
C12   C30   S    
C24   C28   A    
C6    C56   A    
Cu1   O14   S    
C10   C13   A    
C4    N2    A    
C44   H35   S    
C45   H45   S    
C61   H74   S    
C21   C34   A    
C64   N1    A    
C46   H37   S    
C45   C64   A    
C51   H50   S    
C60   H70   S    
C10   C15   A    
C50   H47   S    
C40   H24   S    
C31   H76   S    
C53   H55   S    
Cu2   O12   S    
C59   O13   S    
C28   H34   S    
C57   C58   S    
C48   H42   S    
C5    C45   A    
C58   H64   S    
C16   C19   T    
C35   H13   S    
C11   O20   S    
C51   H51   S    
C9    O3    S    
C5    C62   A    
C27   H23   S    
C35   O4    S    
C40   H25   S    
C61   H72   S    
C52   H53   S    
C33   H8    S    
C31   H3    S    
C41   H26   S    
Cu1   Cu2   S    
C37   H17   S    
C8    O18   A    
C12   O14   A    
Cu2   N1    S    
C10   O4    S    
C49   H44   S    
C52   H52   S    
