data_mof_unit_25254.cif
_audit_creation_date              2013-03-05T16:07:56-0500
_audit_creation_method            fapswitch 2.2
_symmetry_space_group_name_H-M    P1
_symmetry_Int_Tables_number       1
_space_group_crystal_system       triclinic
_cell_length_a                    6.961818
_cell_length_b                    14.553957
_cell_length_c                    16.011414
_cell_angle_alpha                 90.264232
_cell_angle_beta                  90.100618
_cell_angle_gamma                 89.994337
_cell_volume                      1622.28872657

loop_
_atom_site_label
_atom_site_type_symbol
_atom_site_description
_atom_site_fract_x
_atom_site_fract_y
_atom_site_fract_z
_atom_type_partial_charge
O1    O     O_R   0.494380 0.415640 0.412830 -0.559318
O2    O     O_R   0.823960 0.405540 0.586560 -0.584210
O3    O     O_R   0.994270 0.584360 0.587170 -0.605322
C1    C     C_R   0.655335 0.383927 0.615555 0.960341
O4    O     O_R   0.824090 0.404620 0.413450 -0.568124
O5    O     O_R   0.994400 0.583430 0.412820 -0.598275
C2    C     C_R   0.655177 0.382649 0.384589 0.996597
O6    O     O_R   0.494250 0.416570 0.587180 -0.597395
O7    O     O_3   0.660800 0.558670 0.500000 -0.295919
V1    V     V_3+5 0.935650 0.489120 0.500000 1.241977
O8    O     O_R   0.324110 0.594460 0.413440 -0.595775
C3    C     C_R   0.154973 0.616207 0.384683 1.004990
O9    O     O_R   0.323980 0.595380 0.586550 -0.603260
C4    C     C_R   0.155470 0.615696 0.616850 0.999082
V2    V     V_3+5 0.435660 0.510880 0.500000 1.225682
O10   O     O_3   0.160640 0.441330 0.500000 -0.242527
C5    C     C_3   0.982728 0.659597 0.750530 -0.323289
H1    H     H_    0.841240 0.658158 0.718085 0.182903
H2    H     H_    0.008695 0.589506 0.775646 0.215830
C6    C     C_3   0.972615 0.729547 0.823769 -0.333806
H3    H     H_    0.001319 0.693274 0.883520 0.244200
H4    H     H_    0.824445 0.756880 0.829496 0.219227
H5    H     H_    0.964574 0.779716 0.616526 0.188080
C7    C     C_3   0.101088 0.781949 0.652724 -0.527743
C8    C     C_3   0.336994 0.690270 0.737021 -0.469685
C9    C     C_3   0.144680 0.685196 0.687791 -0.097910
H6    H     H_    0.455735 0.711049 0.694640 0.172810
H7    H     H_    0.373830 0.621060 0.761646 0.225007
C10   C     C_3   0.121938 0.808060 0.811737 -0.410074
C11   C     C_3   0.091146 0.855049 0.724391 0.898709
C12   C     C_3   0.323569 0.760503 0.809825 0.694877
H8    H     H_    0.438251 0.812800 0.801929 0.129350
H9    H     H_    0.214925 0.801332 0.607351 0.208059
C13   C     C_R   0.267756 0.747455 0.185937 0.034838
C14   C     C_R   0.121489 0.813638 0.182513 -0.213561
C15   C     C_R   0.984737 0.812654 0.247026 0.039700
H10   H     H_    0.879834 0.866467 0.250919 0.200006
C16   C     C_R   0.991370 0.746630 0.311014 -0.161265
H11   H     H_    0.884850 0.749461 0.360162 0.144199
C17   C     C_R   0.142182 0.682306 0.314978 -0.185043
C18   C     C_R   0.276847 0.682415 0.250122 0.222384
C19   C     C_3   0.490138 0.687567 0.257059 -0.635216
C20   C     C_3   0.480508 0.762478 0.190924 0.480326
H12   H     H_    0.558486 0.622644 0.235445 0.245689
H13   H     H_    0.539781 0.711189 0.319565 0.215618
C21   C     C_R   0.492005 0.316992 0.741609 0.098508
C22   C     C_R   0.647971 0.318975 0.686496 -0.303086
C23   C     C_R   0.801927 0.259159 0.703216 -0.031843
H14   H     H_    0.925754 0.258327 0.662788 0.140048
C24   C     C_R   0.791746 0.195153 0.768697 -0.091347
H15   H     H_    0.910418 0.148716 0.778087 0.172109
C25   C     C_R   0.625095 0.186888 0.817824 -0.199296
C26   C     C_R   0.480046 0.252003 0.805180 0.136770
C27   C     C_3   0.270608 0.238048 0.791471 -0.617829
C28   C     C_3   0.283441 0.309304 0.722638 0.631375
H16   H     H_    0.183927 0.260623 0.846085 0.255216
H17   H     H_    0.238982 0.167794 0.767669 0.190476
H18   H     H_    0.254130 0.282577 0.658744 0.020643
C29   C     C_R   0.527824 0.327434 0.245955 -0.113417
C30   C     C_R   0.647521 0.315125 0.315259 -0.206191
C31   C     C_R   0.771515 0.238721 0.313837 -0.150656
H19   H     H_    0.870420 0.228171 0.365246 0.181851
C32   C     C_R   0.761371 0.171896 0.249329 0.395510
C33   C     C_R   0.627071 0.182186 0.182565 -0.363277
C34   C     C_R   0.518946 0.263439 0.181303 -0.105414
C35   C     C_3   0.309708 0.280075 0.167196 0.453034
C36   C     C_3   0.319292 0.349623 0.238526 1.166405
H20   H     H_    0.218141 0.219368 0.179658 0.080406
O11   O     O_R   0.771490 0.080820 0.910070 -0.612182
O12   O     O_R   0.441590 0.092730 0.083780 -0.581574
O13   O     O_R   0.271350 0.913900 0.084390 -0.559978
C37   C     C_R   0.611042 0.113793 0.113639 1.083053
O14   O     O_R   0.441780 0.091820 0.910670 -0.597139
O15   O     O_R   0.271540 0.912980 0.910040 -0.573887
C38   C     C_R   0.610902 0.114703 0.882650 0.994909
O16   O     O_R   0.771300 0.081740 0.084420 -0.566297
O17   O     O_3   0.604960 0.938700 0.997240 -0.222944
V3    V     V_3+5 0.330090 0.008230 0.997220 1.319442
O18   O     O_R   0.941820 0.901930 0.910640 -0.595695
C39   C     C_R   0.110872 0.878696 0.882427 1.012766
O19   O     O_R   0.941630 0.902840 0.083750 -0.548615
C40   C     C_R   0.110822 0.881942 0.113642 1.058552
V4    V     V_3+5 0.830090 0.986410 0.997190 1.325007
O20   O     O_3   0.105080 0.055990 0.997200 -0.280162
F1    F     F_    0.239932 0.917363 0.712288 -0.691274
N1    N     N_R   0.581232 0.738364 0.113541 0.249071
O21   O     O_R   0.757374 0.708743 0.115999 -0.386237
O22   O     O_R   0.495619 0.745916 0.041660 -0.302115
N2    N     N_R   0.528454 0.854550 0.222675 0.199458
O23   O     O_R   0.473121 0.880447 0.296796 -0.387037
O24   O     O_R   0.600719 0.915648 0.172932 -0.391502
F2    F     F_    0.186740 0.389633 0.742348 -0.680083
N3    N     N_R   0.872917 0.089739 0.258218 0.231780
O25   O     O_R   0.855252 0.041010 0.325672 -0.358127
O26   O     O_R   0.019913 0.075390 0.209936 -0.415602
F3    F     F_    0.276641 0.320562 0.090435 -0.616563
F4    F     F_    0.213572 0.323775 0.307696 -0.730898
F5    F     F_    0.286953 0.439502 0.214291 -0.655093
N4    N     N_R   0.908227 0.905455 0.720096 0.225284
O27   O     O_R   0.744900 0.862091 0.717752 -0.452319
O28   O     O_R   0.908992 0.993554 0.707128 -0.372554
F6    F     F_    0.358822 0.716006 0.884580 -0.644208

loop_
_geom_bond_atom_site_label_1
_geom_bond_atom_site_label_2
_geom_bond_distance
_ccdc_geom_bond_type
C8    C12   1.549775 S    
C35   H20   1.108591 S    
N3    O25   1.300822 A    
O12   V3    2.004126 S    
C18   C19   1.490716 S    
C14   C15   1.406111 A    
C1    O6    1.299942 A    
C25   C38   1.483671 S    
O19   C40   1.307009 A    
C26   C27   1.487918 S    
C8    H7    1.113137 S    
C28   F2    1.384486 S    
V4    O20   2.165850 S    
C5    C9    1.557763 S    
C15   H10   1.072488 S    
C16   C17   1.408152 A    
C7    C9    1.548163 S    
O5    C3    1.297703 A    
C16   H11   1.082889 S    
N1    O22   1.300266 A    
O17   V4    1.714307 S    
V2    O10   2.165833 S    
C5    C6    1.551043 S    
C13   C14   1.402790 A    
C31   C32   1.417101 A    
C36   F5    1.384446 S    
C29   C36   1.491874 S    
C27   C28   1.519551 S    
O8    V2    2.003800 S    
C22   C23   1.406876 A    
C21   C28   1.487016 S    
C24   C25   1.408316 A    
H5    C7    1.112705 S    
O1    V2    2.005122 S    
N2    O24   1.298532 A    
O7    V1    2.164610 S    
C37   O16   1.296514 A    
O13   C40   1.299461 A    
C23   C24   1.407591 A    
C35   C36   1.523951 S    
C29   C30   1.398708 A    
N3    O26   1.299903 A    
O15   C39   1.300734 A    
O9    C4    1.303704 A    
O14   C38   1.304516 A    
C13   C18   1.401756 A    
C19   H12   1.111961 S    
O16   V4    2.006787 S    
O19   V4    2.003683 S    
C14   C40   1.489814 S    
C24   H15   1.078107 S    
C6    C10   1.557722 S    
C27   H16   1.111724 S    
C12   F6    1.385048 S    
O4    C2    1.302091 A    
N1    O21   1.300387 A    
C8    C9    1.554058 S    
O17   V3    2.164597 S    
C11   N4    1.471249 S    
O18   C39   1.305335 A    
C30   C31   1.407774 A    
C19   H13   1.111266 S    
C3    C17   1.479379 S    
O2    C1    1.302276 A    
C10   C11   1.573936 S    
O11   V4    2.003939 S    
N4    O27   1.300916 A    
O14   V3    2.006133 S    
C5    H1    1.112951 S    
C20   N2    1.469257 S    
C4    C9    1.519422 S    
C11   F1    1.391216 S    
O3    C4    1.299808 A    
C23   H14   1.078969 S    
N4    O28   1.299840 A    
C6    H4    1.109340 S    
O6    V2    2.003595 S    
O9    V2    2.006293 S    
C19   C20   1.524737 S    
O2    V1    2.006155 S    
C2    C30   1.480070 S    
C25   C26   1.399874 A    
C35   F3    1.384357 S    
C21   C22   1.400760 A    
C17   C18   1.400259 A    
O1    C2    1.299161 A    
C20   N1    1.465956 S    
C12   H8    1.110888 S    
C13   C20   1.499146 S    
O5    V1    2.004878 S    
O8    C3    1.303088 A    
C8    H6    1.113194 S    
C32   N3    1.433183 S    
C7    H9    1.113288 S    
C33   C34   1.401939 A    
C15   C16   1.408572 A    
O7    V2    1.714839 S    
O4    V1    2.004178 S    
C10   C12   1.565307 S    
O3    V1    2.004037 S    
V1    O10   1.713758 S    
C29   C34   1.390608 A    
O18   V4    2.006254 S    
C10   C39   1.527547 S    
C21   C26   1.395261 A    
C5    H2    1.112880 S    
O11   C38   1.298457 A    
C33   C37   1.486832 S    
C31   H19   1.083694 S    
C7    C11   1.562813 S    
C36   F4    1.384394 S    
C32   C33   1.427334 A    
V3    O20   1.713709 S    
C6    H3    1.112596 S    
C34   C35   1.493599 S    
O15   V3    2.004149 S    
C28   H18   1.111375 S    
O12   C37   1.308032 A    
N2    O23   1.302447 A    
C1    C22   1.482073 S    
O13   V3    2.004950 S    
C27   H17   1.111454 S    
