data_mof_unit_55668.cif
_audit_creation_date              2012-12-10T18:42:54-0500
_audit_creation_method            fapswitch 2.2
_symmetry_space_group_name_H-M    P1
_symmetry_Int_Tables_number       1
_space_group_crystal_system       triclinic
_cell_length_a                    18.07104
_cell_length_b                    18.063544
_cell_length_c                    18.115349
_cell_angle_alpha                 119.991578
_cell_angle_beta                  90.064833
_cell_angle_gamma                 60.013754
_cell_volume                      4185.12092669

loop_
_atom_site_label
_atom_site_type_symbol
_atom_type_description
_atom_site_fract_x
_atom_site_fract_y
_atom_site_fract_z
_atom_type_partial_charge
C1    C     C_R   0.891611 0.216714 0.608384 0.502766
C2    C     C_3   0.551439 0.897928 0.948940 0.067304
C3    C     C_3   0.412751 0.033802 0.016933 -0.108852
C4    C     C_3   0.587249 0.966198 0.983067 -0.108851
C5    C     C_3   0.042238 0.405966 0.484075 0.251038
C6    C     C_3   0.957759 0.594036 0.515924 0.251025
C7    C     C_3   0.079872 0.473542 0.517961 -0.166449
C8    C     C_3   0.920125 0.526460 0.482038 -0.166459
C9    C     C_3   0.052434 0.498029 0.447502 0.025433
C10   C     C_3   0.947563 0.501972 0.552497 0.025427
C11   C     C_3   0.015843 0.430200 0.414670 0.120610
C12   C     C_R   0.108389 0.783286 0.391616 0.502766
C13   C     C_3   0.984154 0.569801 0.585329 0.120594
C14   C     C_3   0.982414 0.034503 0.447158 -0.107021
C15   C     C_3   0.017586 0.965497 0.552842 -0.107025
C16   C     C_R   0.608470 0.783318 0.891637 0.507572
C17   C     C_R   0.391529 0.216682 0.108362 0.507577
C18   C     C_3   0.956483 0.965149 0.447857 -0.125676
C19   C     C_3   0.043517 0.034851 0.552143 -0.125681
C20   C     C_3   0.051080 0.897916 0.449115 0.068390
C21   C     C_3   0.948920 0.102084 0.550885 0.068391
C22   C     C_3   0.077902 0.965490 0.447603 -0.125754
C23   C     C_3   0.554143 0.425259 0.412343 -0.141773
C24   C     C_3   0.922097 0.034510 0.552397 -0.125750
C25   C     C_3   0.980686 0.431150 0.985196 -0.141986
C26   C     C_3   0.019314 0.568850 0.014804 -0.141985
C27   C     C_3   0.954914 0.528619 0.079515 -0.159866
C28   C     C_3   0.045086 0.471381 0.920485 -0.159866
C29   C     C_3   0.050603 0.501112 0.051753 0.040946
C30   C     C_3   0.949397 0.498888 0.948247 0.040946
C31   C     C_3   0.075583 0.405587 0.958940 0.269034
C32   C     C_3   0.924417 0.594413 0.041060 0.269035
C33   C     C_3   0.587286 0.429612 0.982951 -0.108531
C34   C     C_3   0.445855 0.574746 0.587660 -0.141931
C35   C     C_3   0.412714 0.570388 0.017049 -0.108539
C36   C     C_3   0.517272 0.404358 0.956899 -0.124369
C37   C     C_3   0.482728 0.595642 0.043100 -0.124374
C38   C     C_3   0.448667 0.500342 0.051024 0.067092
C39   C     C_3   0.551333 0.499658 0.948976 0.067091
C40   C     C_R   0.608387 0.499905 0.891655 0.503900
C41   C     C_R   0.391613 0.500095 0.108345 0.503896
C42   C     C_3   0.517731 0.525664 0.077958 -0.125686
C43   C     C_3   0.482269 0.474336 0.922042 -0.125689
C44   C     C_R   0.891220 0.500583 0.608805 0.536820
C45   C     C_3   0.482334 0.965260 0.922002 -0.125209
C46   C     C_R   0.108779 0.499417 0.391195 0.536829
C47   C     C_R   0.891744 0.499763 0.891493 0.537100
C48   C     C_R   0.108256 0.500236 0.108507 0.537100
C49   C     C_R   0.608232 0.499937 0.608601 0.529719
C50   C     C_R   0.391768 0.500063 0.391400 0.529738
C51   C     C_3   0.554598 0.520453 0.480385 0.270350
C52   C     C_3   0.445402 0.479549 0.519616 0.270352
C53   C     C_3   0.450493 0.595591 0.514952 -0.162115
C54   C     C_3   0.549506 0.404413 0.485049 -0.161961
C55   C     C_3   0.449579 0.500057 0.448072 0.042745
C56   C     C_3   0.517666 0.034740 0.077998 -0.125205
C57   C     C_3   0.550421 0.499945 0.551929 0.042746
C58   C     C_3   0.164294 0.233385 0.836003 -0.005514
C59   C     C_3   0.253836 0.128009 0.796230 -0.369892
C60   C     C_3   0.835706 0.766615 0.163997 -0.005518
C61   C     C_3   0.746164 0.871991 0.203770 -0.369883
C62   C     C_3   0.606033 0.558333 0.396673 -0.007831
C63   C     C_3   0.675410 0.576622 0.378399 -0.371744
C64   C     C_3   0.393697 0.442117 0.603599 -0.007806
C65   C     C_3   0.324719 0.423150 0.621466 -0.371918
C66   C     C_3   0.173658 0.243382 0.426459 -0.009788
C67   C     C_3   0.517188 0.035316 0.957023 -0.125338
C68   C     C_3   0.209498 0.132198 0.393560 -0.373978
C69   C     C_3   0.826345 0.756620 0.573547 -0.009779
C70   C     C_3   0.790513 0.867808 0.606462 -0.373955
C71   C     C_3   0.988049 0.304861 0.305060 -0.282472
C72   C     C_3   0.011950 0.695139 0.694942 -0.282478
C73   C     C_3   0.482812 0.964683 0.042977 -0.125337
C74   C     C_3   0.448561 0.102072 0.051060 0.067305
H1    H     H_    0.410005 0.672585 0.525038 0.100265
H2    H     H_    0.080812 0.447045 0.854483 0.109505
H3    H     H_    0.964837 0.374406 0.971394 0.122853
H4    H     H_    0.035163 0.625594 0.028606 0.122853
H5    H     H_    0.530361 0.325989 0.922655 0.107396
H6    H     H_    0.469639 0.674011 0.077345 0.107393
H7    H     H_    0.659813 0.371809 0.968103 0.124511
H8    H     H_    0.340187 0.628191 0.031897 0.124505
H9    H     H_    0.531206 0.546674 0.142898 0.102757
H10   H     H_    0.468794 0.453326 0.857102 0.102756
H11   H     H_    0.597162 0.365462 0.340145 0.121530
H12   H     H_    0.589980 0.327422 0.474969 0.100391
H13   H     H_    0.402844 0.634556 0.659859 0.121397
H14   H     H_    0.530148 0.066450 0.922909 0.107660
H15   H     H_    0.469852 0.933550 0.077091 0.107661
H16   H     H_    0.468933 0.934661 0.857021 0.108940
H17   H     H_    0.531067 0.065339 0.142979 0.108956
H18   H     H_    0.340241 0.063336 0.031717 0.126389
H19   H     H_    0.659759 0.936664 0.968283 0.126392
H20   H     H_    0.144836 0.452817 0.531624 0.101985
H21   H     H_    0.855162 0.547184 0.468374 0.102021
H22   H     H_    0.161768 0.256090 0.788642 0.121633
H23   H     H_    0.921949 0.934396 0.404028 0.103435
H24   H     H_    0.108549 0.224233 0.842109 0.128511
H25   H     H_    0.258175 0.102530 0.841564 0.161075
H26   H     H_    0.259021 0.068634 0.729119 0.087424
H27   H     H_    0.311138 0.133965 0.788012 0.154376
H28   H     H_    0.891451 0.775767 0.157891 0.128513
H29   H     H_    0.838232 0.743910 0.211358 0.121634
H30   H     H_    0.688862 0.866035 0.211988 0.154378
H31   H     H_    0.740979 0.931366 0.270881 0.087445
H32   H     H_    0.741824 0.897470 0.158436 0.161079
H33   H     H_    0.537248 0.628741 0.418230 0.119887
H34   H     H_    0.078051 0.065604 0.595972 0.103429
H35   H     H_    0.617706 0.489135 0.332625 0.128309
H36   H     H_    0.744995 0.506948 0.355471 0.155359
H37   H     H_    0.667772 0.590728 0.324934 0.093219
H38   H     H_    0.665256 0.645841 0.440882 0.148268
H39   H     H_    0.381354 0.511765 0.667653 0.128435
H40   H     H_    0.462594 0.372198 0.582610 0.119844
H41   H     H_    0.335627 0.353384 0.558994 0.148216
H42   H     H_    0.332016 0.409632 0.675292 0.093270
H43   H     H_    0.255021 0.492278 0.643713 0.155437
H44   H     H_    0.206795 0.270510 0.475192 0.127479
H45   H     H_    0.967114 0.064583 0.404636 0.126554
H46   H     H_    0.192243 0.242076 0.367012 0.118812
H47   H     H_    0.177990 0.102736 0.344154 0.151759
H48   H     H_    0.284095 0.080440 0.360281 0.087937
H49   H     H_    0.193444 0.130258 0.451484 0.156267
H50   H     H_    0.807767 0.757911 0.632986 0.118800
H51   H     H_    0.793199 0.729507 0.524819 0.127443
H52   H     H_    0.806561 0.869768 0.548550 0.156266
H53   H     H_    0.715921 0.919565 0.639745 0.087935
H54   H     H_    0.822027 0.897256 0.655866 0.151753
H55   H     H_    0.103858 0.300067 0.284586 0.257582
H56   H     H_    0.032886 0.935416 0.595364 0.126548
H57   H     H_    0.003592 0.252240 0.231286 0.129389
H58   H     H_    0.913754 0.365135 0.336362 0.158031
H59   H     H_    0.009698 0.257950 0.333283 0.182108
H60   H     H_    0.896141 0.699932 0.715413 0.257584
H61   H     H_    0.996390 0.747776 0.768717 0.129394
H62   H     H_    0.990318 0.742032 0.666704 0.182110
H63   H     H_    0.086245 0.634864 0.663657 0.157990
H64   H     H_    0.142771 0.935101 0.403577 0.105026
H65   H     H_    0.857229 0.064899 0.596423 0.105030
H66   H     H_    0.919188 0.552954 0.145517 0.109506
N1    N     N_2   0.035592 0.353341 0.320673 -0.488544
N2    N     N_2   0.964407 0.646658 0.679326 -0.488549
O1    O     O_3   0.750010 0.499980 0.749990 -0.446819
O2    O     O_R   0.305750 0.265450 0.132730 -0.545573
O3    O     O_R   0.867280 0.265410 0.571220 -0.545354
O4    O     O_R   0.132720 0.734590 0.428780 -0.545359
O5    O     O_R   0.571230 0.734580 0.867270 -0.543833
O6    O     O_R   0.428770 0.265420 0.132730 -0.543826
O7    O     O_R   0.694200 0.438470 0.867270 -0.548066
O8    O     O_R   0.305800 0.561530 0.132730 -0.548069
O9    O     O_R   0.867340 0.561470 0.694210 -0.548347
O10   O     O_R   0.132660 0.438530 0.305790 -0.548343
O11   O     O_R   0.867310 0.438430 0.867270 -0.558715
O12   O     O_3   0.249990 0.500020 0.250010 -0.446818
O13   O     O_R   0.132690 0.561570 0.132730 -0.558715
O14   O     O_R   0.694200 0.438520 0.571220 -0.519296
O15   O     O_R   0.305800 0.561480 0.428780 -0.519326
O16   O     O_R   0.867340 0.561440 0.867270 -0.510532
O17   O     O_R   0.132660 0.438560 0.132730 -0.510534
O18   O     O_R   0.571190 0.561530 0.694210 -0.561142
O19   O     O_R   0.428810 0.438470 0.305790 -0.561134
O20   O     O_3   0.158741 0.307693 0.921169 -0.539772
O21   O     O_3   0.841259 0.692307 0.078830 -0.539772
O22   O     O_3   0.616397 0.541229 0.464994 -0.543228
O23   O     O_R   0.571190 0.561490 0.867270 -0.547394
O24   O     O_3   0.383651 0.458691 0.534957 -0.543254
O25   O     O_3   0.079151 0.308109 0.469356 -0.546880
O26   O     O_3   0.920846 0.691892 0.530642 -0.546881
O27   O     O_R   0.428810 0.438510 0.132730 -0.547392
O28   O     O_R   0.867310 0.438490 0.571220 -0.516716
O29   O     O_R   0.132690 0.561510 0.428780 -0.516727
O30   O     O_R   0.867280 0.265380 0.694210 -0.550427
O31   O     O_R   0.132720 0.734620 0.305790 -0.550427
O32   O     O_R   0.694250 0.734550 0.867270 -0.545573
Zn1   Zn    Zn3+2 0.618190 0.587870 0.793920 0.922595
Zn2   Zn    Zn3+2 0.381810 0.412130 0.206080 0.922617
Zn3   Zn    Zn3+2 0.793940 0.412090 0.793920 0.922533
Zn4   Zn    Zn3+2 0.206060 0.587910 0.206080 0.922530
Zn5   Zn    Zn3+2 0.793970 0.587840 0.793920 0.953826
Zn6   Zn    Zn3+2 0.206030 0.412160 0.206080 0.953834
Zn7   Zn    Zn3+2 0.793940 0.412130 0.618200 0.954511
Zn8   Zn    Zn3+2 0.206060 0.587870 0.381800 0.954491

loop_
_geom_bond_atom_site_label_1
_geom_bond_atom_site_label_2
_ccdc_geom_bond_type
O30   Zn3   S    
C25   C31   S    
C66   C68   S    
C1    C21   S    
C59   H26   S    
O12   Zn6   S    
C27   C29   S    
C59   H25   S    
C14   C18   S    
C49   O14   A    
C46   O10   A    
C58   H24   S    
O1    Zn1   S    
O17   Zn6   S    
C60   O21   S    
C6    C9    S    
C26   C32   S    
C62   H35   S    
C67   H14   S    
C33   C39   S    
C66   O25   S    
C17   O2    A    
C18   C24   S    
C33   C42   S    
O1    Zn7   S    
C14   C21   S    
C35   C37   S    
C5    C11   S    
O5    Zn1   S    
C72   H62   S    
H55   N1    S    
C70   H54   S    
C32   O21   S    
O3    Zn7   S    
C63   H38   S    
C33   C36   S    
C49   C57   S    
C46   O29   A    
C12   O4    A    
C37   C42   S    
C3    C74   S    
C58   H22   S    
C64   H39   S    
C64   O24   S    
O29   Zn8   S    
C52   O24   S    
C71   H58   S    
C15   C19   S    
C1    O3    A    
C56   H17   S    
C62   O22   S    
O2    Zn6   S    
C45   C67   S    
C34   C57   S    
C10   C13   S    
C49   O18   A    
C19   C22   S    
C51   C57   S    
C18   H23   S    
O1    Zn5   S    
C60   H29   S    
C35   C43   S    
C26   H4    S    
C52   C55   S    
C71   N1    S    
C19   H34   S    
C70   H52   S    
C5    O25   S    
C31   O20   S    
C69   H51   S    
C9    C46   S    
C2    C45   S    
C66   H46   S    
C4    C56   S    
C50   O19   A    
C43   H10   S    
C65   H41   S    
C53   H1    S    
C8    H21   S    
C60   H28   S    
C68   H49   S    
C37   H6    S    
C35   H8    S    
C52   C54   S    
O11   Zn3   S    
C53   C55   S    
C24   H65   S    
C15   C20   S    
C48   O17   A    
C6    O26   S    
C44   O9    A    
C56   C74   S    
O4    Zn8   S    
C29   C48   S    
C10   C44   S    
C59   H27   S    
C30   C47   S    
C61   H30   S    
C64   H40   S    
C38   C41   S    
C68   H48   S    
C39   C40   S    
C54   H12   S    
O19   Zn2   S    
C17   O6    A    
C72   H61   S    
C39   C43   S    
C62   H33   S    
C47   O11   A    
C69   H50   S    
C58   C59   S    
C41   O27   A    
C3    C45   S    
C3    H18   S    
C51   C53   S    
O10   Zn6   S    
C72   N2    S    
O16   Zn5   S    
C62   C63   S    
C45   H16   S    
H60   N2    S    
C9    C11   S    
C23   C51   S    
C12   C20   S    
O7    Zn3   S    
C51   O22   S    
C67   C74   S    
O6    Zn2   S    
C13   N2    S    
C61   H32   S    
C11   N1    S    
C40   O23   A    
C2    C73   S    
C26   C29   S    
C8    C10   S    
C15   C24   S    
C48   O13   A    
C20   C22   S    
C16   O5    A    
O28   Zn7   S    
C23   H11   S    
O9    Zn5   S    
O18   Zn1   S    
C25   H3    S    
O23   Zn1   S    
O15   Zn8   S    
C36   C38   S    
C28   H2    S    
C61   H31   S    
C23   C54   S    
C5    C7    S    
C16   O32   A    
C25   C30   S    
C7    C9    S    
C7    H20   S    
C72   H63   S    
C56   C73   S    
C19   C21   S    
C27   C32   S    
C34   C52   S    
C28   C31   S    
C42   H9    S    
C50   C55   S    
C36   H5    S    
C68   H47   S    
C71   H59   S    
C4    C67   S    
C6    C8    S    
O14   Zn7   S    
O13   Zn4   S    
C23   C55   S    
C41   O8    A    
C2    C16   S    
C25   C27   S    
C22   H64   S    
C1    O30   A    
C26   C28   S    
C27   H66   S    
O12   Zn2   S    
C64   C65   S    
C14   C22   S    
C63   H36   S    
O12   Zn4   S    
C69   O26   S    
C73   H15   S    
C5    C10   S    
C29   C31   S    
C70   H53   S    
O8    Zn4   S    
C6    C13   S    
C30   C32   S    
C17   C74   S    
C15   H56   S    
O31   Zn4   S    
C8    C11   S    
C2    C4    S    
O12   Zn8   S    
C28   C30   S    
C65   H42   S    
O27   Zn2   S    
C40   O7    A    
C18   C20   S    
C34   H13   S    
O1    Zn3   S    
C63   H37   S    
C69   C70   S    
C3    C73   S    
C44   O28   A    
C71   H57   S    
C4    H19   S    
C38   C42   S    
C7    C13   S    
C34   C53   S    
C37   C39   S    
C14   H45   S    
C66   H44   S    
C21   C24   S    
C65   H43   S    
C35   C38   S    
C60   C61   S    
C36   C43   S    
C50   O15   A    
C33   H7    S    
O32   Zn5   S    
C47   O16   A    
C12   O31   A    
C54   C57   S    
C58   O20   S    
