data_mof_unit_43455.cif
_audit_creation_date              2013-03-05T15:45:12-0500
_audit_creation_method            fapswitch 2.2
_symmetry_space_group_name_H-M    P1
_symmetry_Int_Tables_number       1
_space_group_crystal_system       triclinic
_cell_length_a                    11.599421
_cell_length_b                    11.608147
_cell_length_c                    19.559496
_cell_angle_alpha                 90.681463
_cell_angle_beta                  90.050695
_cell_angle_gamma                 59.700629
_cell_volume                      2273.68930802

loop_
_atom_site_label
_atom_site_type_symbol
_atom_site_description
_atom_site_fract_x
_atom_site_fract_y
_atom_site_fract_z
_atom_type_partial_charge
O1    O     O_R   0.267740 0.231990 0.575440 -0.500956
O2    O     O_R   0.527280 0.186680 0.570530 -0.487431
C1    C     C_R   0.640273 0.117353 0.599248 0.555420
O3    O     O_R   0.728090 0.003480 0.576380 -0.497928
O4    O     O_R   0.682970 0.789220 0.570490 -0.500816
C2    C     C_R   0.612203 0.746710 0.598674 0.545491
O5    O     O_R   0.499290 0.771920 0.575530 -0.491129
O6    O     O_R   0.285330 0.030900 0.569730 -0.488092
C3    C     C_R   0.241484 0.145386 0.598190 0.546913
O7    O     O_R   0.270980 0.227040 0.423900 -0.494348
O8    O     O_R   0.530280 0.182090 0.430050 -0.467819
C4    C     C_R   0.647724 0.113068 0.403312 0.601872
O9    O     O_R   0.731330 0.998530 0.424830 -0.438177
O10   O     O_R   0.685970 0.784630 0.430010 -0.477368
C5    C     C_R   0.615278 0.740191 0.402037 0.556087
O11   O     O_R   0.502530 0.766960 0.423990 -0.473518
O12   O     O_R   0.288330 0.026310 0.429250 -0.455134
C6    C     C_R   0.247470 0.140081 0.400072 0.565414
Cr1   Cr    Cr6+3 0.404720 0.198220 0.499960 1.110116
Cr2   Cr    Cr6+3 0.698290 0.897110 0.500380 1.115142
Cr3   Cr    Cr6+3 0.396970 0.904720 0.499610 1.128695
O13   O     O_3   0.499990 0.000020 0.499980 -0.310935
C7    C     C_1   0.670334 0.645936 0.860067 0.011981
C8    C     C_1   0.654596 0.684027 0.728413 -0.026081
C9    C     C_1   0.663309 0.666463 0.799670 -0.026440
C10   C     C_1   0.641069 0.704576 0.668011 0.012506
C11   C     C_1   0.126380 0.198761 0.859255 0.009516
C12   C     C_1   0.171540 0.170813 0.727668 -0.025853
C13   C     C_1   0.149983 0.182444 0.798892 -0.026376
C14   C     C_1   0.195521 0.161528 0.667359 0.011715
C15   C     C_1   0.678946 0.191251 0.860765 0.011139
C16   C     C_1   0.658375 0.167381 0.729027 -0.025733
C17   C     C_1   0.665858 0.180912 0.800339 -0.026232
C18   C     C_1   0.652621 0.149887 0.668630 0.013811
C19   C     C_R   0.523795 0.763589 0.288131 -0.069097
H1    H     H_    0.424193 0.824770 0.308584 0.185398
C20   C     C_R   0.538779 0.748874 0.218334 -0.094937
H2    H     H_    0.451011 0.788248 0.186249 0.164158
C21   C     C_R   0.666541 0.676141 0.190790 0.043292
C22   C     C_R   0.779293 0.630405 0.233441 0.118365
C23   C     C_R   0.763620 0.630124 0.303596 -0.067720
H3    H     H_    0.850039 0.591555 0.336620 0.168371
C24   C     C_R   0.635967 0.701685 0.331022 0.040383
C25   C     C_R   0.209934 0.262350 0.290993 0.047633
C26   C     C_R   0.199362 0.263835 0.220938 -0.117484
H4    H     H_    0.211727 0.336217 0.192454 0.207376
C27   C     C_R   0.154843 0.187240 0.188513 -0.051356
C28   C     C_R   0.145430 0.088627 0.224712 -0.130382
H5    H     H_    0.110471 0.028223 0.199685 0.201488
C29   C     C_R   0.168579 0.075451 0.294909 0.134200
C30   C     C_R   0.200235 0.163458 0.329245 -0.006889
C31   C     C_R   0.761480 0.043238 0.291034 0.145890
C32   C     C_R   0.747281 0.060075 0.221266 0.142870
C33   C     C_R   0.667500 0.188075 0.194635 -0.075452
C34   C     C_R   0.586033 0.296598 0.239277 0.132736
C35   C     C_R   0.598794 0.278886 0.311080 0.140027
C36   C     C_R   0.676960 0.148452 0.336014 -0.060149
O14   O     O_R   0.821500 0.119550 0.952820 -0.492870
O15   O     O_R   0.037130 0.162750 0.957360 -0.498331
C37   C     C_R   0.081301 0.231418 0.928570 0.540522
O16   O     O_R   0.056440 0.344950 0.951330 -0.498982
O17   O     O_R   0.797900 0.560570 0.957460 -0.491051
C38   C     C_R   0.684021 0.603849 0.929406 0.541570
O18   O     O_R   0.596140 0.579600 0.952720 -0.506825
O19   O     O_R   0.639070 0.321380 0.958660 -0.497378
C39   C     C_R   0.708557 0.206903 0.930103 0.548524
O20   O     O_R   0.821240 0.124490 0.104360 -0.456227
O21   O     O_R   0.036900 0.167320 0.097830 -0.505580
C40   C     C_R   0.086559 0.233511 0.123645 0.548216
O22   O     O_R   0.056190 0.349890 0.102870 -0.490347
O23   O     O_R   0.797670 0.565150 0.097930 -0.478555
C41   C     C_R   0.682498 0.615168 0.124232 0.557658
O24   O     O_R   0.595880 0.584540 0.104260 -0.466552
O25   O     O_R   0.638830 0.325960 0.099140 -0.450383
C42   C     C_R   0.705885 0.211521 0.126606 0.587061
Cr4   Cr    Cr6+3 0.926180 0.152240 0.028110 1.093022
Cr5   Cr    Cr6+3 0.921340 0.452070 0.027460 1.096491
Cr6   Cr    Cr6+3 0.626260 0.447120 0.028700 1.113314
O26   O     O_3   0.824590 0.350480 0.028090 -0.293693
N1    N     N_R   0.819933 0.945670 0.177151 0.126637
O27   O     O_R   0.757595 0.919996 0.129396 -0.332113
O28   O     O_R   0.949898 0.881218 0.177493 -0.243434
N2    N     N_R   0.488469 0.421701 0.211480 0.139853
O29   O     O_R   0.395522 0.427806 0.171804 -0.308087
O30   O     O_R   0.501950 0.525448 0.218445 -0.276335
N3    N     N_R   0.544584 0.390490 0.358937 0.106538
O31   O     O_R   0.605980 0.379910 0.416306 -0.326686
O32   O     O_R   0.444002 0.506576 0.343709 -0.209522
I1    I     I_    0.966019 0.598639 0.198247 -0.057652
I2    I     I_    0.222531 0.429222 0.329736 -0.076945
N4    N     N_R   0.149811 0.979478 0.331006 0.090312
O33   O     O_R   0.083524 0.012917 0.388457 -0.271481
O34   O     O_R   0.185275 0.864040 0.302858 -0.244155
N5    N     N_R   0.854595 0.913279 0.315059 0.148129
O35   O     O_R   0.821009 0.823082 0.313194 -0.336865
O36   O     O_R   0.954667 0.893843 0.352801 -0.181969

loop_
_geom_bond_atom_site_label_1
_geom_bond_atom_site_label_2
_geom_bond_distance
_ccdc_geom_bond_type
C15   C39   1.430581 S    
C34   C35   1.418590 A    
O11   Cr3   2.053142 S    
C11   C13   1.203234 T    
C23   H3    1.084154 S    
O17   Cr5   1.931047 S    
C19   H1    1.079512 S    
Cr4   O26   1.986938 S    
O14   Cr4   2.058027 S    
O4    Cr2   1.935574 S    
C32   C33   1.401992 A    
C31   C32   1.378765 A    
O8    Cr1   1.936050 S    
C20   H2    1.084146 S    
C12   C13   1.408398 S    
C19   C20   1.374046 A    
C8    C10   1.202454 T    
C11   C37   1.429771 S    
O4    C2    1.279535 A    
N1    O27   1.301463 A    
N3    O32   1.299350 A    
C5    O11   1.256613 A    
C35   C36   1.408544 A    
C26   C27   1.381574 A    
C27   C40   1.452855 S    
O14   C39   1.269330 A    
C27   C28   1.403263 A    
O16   Cr5   2.052590 S    
O6    C3    1.278911 A    
C21   C41   1.440943 S    
C15   C17   1.203758 T    
C31   N5    1.426556 S    
C22   I1    2.119372 S    
C19   C24   1.407877 A    
C7    C38   1.428407 S    
O15   C37   1.279948 A    
Cr3   O13   1.996372 S    
O22   Cr5   2.048065 S    
C23   C24   1.385627 A    
N5    O35   1.288405 A    
C6    C30   1.466481 S    
O12   C6    1.296299 A    
Cr5   O26   1.996503 S    
O1    Cr1   2.054203 S    
O25   C42   1.277474 A    
O10   Cr2   1.940334 S    
Cr1   O13   1.987241 S    
O1    C3    1.273269 A    
C8    C9    1.407158 S    
N1    O28   1.301711 A    
N4    O33   1.301770 A    
N3    O31   1.301919 A    
O21   C40   1.270426 A    
C1    C18   1.430679 S    
C29   C30   1.411136 A    
C26   H4    1.081584 S    
O12   Cr3   1.929385 S    
C33   C42   1.474712 S    
C37   O16   1.273171 A    
C16   C18   1.203788 T    
O17   C38   1.278279 A    
N4    O34   1.301780 A    
C35   N3    1.449190 S    
N2    O29   1.300896 A    
O7    Cr1   2.053239 S    
O24   Cr6   2.056864 S    
C32   N1    1.436355 S    
O6    Cr3   1.935157 S    
N5    O36   1.296709 A    
C3    C14   1.429746 S    
C4    C36   1.473296 S    
C25   C30   1.428678 A    
C28   H5    1.083564 S    
N2    O30   1.295942 A    
Cr2   O13   1.986322 S    
O20   C42   1.275509 A    
C34   N2    1.429912 S    
C1    O3    1.270062 A    
O23   Cr5   1.934207 S    
C25   I2    2.144377 S    
C25   C26   1.375142 A    
C33   C34   1.420026 A    
C22   C23   1.384604 A    
O19   Cr6   1.939908 S    
O9    Cr2   2.052857 S    
O2    Cr1   1.937264 S    
Cr6   O26   1.986613 S    
O18   Cr6   2.051077 S    
C41   O24   1.282538 A    
O8    C4    1.288881 A    
C2    O5    1.273300 A    
O3    Cr2   2.059114 S    
O21   Cr4   1.938491 S    
C16   C17   1.409279 S    
C12   C14   1.203228 T    
O2    C1    1.275194 A    
C5    C24   1.436775 S    
O23   C41   1.264087 A    
C20   C21   1.388311 A    
O5    Cr3   2.048250 S    
C2    C10   1.428400 S    
O7    C6    1.255735 A    
C28   C29   1.394109 A    
C7    C9    1.202455 T    
C40   O22   1.283306 A    
C31   C36   1.412305 A    
C38   O18   1.272680 A    
C21   C22   1.412898 A    
C29   N4    1.432040 S    
C4    O9    1.263696 A    
O19   C39   1.276685 A    
O25   Cr6   1.932980 S    
O10   C5    1.287303 A    
O20   Cr4   2.054276 S    
O15   Cr4   1.936940 S    
