data_mof_unit_14223.cif
_audit_creation_date              2012-12-10T19:07:34-0500
_audit_creation_method            fapswitch 2.2
_symmetry_space_group_name_H-M    P1
_symmetry_Int_Tables_number       1
_space_group_crystal_system       triclinic
_cell_length_a                    10.853333
_cell_length_b                    10.837374
_cell_length_c                    9.551796
_cell_angle_alpha                 90.484291
_cell_angle_beta                  90.863718
_cell_angle_gamma                 90.700327
_cell_volume                      1123.24432461

loop_
_atom_site_label
_atom_site_type_symbol
_atom_type_description
_atom_site_fract_x
_atom_site_fract_y
_atom_site_fract_z
_atom_type_partial_charge
C1    C     C_R   0.496708 0.262392 0.499355 0.807216
C2    C     C_R   0.939656 0.465099 0.622510 0.126245
C3    C     C_3   0.940289 0.532000 0.759843 -0.496569
C4    C     C_3   0.079702 0.531072 0.757095 -0.436522
C5    C     C_R   0.473419 0.065014 0.623038 0.024969
C6    C     C_R   0.482842 0.129361 0.497750 -0.094284
C7    C     C_R   0.475060 0.063165 0.370663 -0.204247
C8    C     C_R   0.476082 0.934451 0.371318 -0.187374
C9    C     C_R   0.484894 0.870955 0.499061 -0.176532
C10   C     C_R   0.474550 0.937821 0.623781 0.119825
C11   C     C_3   0.553162 0.936322 0.753256 0.442276
C12   C     C_R   0.262490 0.496395 0.498927 0.800354
C13   C     C_3   0.550276 0.076026 0.753445 -0.494550
C14   C     C_R   0.542966 0.600284 0.075786 0.287780
C15   C     C_R   0.444877 0.407298 0.072526 -0.091057
C16   C     C_R   0.444644 0.407422 0.923722 -0.099213
C17   C     C_R   0.543621 0.600017 0.928264 0.370093
C18   C     C_3   0.672263 0.648976 0.928711 -0.516131
C19   C     C_3   0.669653 0.653109 0.086832 -0.500222
C20   C     C_R   0.497733 0.737790 0.500191 0.805564
C21   C     C_R   0.737953 0.497143 0.500557 0.794678
C22   C     C_R   0.066534 0.464557 0.620624 0.122429
C23   C     C_R   0.129754 0.481491 0.496393 -0.097309
C24   C     C_R   0.062583 0.479517 0.369545 -0.213513
C25   C     C_R   0.933980 0.480107 0.371062 -0.211213
C26   C     C_R   0.871339 0.483345 0.499331 -0.098048
Cu1   Cu    Cu3+1 0.499990 0.499980 0.640670 0.958224
Cu2   Cu    Cu3+1 0.500010 0.500020 0.359330 0.944232
H1    H     H_    0.108635 0.484463 0.269896 0.167754
H2    H     H_    0.498201 0.115876 0.842002 0.217734
H3    H     H_    0.641944 0.119525 0.735326 0.157189
H4    H     H_    0.402073 0.331124 0.126602 0.143057
H5    H     H_    0.401232 0.331592 0.866772 0.147909
H6    H     H_    0.735235 0.578841 0.888678 0.199323
H7    H     H_    0.681628 0.741098 0.881362 0.223261
H8    H     H_    0.736508 0.589561 0.136048 0.207231
H9    H     H_    0.670428 0.748464 0.130694 0.211201
H10   H     H_    0.884700 0.484331 0.272039 0.158793
H11   H     H_    0.902128 0.626487 0.751688 0.200657
H12   H     H_    0.903657 0.473066 0.844665 0.195874
H13   H     H_    0.121764 0.624613 0.746858 0.211591
H14   H     H_    0.121570 0.472480 0.839656 0.196997
H15   H     H_    0.474944 0.110162 0.271029 0.167459
N1    N     N_R   0.500790 0.500930 0.147930 -0.196951
N2    N     N_R   0.500790 0.500890 0.852020 -0.203395
O1    O     O_R   0.500000 0.319640 0.618810 -0.583595
O2    O     O_R   0.500010 0.319680 0.381230 -0.593492
O3    O     O_R   0.319650 0.499970 0.618810 -0.578333
O4    O     O_R   0.319660 0.500010 0.381230 -0.584984
O5    O     O_R   0.499990 0.680320 0.618770 -0.560016
O6    O     O_R   0.500000 0.680360 0.381190 -0.582091
O7    O     O_R   0.680340 0.499990 0.618770 -0.582321
O8    O     O_R   0.680350 0.500030 0.381190 -0.587082
H16   H     H_    0.646176 0.898061 0.735841 0.041740
H17   H     H_    0.476370 0.885564 0.271937 0.187294
F1    F     F_    0.490489 0.886542 0.865020 -0.669904

loop_
_geom_bond_atom_site_label_1
_geom_bond_atom_site_label_2
_ccdc_geom_bond_type
Cu1   O3    S    
C2    C22   A    
C23   C24   A    
Cu2   O2    S    
C6    C7    A    
C7    H15   S    
C25   H10   S    
C4    C22   S    
Cu2   O4    S    
C9    C20   S    
C5    C13   S    
C14   C17   A    
Cu1   O5    S    
C12   O3    A    
Cu2   O8    S    
C10   C11   S    
Cu1   N2    S    
C12   O4    A    
C3    C4    S    
C3    H11   S    
C7    C8    A    
C2    C26   A    
C24   C25   A    
C21   O8    A    
C11   C13   S    
C12   C23   S    
C11   H16   S    
C4    H14   S    
C8    H17   S    
C14   N1    A    
C21   C26   S    
Cu2   N1    S    
C15   N1    A    
C17   C18   S    
C20   O6    A    
C2    C3    S    
C19   H8    S    
C18   H6    S    
C5    C6    A    
C16   H5    S    
Cu2   O6    S    
C1    O1    A    
C4    H13   S    
C16   N2    A    
C1    C6    S    
C13   H2    S    
C5    C10   A    
Cu1   O7    S    
Cu1   O1    S    
C8    C9    A    
C18   H7    S    
C18   C19   S    
C9    C10   A    
Cu1   Cu2   S    
C24   H1    S    
C1    O2    A    
C20   O5    A    
C19   H9    S    
C25   C26   A    
C22   C23   A    
C14   C19   S    
C13   H3    S    
C21   O7    A    
C11   F1    S    
C15   C16   A    
C17   N2    A    
C3    H12   S    
C15   H4    S    
