data_mof_unit_13049.cif
_audit_creation_date              2012-12-11T15:19:48-0500
_audit_creation_method            fapswitch 2.2
_symmetry_space_group_name_H-M    P1
_symmetry_Int_Tables_number       1
_space_group_crystal_system       triclinic
_cell_length_a                    16.76051
_cell_length_b                    16.769549
_cell_length_c                    42.776798
_cell_angle_alpha                 90.263526
_cell_angle_beta                  90.04214
_cell_angle_gamma                 120.478891
_cell_volume                      10361.5359229

loop_
_atom_site_label
_atom_site_type_symbol
_atom_type_description
_atom_site_fract_x
_atom_site_fract_y
_atom_site_fract_z
_atom_type_partial_charge
C1    C     C_R   0.581568 0.427603 0.793918 0.552968
C2    C     C_R   0.842852 0.416539 0.705731 0.635123
C3    C     C_R   0.572640 0.156159 0.794032 0.613939
C4    C     C_R   0.584307 0.425509 0.705090 0.625517
C5    C     C_R   0.845376 0.418099 0.794142 0.580703
C6    C     C_R   0.573647 0.158828 0.705067 0.628656
C7    C     C_R   0.428591 0.580415 0.293220 0.610601
C8    C     C_R   0.416695 0.843511 0.205779 0.565065
C9    C     C_R   0.159416 0.574535 0.294948 0.592362
C10   C     C_R   0.427896 0.580321 0.206547 0.589165
C11   C     C_R   0.417758 0.845203 0.294328 0.550543
C12   C     C_R   0.155095 0.572392 0.205848 0.566545
C13   C     C_R   0.059436 0.459904 0.128801 0.053029
C14   C     C_R   0.444806 0.005914 0.362740 0.081303
C15   C     C_R   0.547774 0.574978 0.133616 0.092496
C16   C     C_R   0.182418 0.580063 0.381744 0.070876
C17   C     C_R   0.469835 0.019004 0.141290 0.090949
C18   C     C_R   0.501313 0.579619 0.373732 0.106267
C19   C     C_R   0.531967 0.131693 0.617905 0.093798
C20   C     C_R   0.006089 0.438289 0.860456 0.088595
C21   C     C_R   0.582125 0.445673 0.617328 0.101115
C22   C     C_R   0.587791 0.152602 0.880933 0.043501
C23   C     C_R   0.883390 0.432886 0.619094 0.072947
C24   C     C_R   0.577754 0.548721 0.868199 0.033213
C25   C     C_R   0.068078 0.466000 0.161349 0.220265
C26   C     C_R   0.422308 0.963907 0.332728 0.227246
C27   C     C_R   0.537827 0.582882 0.165944 0.191979
C28   C     C_R   0.182613 0.554111 0.350555 0.194139
C29   C     C_R   0.454936 0.979508 0.171511 0.225920
C30   C     C_R   0.518552 0.596955 0.341829 0.245313
C31   C     C_R   0.523795 0.149378 0.649733 0.220984
C32   C     C_R   0.966132 0.423014 0.830368 0.234628
C33   C     C_R   0.615113 0.457585 0.648377 0.220420
C34   C     C_R   0.610453 0.178219 0.849678 0.239409
C35   C     C_R   0.853787 0.395547 0.649210 0.229937
C36   C     C_R   0.591821 0.536106 0.836623 0.246531
C37   C     C_R   0.093426 0.622530 0.160159 -0.026479
C38   C     C_R   0.528223 0.907088 0.340979 -0.049121
C39   C     C_R   0.378115 0.457307 0.163660 -0.018037
C40   C     C_R   0.064350 0.592323 0.337537 -0.028718
C41   C     C_R   0.456770 0.846231 0.149703 -0.028468
C42   C     C_R   0.396523 0.443624 0.328571 -0.061796
C43   C     C_R   0.587320 0.052570 0.665941 -0.057397
C44   C     C_R   0.900846 0.520460 0.843182 -0.058829
C45   C     C_R   0.461928 0.416865 0.668066 -0.045692
C46   C     C_R   0.481881 0.027662 0.832685 -0.052008
C47   C     C_R   0.969379 0.542098 0.673160 -0.066888
C48   C     C_R   0.466386 0.374951 0.839003 -0.061417
C49   C     C_R   0.068637 0.609984 0.128098 0.000715
C50   C     C_R   0.551070 0.948512 0.370827 0.039222
C51   C     C_R   0.391335 0.439978 0.132089 0.050256
C52   C     C_R   0.048112 0.595943 0.370026 0.054552
C53   C     C_R   0.459125 0.878641 0.119381 -0.017956
C54   C     C_R   0.399384 0.416676 0.360163 0.034950
C55   C     C_R   0.586522 0.027204 0.634275 -0.024413
C56   C     C_R   0.939055 0.534079 0.873638 0.034729
C57   C     C_R   0.433051 0.418404 0.636946 0.058779
C58   C     C_R   0.458434 0.002691 0.864499 0.006654
C59   C     C_R   0.009397 0.573786 0.643314 0.038832
C60   C     C_R   0.451930 0.388039 0.870737 0.038805
C61   C     C_R   0.059627 0.532007 0.111841 0.093826
C62   C     C_R   0.506260 0.994390 0.382344 0.117524
C63   C     C_R   0.472639 0.504956 0.116274 0.138688
C64   C     C_R   0.109060 0.591544 0.392186 0.128634
C65   C     C_R   0.470229 0.967165 0.115064 0.123028
C66   C     C_R   0.445119 0.486262 0.383769 0.134387
C67   C     C_R   0.561820 0.068558 0.610415 0.124758
C68   C     C_R   0.988663 0.490200 0.882516 0.123275
C69   C     C_R   0.492441 0.431302 0.611558 0.142816
C70   C     C_R   0.511487 0.065887 0.888414 0.116026
C71   C     C_R   0.966342 0.519568 0.616406 0.119326
C72   C     C_R   0.510944 0.473476 0.885643 0.091296
C73   C     C_R   0.906853 0.457382 0.822384 -0.038494
C74   C     C_R   0.558765 0.116519 0.673470 -0.011588
C75   C     C_R   0.543328 0.446788 0.822798 -0.055276
C76   C     C_R   0.892422 0.451483 0.675928 -0.020804
C77   C     C_R   0.557604 0.116781 0.825560 0.001431
C78   C     C_R   0.553657 0.437038 0.673687 -0.019442
C79   C     C_R   0.458214 0.907569 0.322611 -0.063046
C80   C     C_R   0.100701 0.552672 0.176262 -0.039643
C81   C     C_R   0.449401 0.538642 0.320763 -0.026694
C82   C     C_R   0.448219 0.892834 0.175661 -0.013152
C83   C     C_R   0.130191 0.568380 0.327920 -0.038899
C84   C     C_R   0.448301 0.537505 0.179070 -0.022641
C85   C     C_R   0.109228 0.594314 0.027146 0.006763
C86   C     C_R   0.610165 0.074717 0.461490 0.008455
C87   C     C_R   0.419932 0.506198 0.031035 -0.001111
C88   C     C_R   0.069412 0.652018 0.473253 0.015360
C89   C     C_R   0.556501 0.007332 0.034109 0.017922
C90   C     C_R   0.369332 0.386880 0.465559 0.007050
C91   C     C_R   0.631050 0.073752 0.527299 0.008984
C92   C     C_R   0.094115 0.581286 0.961067 0.014077
C93   C     C_R   0.382678 0.371868 0.531474 -0.009947
C94   C     C_R   0.546006 0.001608 0.968160 -0.020833
C95   C     C_R   0.031859 0.634527 0.538430 -0.000319
C96   C     C_R   0.431797 0.498975 0.964956 0.004328
C97   C     C_R   0.119963 0.594881 0.059930 0.481944
C98   C     C_R   0.596369 0.076928 0.428899 0.492294
C99   C     C_R   0.417535 0.512436 0.063980 0.492956
C100  C     C_R   0.091834 0.659673 0.441076 0.512427
C101  C     C_R   0.559120 0.009649 0.067002 0.479244
C102  C     C_R   0.364796 0.402225 0.433065 0.497683
C103  C     C_R   0.637286 0.084669 0.560166 0.497989
C104  C     C_R   0.083165 0.572725 0.928214 0.494261
C105  C     C_R   0.396547 0.365769 0.563914 0.488770
C106  C     C_R   0.549372 0.012673 0.935476 0.460183
C107  C     C_R   0.006790 0.618783 0.570358 0.498792
C108  C     C_R   0.436682 0.491045 0.932205 0.449043
C109  C     C_R   0.977282 0.450833 0.063978 0.439974
C110  C     C_R   0.436304 0.960374 0.433930 0.487655
C111  C     C_R   0.543843 0.484437 0.069120 0.499412
C112  C     C_R   0.080042 0.511140 0.441927 0.486613
C113  C     C_R   0.420129 0.017130 0.068986 0.509306
C114  C     C_R   0.526453 0.511767 0.433840 0.477956
C115  C     C_R   0.473957 0.978762 0.565309 0.469787
C116  C     C_R   0.962043 0.414220 0.932861 0.496719
C117  C     C_R   0.521945 0.523595 0.564699 0.463249
C118  C     C_R   0.432705 0.055521 0.937529 0.446131
C119  C     C_R   0.047654 0.500854 0.572711 0.495648
C120  C     C_R   0.573403 0.480024 0.937546 0.488520
C121  C     C_R   0.976379 0.437703 0.031430 0.002205
C122  C     C_R   0.443929 0.966282 0.466755 0.001835
C123  C     C_R   0.556021 0.489311 0.036385 0.009370
C124  C     C_R   0.079927 0.511824 0.474779 0.023739
C125  C     C_R   0.425528 0.033589 0.036458 0.020694
C126  C     C_R   0.523239 0.522063 0.466261 0.034350
C127  C     C_R   0.463405 0.969364 0.532537 0.004788
C128  C     C_R   0.969546 0.418965 0.965720 0.014479
C129  C     C_R   0.519053 0.528227 0.531920 0.010593
C130  C     C_R   0.430734 0.050669 0.970512 0.012288
C131  C     C_R   0.067529 0.509930 0.540534 0.017295
C132  C     C_R   0.570602 0.486334 0.970434 0.006094
C133  C     C_R   0.039318 0.512543 0.012769 -0.151658
C134  C     C_R   0.532405 0.019611 0.480530 -0.141975
C135  C     C_R   0.491042 0.496138 0.017215 -0.153778
C136  C     C_R   0.068216 0.579557 0.490359 -0.153365
C137  C     C_R   0.489555 0.020803 0.018770 -0.132175
C138  C     C_R   0.446775 0.453492 0.482454 -0.146985
C139  C     C_R   0.542391 0.020525 0.513469 -0.141409
C140  C     C_R   0.033780 0.504558 0.979824 -0.127590
C141  C     C_R   0.449113 0.451234 0.515385 -0.148530
C142  C     C_R   0.488084 0.023524 0.985758 -0.132837
C143  C     C_R   0.055136 0.574281 0.523100 -0.155800
C144  C     C_R   0.497593 0.493432 0.984183 -0.155980
C145  C     C_R   0.167963 0.671707 0.008411 0.302741
C146  C     C_R   0.699515 0.122772 0.475336 0.291760
C147  C     C_R   0.354300 0.511407 0.011581 0.273181
C148  C     C_R   0.050732 0.715404 0.488971 0.316387
C149  C     C_R   0.615000 0.986436 0.016410 0.281376
C150  C     C_R   0.299820 0.308928 0.481633 0.294075
C151  C     C_R   0.710122 0.118882 0.507802 0.291085
C152  C     C_R   0.161363 0.664968 0.975636 0.262261
C153  C     C_R   0.307427 0.300218 0.514303 0.269357
C154  C     C_R   0.603673 0.975328 0.983845 0.259439
C155  C     C_R   0.031798 0.706568 0.521278 0.300277
C156  C     C_R   0.363156 0.512655 0.978928 0.262974
C157  C     C_R   0.917949 0.350497 0.017478 0.250638
C158  C     C_R   0.365241 0.918813 0.486030 0.273741
C159  C     C_R   0.633250 0.490774 0.022475 0.264754
C160  C     C_R   0.093513 0.448456 0.492378 0.279332
C161  C     C_R   0.367568 0.060030 0.021276 0.258287
C162  C     C_R   0.591692 0.600392 0.482390 0.274380
C163  C     C_R   0.375346 0.914998 0.518373 0.273916
C164  C     C_R   0.913693 0.340815 0.984671 0.249746
C165  C     C_R   0.585215 0.606648 0.515032 0.270663
C166  C     C_R   0.376888 0.076722 0.988711 0.252727
C167  C     C_R   0.096696 0.454479 0.525111 0.280931
C168  C     C_R   0.639414 0.486792 0.989763 0.265665
Cr1   Cr    Cr6+3 0.530290 0.262330 0.750000 1.118447
Cr2   Cr    Cr6+3 0.732040 0.469710 0.750000 1.099781
Cr3   Cr    Cr6+3 0.737670 0.267960 0.750000 1.134402
Cr4   Cr    Cr6+3 0.262330 0.530290 0.250000 1.125428
Cr5   Cr    Cr6+3 0.469710 0.732040 0.250000 1.107973
Cr6   Cr    Cr6+3 0.267960 0.737670 0.250000 1.136485
N1    N     N_R   0.051437 0.526358 0.078019 -0.403209
N2    N     N_R   0.512094 0.015036 0.415493 -0.363940
N3    N     N_R   0.477951 0.499914 0.082494 -0.369749
N4    N     N_R   0.090878 0.586858 0.425508 -0.362384
N5    N     N_R   0.485856 0.003933 0.083653 -0.366887
N6    N     N_R   0.444868 0.463571 0.416946 -0.365862
N7    N     N_R   0.558766 0.040057 0.578315 -0.375343
N8    N     N_R   0.013943 0.491944 0.914982 -0.368882
N9    N     N_R   0.466972 0.440710 0.579845 -0.373794
N10   N     N_R   0.493926 0.039927 0.920866 -0.385140
N11   N     N_R   0.010498 0.549402 0.586322 -0.366797
N12   N     N_R   0.506957 0.482247 0.919151 -0.389599
O1    O     O_R   0.509640 0.171340 0.784000 -0.464426
O2    O     O_R   0.661700 0.490360 0.716000 -0.497005
O3    O     O_R   0.828660 0.338300 0.784000 -0.418517
O4    O     O_R   0.509640 0.171340 0.716000 -0.476931
O5    O     O_R   0.661700 0.490360 0.784000 -0.456718
O6    O     O_R   0.828660 0.338300 0.716000 -0.487925
O7    O     O_R   0.171340 0.509640 0.284000 -0.483684
O8    O     O_R   0.490360 0.661700 0.216000 -0.445499
O9    O     O_R   0.338300 0.828660 0.284000 -0.438961
O10   O     O_R   0.171340 0.509640 0.216000 -0.448570
O11   O     O_R   0.490360 0.661700 0.284000 -0.463620
O12   O     O_R   0.338300 0.828660 0.216000 -0.456844
O13   O     O_R   0.539230 0.345420 0.781810 -0.483837
O14   O     O_R   0.806190 0.460770 0.718190 -0.472578
O15   O     O_R   0.654580 0.193810 0.781810 -0.453774
O16   O     O_R   0.539230 0.345420 0.718190 -0.465802
O17   O     O_R   0.806190 0.460770 0.781810 -0.488006
O18   O     O_R   0.654580 0.193810 0.718190 -0.477126
O19   O     O_R   0.345420 0.539230 0.281810 -0.458909
O20   O     O_R   0.460770 0.806190 0.218190 -0.482711
O21   O     O_R   0.193810 0.654580 0.281810 -0.477899
O22   O     O_R   0.345420 0.539230 0.218190 -0.473023
O23   O     O_R   0.460770 0.806190 0.281810 -0.486886
O24   O     O_R   0.193810 0.654580 0.218190 -0.478931
O25   O     O_3   0.666667 0.333333 0.750000 -0.292771
O26   O     O_3   0.333333 0.666667 0.250000 -0.288014
O27   O     O_2   0.190585 0.655382 0.072424 -0.375921
O28   O     O_2   0.659641 0.131204 0.412189 -0.432342
O29   O     O_2   0.362258 0.529741 0.076333 -0.371371
O30   O     O_2   0.113828 0.731090 0.427018 -0.417857
O31   O     O_2   0.623511 0.011391 0.081056 -0.454393
O32   O     O_2   0.290090 0.363533 0.419696 -0.409335
O33   O     O_2   0.711318 0.137960 0.572591 -0.460249
O34   O     O_2   0.133515 0.637233 0.911239 -0.427329
O35   O     O_2   0.347862 0.293604 0.577816 -0.401555
O36   O     O_2   0.604333 0.001875 0.919894 -0.429837
O37   O     O_2   0.978731 0.664220 0.583770 -0.435933
O38   O     O_2   0.378250 0.491210 0.915144 -0.464949
O39   O     O_2   0.912572 0.395084 0.079923 -0.457404
O40   O     O_2   0.362922 0.904384 0.421607 -0.413201
O41   O     O_2   0.591614 0.466305 0.085849 -0.434571
O42   O     O_2   0.072418 0.444176 0.427738 -0.477213
O43   O     O_2   0.356053 0.012163 0.084162 -0.422232
O44   O     O_2   0.601116 0.547592 0.420510 -0.484576
O45   O     O_2   0.407244 0.935852 0.582421 -0.442477
O46   O     O_2   0.907832 0.341459 0.919960 -0.382896
O47   O     O_2   0.576469 0.591741 0.579852 -0.454411
O48   O     O_2   0.381475 0.075212 0.923541 -0.437856
O49   O     O_2   0.058331 0.446239 0.588424 -0.451284
O50   O     O_2   0.634031 0.471038 0.925094 -0.417621
O51   O     O_3   0.865444 0.253309 0.971143 -0.502854
C169  C     C_3   0.769308 0.213493 0.975703 0.010607
H1    H     H_    0.733258 0.157743 0.958125 0.209486
H2    H     H_    0.745433 0.263563 0.972294 0.109571
H3    H     H_    0.747876 0.180515 0.998935 0.164411
O52   O     O_3   0.296837 0.863735 0.536208 -0.483360
C170  C     C_3   0.279059 0.772088 0.537538 -0.044364
H4    H     H_    0.340424 0.769064 0.545934 0.120008
H5    H     H_    0.255962 0.737224 0.514381 0.127921
H6    H     H_    0.222657 0.733136 0.554540 0.166197
O53   O     O_3   0.718851 0.495316 0.976543 -0.497314
C171  C     C_3   0.721116 0.413252 0.981052 -0.013850
H7    H     H_    0.651367 0.349596 0.979613 0.130806
H8    H     H_    0.754587 0.415574 0.003702 0.153525
H9    H     H_    0.764338 0.408742 0.962301 0.200743
O54   O     O_3   0.126506 0.403952 0.541806 -0.537827
C172  C     C_3   0.223266 0.459845 0.545899 -0.080937
H10   H     H_    0.246961 0.425181 0.562322 0.160680
H11   H     H_    0.243326 0.528475 0.556418 0.139783
H12   H     H_    0.259927 0.469109 0.523341 0.125499
O55   O     O_3   0.333733 0.119489 0.974890 -0.520505
C173  C     C_3   0.387653 0.215611 0.980809 -0.051800
H13   H     H_    0.350365 0.249350 0.971522 0.180077
H14   H     H_    0.455817 0.246102 0.968881 0.149768
H15   H     H_    0.398245 0.232052 0.006236 0.133339
O56   O     O_3   0.647857 0.687475 0.530305 -0.528234
C174  C     C_3   0.611766 0.747356 0.530613 -0.062886
H16   H     H_    0.544075 0.715741 0.542959 0.141208
H17   H     H_    0.604508 0.767731 0.506523 0.123845
H18   H     H_    0.660754 0.811432 0.543484 0.161883
O57   O     O_3   0.276956 0.878577 0.473557 -0.479334
C175  C     C_3   0.253079 0.947941 0.470827 -0.000774
H19   H     H_    0.195443 0.924437 0.453845 0.213484
H20   H     H_    0.310358 0.014622 0.461582 0.076431
H21   H     H_    0.229749 0.959866 0.493787 0.168204
O58   O     O_3   0.867752 0.273392 0.036034 -0.518543
C176  C     C_3   0.919831 0.229514 0.040402 -0.028570
H22   H     H_    0.882442 0.171757 0.057069 0.207247
H23   H     H_    0.989256 0.277586 0.050584 0.138879
H24   H     H_    0.927315 0.199508 0.018135 0.151669
O59   O     O_3   0.653249 0.677648 0.465638 -0.533416
C177  C     C_3   0.741653 0.687950 0.467557 -0.066712
H25   H     H_    0.740602 0.622692 0.461543 0.145725
H26   H     H_    0.772400 0.712866 0.491087 0.127648
H27   H     H_    0.786554 0.740907 0.450320 0.147718
O60   O     O_3   0.312197 0.082129 0.039237 -0.522996
C178  C     C_3   0.219584 0.036028 0.028381 -0.049418
H28   H     H_    0.201033 0.975890 0.012674 0.091241
H29   H     H_    0.205749 0.086003 0.016131 0.162993
H30   H     H_    0.172894 0.009718 0.048883 0.161378
O61   O     O_3   0.115322 0.388178 0.477788 -0.508333
C179  C     C_3   0.035650 0.299190 0.477627 -0.037636
H31   H     H_    0.977146 0.298958 0.465226 0.180108
H32   H     H_    0.014256 0.272291 0.501726 0.136267
H33   H     H_    0.051730 0.251218 0.464943 0.167221
O62   O     O_3   0.705388 0.499451 0.040734 -0.522783
C180  C     C_3   0.771660 0.594414 0.043717 -0.055636
H34   H     H_    0.742136 0.632891 0.055543 0.151890
H35   H     H_    0.801231 0.626098 0.020670 0.144628
H36   H     H_    0.829313 0.601659 0.058361 0.190996
C181  C     C_2   0.852237 0.569980 0.833978 0.642915
O63   O     O_2   0.786689 0.560823 0.849336 -0.453704
O64   O     O_R   0.883769 0.629614 0.808369 -0.635394
H37   H     H_    0.845673 0.660111 0.804558 0.373770
C182  C     C_2   0.616161 0.011131 0.691097 0.594176
O65   O     O_2   0.575124 0.989954 0.716063 -0.474504
O66   O     O_R   0.690262 0.996458 0.686297 -0.676105
H38   H     H_    0.703034 0.968035 0.705116 0.357358
C183  C     C_2   0.402796 0.285160 0.823469 0.644256
O67   O     O_2   0.390217 0.212764 0.834739 -0.488816
O68   O     O_R   0.357485 0.283951 0.795860 -0.641733
H39   H     H_    0.316542 0.219039 0.787309 0.347485
C184  C     C_2   0.009932 0.600868 0.701574 0.596840
O69   O     O_2   0.035530 0.683278 0.700883 -0.446665
O70   O     O_R   0.017329 0.561492 0.729348 -0.711692
H40   H     H_    0.044459 0.608125 0.747098 0.348177
C185  C     C_2   0.431960 0.958504 0.807304 0.584197
O71   O     O_2   0.411605 0.981466 0.782865 -0.463558
O72   O     O_R   0.408595 0.866461 0.811422 -0.640184
H41   H     H_    0.374869 0.825966 0.792685 0.363013
C186  C     C_2   0.398908 0.400180 0.694892 0.594420
O73   O     O_2   0.427957 0.449045 0.718280 -0.501515
O74   O     O_R   0.306932 0.327915 0.693667 -0.647551
H42   H     H_    0.271490 0.323463 0.713408 0.355531
C187  C     C_2   0.564638 0.847753 0.332234 0.670315
O75   O     O_2   0.518819 0.766113 0.338674 -0.445452
O76   O     O_R   0.648769 0.884160 0.316389 -0.642625
H43   H     H_    0.665253 0.835624 0.310747 0.370639
C188  C     C_2   0.107155 0.705961 0.177013 0.631242
O77   O     O_2   0.053481 0.698117 0.197738 -0.496996
O78   O     O_R   0.183035 0.792714 0.169912 -0.608212
H44   H     H_    0.185629 0.844037 0.183292 0.363119
C189  C     C_2   0.351539 0.374590 0.302742 0.586862
O79   O     O_2   0.387819 0.390937 0.276944 -0.494211
O80   O     O_R   0.268490 0.291729 0.307444 -0.657451
H45   H     H_    0.245841 0.251688 0.287924 0.360498
C190  C     C_2   0.478320 0.772754 0.154263 0.576946
O81   O     O_2   0.422710 0.692623 0.147090 -0.474872
O82   O     O_R   0.567897 0.799439 0.163955 -0.657437
H46   H     H_    0.587128 0.754301 0.157089 0.372968
C191  C     C_2   0.008272 0.605280 0.313521 0.617375
O83   O     O_2   0.961417 0.542670 0.295098 -0.517160
O84   O     O_R   0.012242 0.690284 0.311113 -0.602596
H47   H     H_    0.971928 0.690979 0.293559 0.349874
C192  C     C_2   0.297941 0.387292 0.181776 0.622759
O85   O     O_2   0.311317 0.352601 0.204794 -0.478034
O86   O     O_R   0.207976 0.363058 0.173324 -0.569751
H48   H     H_    0.159844 0.313975 0.187505 0.365152
O87   O     O_3   0.227565 0.737569 0.957970 -0.527499
C193  C     C_3   0.200215 0.803287 0.952366 -0.009545
H49   H     H_    0.124047 0.775084 0.954003 0.101851
H50   H     H_    0.221401 0.830296 0.928328 0.223725
H51   H     H_    0.237796 0.862914 0.968553 0.125535
O88   O     O_3   0.798973 0.163542 0.520081 -0.502961
C194  C     C_3   0.823675 0.096583 0.527304 -0.093767
H52   H     H_    0.787394 0.056858 0.548515 0.164284
H53   H     H_    0.899055 0.132669 0.532241 0.138392
H54   H     H_    0.809282 0.047157 0.507706 0.068415
O89   O     O_3   0.301567 0.524488 0.960807 -0.522546
C195  C     C_3   0.338838 0.620143 0.956146 -0.017705
H55   H     H_    0.294575 0.629453 0.939038 0.225749
H56   H     H_    0.409894 0.653749 0.946136 0.105997
H57   H     H_    0.339235 0.655262 0.978322 0.169941
O90   O     O_3   0.023236 0.774737 0.536665 -0.486942
C196  C     C_3   0.931242 0.756158 0.534298 -0.027083
H58   H     H_    0.913477 0.778484 0.556370 0.190076
H59   H     H_    0.878511 0.681501 0.530772 0.112488
H60   H     H_    0.926345 0.798168 0.515294 0.114586
O91   O     O_3   0.655827 0.946244 0.967557 -0.500560
C197  C     C_3   0.598014 0.852025 0.959207 -0.048293
H61   H     H_    0.641494 0.826530 0.948718 0.199103
H62   H     H_    0.545216 0.842480 0.941541 0.176286
H63   H     H_    0.562354 0.807903 0.979765 0.061861
O92   O     O_3   0.245543 0.217576 0.528519 -0.517627
C198  C     C_3   0.165420 0.219744 0.536980 -0.039053
H64   H     H_    0.179365 0.265178 0.557662 0.164093
H65   H     H_    0.111002 0.148893 0.543686 0.148374
H66   H     H_    0.137320 0.241583 0.517390 0.149867
O93   O     O_3   0.777285 0.177748 0.457512 -0.499726
C199  C     C_3   0.812949 0.123636 0.445357 -0.052838
H67   H     H_    0.849176 0.155123 0.423147 0.190426
H68   H     H_    0.759007 0.050706 0.440058 0.128818
H69   H     H_    0.864928 0.124783 0.461636 0.088549
O94   O     O_3   0.233538 0.754948 0.021694 -0.485782
C200  C     C_3   0.188662 0.801991 0.032415 -0.046266
H70   H     H_    0.241724 0.870709 0.041401 0.182710
H71   H     H_    0.140514 0.765166 0.051886 0.188887
H72   H     H_    0.149384 0.812270 0.013504 0.048137
O95   O     O_3   0.225611 0.238724 0.465505 -0.523376
C201  C     C_3   0.250480 0.174283 0.455135 -0.076782
H73   H     H_    0.310505 0.206608 0.438905 0.150790
H74   H     H_    0.191175 0.118201 0.442081 0.144053
H75   H     H_    0.265876 0.141978 0.475138 0.134293
O96   O     O_3   0.687368 0.982732 0.030701 -0.511440
C202  C     C_3   0.665105 0.890007 0.034305 -0.033419
H76   H     H_    0.589385 0.838934 0.034422 0.150395
H77   H     H_    0.693740 0.883894 0.056963 0.178967
H78   H     H_    0.699002 0.871686 0.015631 0.148380
O97   O     O_3   0.050498 0.787112 0.473227 -0.529905
C203  C     C_3   0.965269 0.753345 0.457383 -0.097844
H79   H     H_    0.906173 0.694066 0.469375 0.056627
H80   H     H_    0.969495 0.732329 0.433152 0.197727
H81   H     H_    0.950256 0.810424 0.455829 0.125738
O98   O     O_3   0.282214 0.518512 0.024248 -0.486919
C204  C     C_3   0.202287 0.429643 0.024121 -0.038274
H82   H     H_    0.145266 0.434363 0.035202 0.166046
H83   H     H_    0.213087 0.379705 0.037919 0.146463
H84   H     H_    0.179610 0.403185 0.999920 0.136056
C205  C     C_2   0.925306 0.592630 0.896727 0.647230
O99   O     O_2   0.892470 0.561673 0.922408 -0.487750
O100  O     O_R   0.949819 0.683133 0.888973 -0.619784
H85   H     H_    0.937078 0.715908 0.906540 0.360013
C206  C     C_2   0.607288 0.953915 0.625692 0.661228
O101  O     O_2   0.546549 0.872844 0.627667 -0.402573
O102  O     O_R   0.695193 0.975963 0.615395 -0.640562
H86   H     H_    0.741016 0.044898 0.615896 0.318138
C207  C     C_2   0.376564 0.311657 0.888740 0.658225
O103  O     O_2   0.394281 0.286121 0.913106 -0.517120
O104  O     O_R   0.285504 0.268536 0.877634 -0.626431
H87   H     H_    0.240460 0.217374 0.891918 0.363712
C208  C     C_2   0.098658 0.661325 0.639816 0.652166
O105  O     O_2   0.168802 0.658961 0.633948 -0.466856
O106  O     O_R   0.101836 0.746041 0.642096 -0.602535
H88   H     H_    0.166458 0.800705 0.638772 0.361420
C209  C     C_2   0.376916 0.911968 0.873192 0.673912
O107  O     O_2   0.386038 0.862265 0.891856 -0.420818
O108  O     O_R   0.289237 0.882510 0.860574 -0.608945
H89   H     H_    0.287604 0.931025 0.847005 0.325644
C210  C     C_2   0.344057 0.413938 0.630666 0.638958
O109  O     O_2   0.343930 0.483947 0.622916 -0.488758
O110  O     O_R   0.260988 0.329448 0.632518 -0.613710
H90   H     H_    0.205220 0.335180 0.627085 0.348863
C211  C     C_2   0.613948 0.933850 0.391529 0.634004
O111  O     O_2   0.692084 0.956746 0.382756 -0.460819
O112  O     O_R   0.583098 0.892646 0.420756 -0.709099
H91   H     H_    0.632004 0.886380 0.432615 0.328227
C212  C     C_2   0.050152 0.676630 0.111323 0.619439
O113  O     O_2   0.106542 0.759355 0.112217 -0.403250
O114  O     O_R   0.969011 0.645758 0.093982 -0.702330
H92   H     H_    0.924412 0.576902 0.096175 0.323392
C213  C     C_2   0.362661 0.318361 0.368134 0.642505
O115  O     O_2   0.415678 0.293345 0.377170 -0.483189
O116  O     O_R   0.267423 0.255605 0.366953 -0.615637
H93   H     H_    0.250631 0.191534 0.374172 0.332782
C214  C     C_2   0.446949 0.818676 0.091766 0.652368
O117  O     O_2   0.384740 0.800483 0.073141 -0.374382
O118  O     O_R   0.505644 0.783641 0.086318 -0.633779
H94   H     H_    0.562959 0.813445 0.100001 0.325457
C215  C     C_2   0.964610 0.597199 0.381019 0.617773
O119  O     O_2   0.914592 0.541703 0.400721 -0.500050
O120  O     O_R   0.943505 0.662003 0.369322 -0.633166
H95   H     H_    0.885000 0.655476 0.378746 0.336692
C216  C     C_2   0.323925 0.353766 0.115230 0.625682
O121  O     O_2   0.240790 0.323920 0.117023 -0.407764
O122  O     O_R   0.356550 0.307994 0.096416 -0.667148
H96   H     H_    0.304762 0.251202 0.085682 0.355288
O123  O     O_3   0.056006 0.389644 0.177703 -0.518651
C217  C     C_3   0.975239 0.355436 0.196015 -0.092170
H97   H     H_    0.913651 0.339681 0.181526 0.105587
H98   H     H_    0.984074 0.404509 0.215109 0.141525
H99   H     H_    0.961480 0.289946 0.207051 0.160500
O124  O     O_3   0.361028 0.974328 0.313944 -0.482155
C218  C     C_3   0.412685 0.048130 0.293276 -0.047865
H100  H     H_    0.457690 0.033829 0.277974 0.095910
H101  H     H_    0.454969 0.114443 0.306216 0.127862
H102  H     H_    0.363924 0.056287 0.277942 0.187119
O125  O     O_3   0.613976 0.644562 0.183561 -0.524661
C219  C     C_3   0.637502 0.593769 0.203955 -0.041912
H103  H     H_    0.652696 0.545560 0.190784 0.152583
H104  H     H_    0.582188 0.555123 0.221489 0.115066
H105  H     H_    0.701175 0.642973 0.216948 0.161121
O126  O     O_3   0.234836 0.515089 0.342051 -0.539662
C220  C     C_3   0.178895 0.418711 0.346879 -0.022309
H106  H     H_    0.116014 0.387752 0.331757 0.131599
H107  H     H_    0.158603 0.402176 0.371838 0.188067
H108  H     H_    0.218417 0.384936 0.340664 0.204099
O127  O     O_3   0.447783 0.026218 0.197121 -0.518638
C221  C     C_3   0.535597 0.076727 0.211492 -0.093786
H109  H     H_    0.590033 0.122979 0.194652 0.129978
H110  H     H_    0.555360 0.029615 0.222811 0.107277
H111  H     H_    0.532294 0.121542 0.229969 0.147683
O128  O     O_3   0.598824 0.674221 0.331810 -0.503921
C222  C     C_3   0.655438 0.645129 0.317354 -0.081619
H112  H     H_    0.623232 0.605579 0.295464 0.113465
H113  H     H_    0.671505 0.603342 0.333582 0.146311
H114  H     H_    0.721981 0.707306 0.310919 0.158070
O129  O     O_3   0.490053 0.206970 0.657648 -0.535153
C223  C     C_3   0.392950 0.152138 0.661327 -0.029004
H115  H     H_    0.373702 0.100137 0.680177 0.139300
H116  H     H_    0.357796 0.115616 0.639322 0.164299
H117  H     H_    0.365905 0.198102 0.667860 0.188262
O130  O     O_3   0.982104 0.370418 0.809020 -0.497462
C224  C     C_3   0.058965 0.430610 0.790630 -0.055023
H118  H     H_    0.122817 0.468696 0.805111 0.134449
H119  H     H_    0.046006 0.480203 0.777651 0.139654
H120  H     H_    0.071050 0.388861 0.773139 0.176940
O131  O     O_3   0.705547 0.480157 0.654097 -0.533130
C225  C     C_3   0.761562 0.577716 0.655408 -0.033975
H121  H     H_    0.741339 0.607721 0.674917 0.140269
H122  H     H_    0.759276 0.610762 0.633215 0.171243
H123  H     H_    0.834348 0.596300 0.659403 0.165778
O132  O     O_3   0.684253 0.264867 0.842227 -0.542189
C226  C     C_3   0.661480 0.333608 0.848863 -0.074372
H124  H     H_    0.696634 0.370970 0.870693 0.201560
H125  H     H_    0.585799 0.307178 0.850764 0.106450
H126  H     H_    0.688059 0.384402 0.829723 0.147084
O133  O     O_3   0.783266 0.304772 0.652839 -0.524385
C227  C     C_3   0.822463 0.247715 0.650321 -0.056350
H127  H     H_    0.880073 0.268136 0.667340 0.135537
H128  H     H_    0.847086 0.248021 0.626159 0.158668
H129  H     H_    0.768843 0.175793 0.655757 0.155934
O134  O     O_3   0.657926 0.611162 0.819953 -0.509148
C228  C     C_3   0.612634 0.647520 0.802359 -0.065389
H130  H     H_    0.575257 0.671355 0.817792 0.134370
H131  H     H_    0.564141 0.596284 0.784930 0.144215
H132  H     H_    0.665490 0.708472 0.789275 0.168268
C229  C     C_2   0.059116 0.381268 0.112637 0.703296
O135  O     O_2   0.120901 0.396776 0.094276 -0.439053
O136  O     O_R   0.990325 0.289669 0.118215 -0.620109
H133  H     H_    0.938629 0.284556 0.131855 0.324326
C230  C     C_2   0.400728 0.058414 0.374139 0.643726
O137  O     O_2   0.442105 0.123064 0.392415 -0.480077
O138  O     O_R   0.311355 0.033270 0.364335 -0.604598
H134  H     H_    0.288171 0.072421 0.374449 0.329873
C231  C     C_2   0.635081 0.643856 0.118127 0.626456
O139  O     O_2   0.632371 0.678515 0.093346 -0.539863
O140  O     O_R   0.720455 0.670377 0.132124 -0.632521
H135  H     H_    0.774661 0.717655 0.119321 0.346613
C232  C     C_2   0.257513 0.593474 0.403732 0.668635
O141  O     O_2   0.298568 0.551295 0.399993 -0.436688
O142  O     O_R   0.281999 0.655885 0.428703 -0.657192
H136  H     H_    0.332491 0.658085 0.442376 0.351913
C233  C     C_2   0.486230 0.114344 0.137378 0.648665
O143  O     O_2   0.447362 0.142766 0.154426 -0.422229
O144  O     O_R   0.546771 0.172153 0.114302 -0.660763
H137  H     H_    0.551732 0.234964 0.113867 0.368992
C234  C     C_2   0.538645 0.659831 0.395782 0.714087
O145  O     O_2   0.614572 0.728456 0.391385 -0.409155
O146  O     O_R   0.486098 0.656728 0.421606 -0.674488
H138  H     H_    0.519142 0.713809 0.435362 0.350666
C235  C     C_2   0.510483 0.180300 0.592600 0.668950
O147  O     O_2   0.467169 0.219098 0.598489 -0.439741
O148  O     O_R   0.541413 0.184097 0.562019 -0.671590
H139  H     H_    0.519706 0.216034 0.547088 0.357584
C236  C     C_2   0.064652 0.398208 0.869140 0.642749
O149  O     O_2   0.049377 0.324771 0.857705 -0.407718
O150  O     O_R   0.137629 0.444618 0.890425 -0.654098
H140  H     H_    0.172013 0.410406 0.894516 0.379671
C237  C     C_2   0.640584 0.446821 0.590684 0.665924
O151  O     O_2   0.724988 0.492308 0.592205 -0.481143
O152  O     O_R   0.598695 0.395060 0.563658 -0.678802
H141  H     H_    0.645310 0.401582 0.547279 0.339632
C238  C     C_2   0.645393 0.217635 0.905922 0.588258
O153  O     O_2   0.727501 0.243208 0.907101 -0.382966
O154  O     O_R   0.608672 0.253591 0.927264 -0.724619
H142  H     H_    0.543684 0.238015 0.921572 0.339245
C239  C     C_2   0.824866 0.382451 0.591051 0.675939
O155  O     O_2   0.748614 0.313538 0.594536 -0.411198
O156  O     O_R   0.853106 0.415831 0.560779 -0.686532
H143  H     H_    0.806282 0.375825 0.544222 0.356693
C240  C     C_2   0.636486 0.640637 0.883282 0.660305
O157  O     O_2   0.720589 0.679383 0.881019 -0.350654
O158  O     O_R   0.597543 0.684470 0.899878 -0.688725
H144  H     H_    0.527882 0.652077 0.897548 0.316847

loop_
_geom_bond_atom_site_label_1
_geom_bond_atom_site_label_2
_ccdc_geom_bond_type
C132  C144  A    
C202  H78   S    
O110  H90   S    
C59   C208  S    
C14   C230  S    
C189  O80   S    
C239  O155  D    
O144  H137  S    
C61   N1    S    
C151  O88   S    
C218  H100  S    
C239  O156  S    
C191  O83   D    
C54   C213  S    
C2    C76   S    
C220  H106  S    
C68   N8    S    
O60   C178  S    
C112  O42   D    
C24   C240  S    
C108  N12   Am   
C203  H80   S    
C47   C76   A    
C112  C124  A    
C108  O38   D    
C9    O7    A    
C33   C78   A    
C21   C33   A    
C60   C72   A    
Cr1   O25   S    
C176  H24   S    
C163  O52   S    
C210  O109  D    
C55   C206  S    
O90   C196  S    
C208  O106  S    
C86   C134  A    
C222  H112  S    
O58   C176  S    
C226  H125  S    
C17   C233  S    
C38   C187  S    
C45   C78   A    
C28   O126  S    
C107  O37   D    
C199  H69   S    
C184  O70   S    
C96   C108  A    
C207  O104  S    
C149  C154  A    
C28   C83   A    
C12   O10   A    
C40   C83   A    
C21   C237  S    
C45   C186  S    
C171  H8    S    
C20   C236  S    
C196  H60   S    
C169  H2    S    
C33   O131  S    
O125  C219  S    
C179  H33   S    
C155  O90   S    
Cr1   O1    S    
C9    O21   A    
C91   C103  A    
C228  H131  S    
C161  O60   S    
C58   C70   A    
C182  O65   D    
C157  O58   S    
C195  H57   S    
C7    O11   A    
C201  H74   S    
C4    C78   S    
C34   O132  S    
C162  C165  A    
C149  O96   S    
C15   C27   A    
O89   C195  S    
C45   C57   A    
O132  C226  S    
C122  C158  A    
C14   C26   A    
C11   C79   S    
C9    C83   S    
C119  O49   D    
C26   O124  S    
C175  H20   S    
C114  N6    Am   
C234  O146  S    
C200  H70   S    
Cr4   O10   S    
C201  H75   S    
C3    C77   S    
O108  H89   S    
C131  C143  A    
C227  H127  S    
C112  N4    Am   
C220  H108  S    
C174  H17   S    
C53   C214  S    
C100  O30   D    
C89   C101  A    
C103  N7    Am   
C20   C68   A    
O112  H91   S    
C11   O9    A    
C138  C141  A    
C3    O1    A    
C46   C77   A    
O93   C199  S    
C109  N1    Am   
C110  N2    Am   
C4    O2    A    
C93   C153  A    
C235  O147  D    
C5    O3    A    
C29   C82   A    
C46   C185  S    
O91   C197  S    
C109  C121  A    
C221  H109  S    
C230  O137  D    
C123  C159  A    
C219  H105  S    
C41   C82   A    
C124  C160  A    
C156  O89   S    
O130  C224  S    
Cr3   O6    S    
O88   C194  S    
C19   C235  S    
C85   C97   A    
C92   C104  A    
C47   C59   A    
O82   H46   S    
C238  O154  S    
C187  O75   D    
C115  N7    Am   
C21   C69   A    
Cr5   O8    S    
C111  N3    Am   
C206  O101  D    
C205  O99   D    
C110  C122  A    
C198  H64   S    
O94   C200  S    
C39   C51   A    
C137  C142  A    
C209  O107  D    
C97   N1    Am   
C102  N6    Am   
C8    O12   A    
C194  H52   S    
C90   C150  A    
C100  N4    Am   
C204  H82   S    
C185  O71   D    
C194  H54   S    
C96   C156  A    
C153  O92   S    
C218  H101  S    
C24   C36   A    
Cr4   O19   S    
C85   C145  A    
C39   C84   A    
C136  C143  A    
C120  C132  A    
C172  H10   S    
C114  C126  A    
C185  O72   S    
C14   C62   A    
C128  C164  A    
O55   C173  S    
Cr3   O18   S    
C188  O78   S    
C10   O22   A    
C159  O62   S    
C90   C102  A    
Cr1   O16   S    
O129  C223  S    
C15   C231  S    
C116  N8    Am   
C200  H72   S    
C119  C131  A    
C217  H97   S    
C148  C155  A    
C53   C65   A    
C35   O133  S    
C227  H129  S    
C94   C154  A    
C198  H66   S    
C131  C167  A    
O76   H43   S    
O59   C177  S    
C46   C58   A    
C178  H30   S    
C181  O64   S    
C215  O119  D    
C42   C81   A    
C71   N11   S    
C40   C191  S    
C223  H115  S    
C90   C138  A    
C162  O59   S    
C199  H68   S    
C16   C232  S    
C190  O82   S    
C27   O125  S    
C192  O86   S    
C150  O95   S    
C121  C133  A    
C22   C34   A    
C37   C80   A    
C225  H122  S    
C35   C76   A    
C25   O123  S    
O124  C218  S    
Cr5   O11   S    
C94   C142  A    
C110  O40   D    
C134  C139  A    
C213  O116  S    
C219  H103  S    
C31   C74   A    
C216  O122  S    
C56   C68   A    
Cr2   O5    S    
C150  C153  A    
C167  O54   S    
C123  C135  A    
C229  O136  S    
C179  H32   S    
C180  H34   S    
C36   C75   A    
C31   O129  S    
C231  O140  S    
C193  H50   S    
O150  H140  S    
C157  C164  A    
C117  O47   D    
C170  H6    S    
C217  H99   S    
C195  H56   S    
C233  O143  D    
C60   C207  S    
C224  H119  S    
C197  H63   S    
C41   C53   A    
C158  C163  A    
C69   N9    S    
C70   N10   S    
C7    C81   S    
C41   C190  S    
C103  O33   D    
O136  H133  S    
C164  O51   S    
C204  H84   S    
C24   C72   A    
C193  H51   S    
C20   C32   A    
C43   C55   A    
C202  H77   S    
C58   C209  S    
C158  O57   S    
Cr5   O23   S    
O98   C204  S    
C5    O17   A    
C172  H12   S    
O140  H135  S    
C113  O43   D    
O56   C174  S    
C54   C66   A    
C18   C66   A    
C145  O94   S    
O158  H144  S    
C160  O61   S    
C29   O127  S    
C173  H13   S    
C128  C140  A    
C154  O91   S    
C105  O35   D    
C236  O149  D    
C148  O97   S    
C176  H23   S    
C57   C210  S    
C5    C73   S    
O128  C222  S    
C130  C142  A    
C183  O68   S    
C145  C152  A    
C102  O32   D    
C146  C151  A    
O72   H41   S    
C168  O53   S    
O126  C220  S    
C219  H104  S    
C216  O121  D    
Cr2   O2    S    
C178  H28   S    
C165  O56   S    
O54   C172  S    
C240  O157  D    
C234  O145  D    
C22   C70   A    
C223  H117  S    
C213  O115  D    
O134  C228  S    
C182  O66   S    
C104  N8    Am   
C95   C143  A    
C207  O103  D    
C25   C80   A    
C17   C29   A    
O152  H141  S    
C7    O19   A    
C19   C31   A    
C222  H114  S    
C174  H16   S    
C196  H59   S    
C169  H3    S    
C87   C147  A    
C8    C82   S    
C180  H36   S    
C10   O8    A    
C34   C77   A    
C228  H130  S    
C214  O118  S    
C129  C141  A    
C38   C79   A    
C170  H4    S    
Cr6   O24   S    
C181  O63   D    
C186  O74   S    
C197  H61   S    
C42   C189  S    
C67   N7    S    
C191  O84   S    
C146  O93   S    
C94   C106  A    
O106  H88   S    
C212  O114  S    
C177  H27   S    
C19   C67   A    
Cr1   O13   S    
C89   C149  A    
Cr6   O9    S    
C97   O27   D    
O131  C225  S    
C210  O110  S    
Cr4   O7    S    
C1    O13   A    
C86   C146  A    
C223  H116  S    
C36   O134  S    
C227  H128  S    
O92   C198  S    
C52   C215  S    
C220  H107  S    
C48   C183  S    
C49   C61   A    
C124  C136  A    
C111  C123  A    
O68   H39   S    
C23   C71   A    
C202  H76   S    
C51   C63   A    
C203  H79   S    
C88   C136  A    
C170  H5    S    
C52   C64   A    
C65   N5    S    
C125  C137  A    
C56   C205  S    
C211  O111  D    
C66   N6    S    
O120  H95   S    
O156  H143  S    
C119  N11   Am   
C6    O18   A    
C238  O153  D    
C118  C130  A    
C87   C135  A    
C37   C49   A    
C190  O81   D    
C44   C56   A    
C4    O16   A    
O61   C179  S    
O133  C227  S    
C226  H126  S    
C62   N2    S    
C222  H113  S    
O52   C170  S    
C30   O128  S    
C105  N9    Am   
C8    O20   A    
C147  C156  A    
C106  N10   Am   
Cr2   O17   S    
C88   C100  A    
C95   C107  A    
C91   C139  A    
C1    O5    A    
C89   C137  A    
Cr6   O21   S    
C3    O15   A    
C2    O14   A    
C235  O148  S    
C92   C140  A    
C93   C141  A    
C171  H7    S    
C221  H111  S    
C230  O138  S    
O95   C201  S    
C169  H1    S    
C27   C84   A    
C127  C163  A    
C17   C65   A    
C125  C161  A    
C23   C239  S    
C228  H132  S    
O97   C203  S    
C194  H53   S    
O96   C202  S    
C26   C79   A    
C129  C165  A    
C47   C184  S    
O57   C175  S    
C30   C81   A    
C201  H73   S    
C12   O24   A    
O78   H44   S    
O80   H45   S    
C42   C54   A    
O86   H48   S    
C64   N4    S    
C49   C212  S    
C44   C73   A    
C86   C98   A    
O74   H42   S    
C113  C125  A    
C175  H19   S    
C133  C140  A    
C180  H35   S    
C183  O67   D    
C51   C216  S    
O102  H86   S    
C200  H71   S    
C44   C181  S    
C217  H98   S    
C120  O50   D    
O142  H136  S    
C85   C133  A    
C16   C28   A    
C174  H18   S    
O70   H40   S    
C178  H29   S    
C18   C234  S    
C189  O79   D    
C203  H81   S    
O116  H93   S    
C166  O55   S    
Cr2   O14   S    
C208  O105  D    
C214  O117  D    
C115  C127  A    
O138  H134  S    
C184  O69   D    
C43   C182  S    
C225  H123  S    
O51   C169  S    
Cr6   O26   S    
O62   C180  S    
C99   N3    Am   
C37   C188  S    
C205  O100  S    
C96   C144  A    
C39   C192  S    
C226  H124  S    
C98   N2    Am   
C159  C168  A    
Cr3   O3    S    
C2    O6    A    
C229  O135  D    
C160  C167  A    
C215  O120  S    
C130  C166  A    
C104  O34   D    
C237  O152  S    
C221  H110  S    
C122  C134  A    
Cr2   O25   S    
O84   H47   S    
C187  O76   S    
C92   C152  A    
O146  H138  S    
C18   C30   A    
C6    C74   S    
C206  O102  S    
C231  O139  D    
C115  O45   D    
C161  C166  A    
C171  H9    S    
C93   C105  A    
C152  O87   S    
C43   C74   A    
C209  O108  S    
O66   H38   S    
C121  C157  A    
C48   C75   A    
C13   C25   A    
C186  O73   D    
C127  C139  A    
Cr1   O4    S    
C204  H83   S    
C48   C60   A    
C240  O158  S    
C87   C99   A    
C211  O112  S    
C88   C148  A    
C218  H102  S    
Cr6   O12   S    
C1    C75   S    
C188  O77   D    
Cr4   O22   S    
O154  H142  S    
C172  H11   S    
O64   H37   S    
C109  O39   D    
C98   O28   D    
C198  H65   S    
O127  C221  S    
C40   C52   A    
C22   C238  S    
O122  H96   S    
Cr3   O15   S    
C173  H14   S    
C32   O130  S    
C101  N5    Am   
Cr3   O25   S    
C118  O48   D    
O104  H87   S    
C175  H21   S    
O100  H85   S    
C72   N12   S    
C6    O4    A    
C237  O151  D    
Cr5   O20   S    
C50   C211  S    
C135  C144  A    
C232  O142  S    
C50   C62   A    
C177  H26   S    
C173  H15   S    
O148  H139  S    
C117  C129  A    
C199  H67   S    
C224  H118  S    
C13   C229  S    
C225  H121  S    
C126  C138  A    
C15   C63   A    
C113  N5    Am   
C177  H25   S    
C132  C168  A    
Cr4   O26   S    
C120  N12   Am   
C114  O44   D    
C55   C67   A    
O53   C171  S    
C117  N9    Am   
C147  O98   S    
C38   C50   A    
C118  N10   Am   
C196  H58   S    
C107  N11   Am   
C23   C35   A    
C63   N3    S    
C111  O41   D    
C179  H31   S    
O118  H94   S    
C236  O150  S    
C126  C162  A    
C11   O23   A    
C91   C151  A    
C193  H49   S    
C106  O36   D    
C99   O29   D    
C12   C80   S    
C10   C84   S    
C195  H55   S    
C233  O144  S    
C95   C155  A    
O123  C217  S    
C224  H120  S    
C197  H62   S    
O114  H92   S    
Cr5   O26   S    
C101  O31   D    
C13   C61   A    
C212  O113  D    
C116  C128  A    
C192  O85   D    
C16   C64   A    
C57   C69   A    
O87   C193  S    
C232  O141  D    
C32   C73   A    
C116  O46   D    
C59   C71   A    
C176  H22   S    
