data_mof_unit_51573.cif
_audit_creation_date              2012-12-10T18:33:37-0500
_audit_creation_method            fapswitch 2.2
_symmetry_space_group_name_H-M    P1
_symmetry_Int_Tables_number       1
_space_group_crystal_system       triclinic
_cell_length_a                    10.499816
_cell_length_b                    15.010168
_cell_length_c                    15.476028
_cell_angle_alpha                 82.354474
_cell_angle_beta                  89.791547
_cell_angle_gamma                 104.554487
_cell_volume                      2338.07642678

loop_
_atom_site_label
_atom_site_type_symbol
_atom_type_description
_atom_site_fract_x
_atom_site_fract_y
_atom_site_fract_z
_atom_type_partial_charge
C1    C     C_R   0.478240 0.441903 0.662185 0.858932
C2    C     C_R   0.515174 0.557948 0.337870 0.860960
C3    C     C_R   0.449304 0.472789 0.811187 -0.266373
C4    C     C_R   0.465193 0.525275 0.189428 -0.267746
C5    C     C_R   0.406139 0.445969 0.898173 0.091287
C6    C     C_R   0.438699 0.550542 0.102810 0.091323
C7    C     C_R   0.367167 0.349812 0.930195 0.174988
C8    C     C_R   0.460751 0.646319 0.070886 0.179297
C9    C     C_R   0.410427 0.512813 0.955227 0.069332
C10   C     C_R   0.400624 0.482946 0.045900 0.068809
C11   C     C_R   0.355491 0.386675 0.076370 -0.230251
C12   C     C_R   0.426436 0.608443 0.924891 -0.236271
C13   C     C_R   0.336566 0.321276 0.018831 -0.235570
C14   C     C_R   0.448552 0.673903 0.982429 -0.241817
C15   C     C_R   0.689814 0.840460 0.642282 0.003776
C16   C     C_R   0.310173 0.159614 0.357630 0.005183
C17   C     C_R   0.659007 0.751935 0.617146 -0.038602
C18   C     C_R   0.341618 0.248281 0.382463 -0.035143
C19   C     C_R   0.516429 0.794396 0.509794 -0.074312
C20   C     C_R   0.482879 0.205408 0.490546 -0.073342
C21   C     C_R   0.543054 0.885712 0.530813 -0.038739
C22   C     C_R   0.456889 0.114284 0.469098 -0.038456
C23   C     C_R   0.742634 0.500937 0.500195 0.861103
C24   C     C_R   0.257379 0.499062 0.499805 0.858327
C25   C     C_R   0.631747 0.908139 0.598568 0.154490
C26   C     C_R   0.368486 0.091965 0.401163 0.156512
C27   C     C_R   0.484738 0.954637 0.487224 0.098592
C28   C     C_R   0.515756 0.045501 0.512343 0.098729
C29   C     C_R   0.604967 0.064767 0.579615 -0.252613
C30   C     C_R   0.396790 0.935715 0.419212 -0.252047
C31   C     C_R   0.661489 0.997702 0.621433 -0.202112
C32   C     C_R   0.340414 0.002840 0.377310 -0.199585
C33   C     C_3   0.931971 0.431583 0.560201 -0.177911
C34   C     C_3   0.068102 0.568416 0.439788 -0.178122
C35   C     C_3   0.047177 0.512379 0.579311 -0.173332
C36   C     C_3   0.952895 0.487620 0.420681 -0.173156
C37   C     C_3   0.121631 0.497832 0.499501 0.026875
C38   C     C_3   0.878422 0.502168 0.500490 0.024363
C39   C     C_3   0.009089 0.417002 0.480383 -0.137131
C40   C     C_3   0.990982 0.583000 0.519607 -0.139228
C41   C     C_R   0.445254 0.407405 0.754466 -0.060554
C42   C     C_R   0.503141 0.591433 0.245927 -0.059713
C43   C     C_R   0.362328 0.283688 0.873267 -0.205293
C44   C     C_R   0.497759 0.713158 0.127688 -0.207726
C45   C     C_R   0.400265 0.312412 0.785411 -0.199262
C46   C     C_R   0.517865 0.685733 0.215226 -0.203066
H1    H     H_    0.090248 0.522085 0.643873 0.137577
H2    H     H_    0.909887 0.477894 0.356109 0.137413
H3    H     H_    0.547944 0.229443 0.540706 0.133746
H4    H     H_    0.450340 0.770078 0.460232 0.133812
H5    H     H_    0.299161 0.301980 0.350322 0.128216
H6    H     H_    0.701489 0.698262 0.649295 0.132659
H7    H     H_    0.634351 0.131458 0.602082 0.137261
H8    H     H_    0.368906 0.869406 0.395890 0.136773
H9    H     H_    0.871859 0.376152 0.609331 0.131059
H10   H     H_    0.128266 0.623820 0.390652 0.132561
H11   H     H_    0.020468 0.349400 0.464390 0.143651
H12   H     H_    0.979626 0.650608 0.535598 0.145142
H13   H     H_    0.303372 0.248088 0.044306 0.151013
H14   H     H_    0.461868 0.746653 0.957048 0.144200
H15   H     H_    0.460880 0.453749 0.213297 0.162872
H16   H     H_    0.490756 0.545130 0.787100 0.160840
H17   H     H_    0.545216 0.737949 0.258488 0.157485
H18   H     H_    0.394824 0.260674 0.742069 0.158414
H19   H     H_    0.330581 0.209998 0.896882 0.136623
H20   H     H_    0.512563 0.786466 0.104185 0.135874
H21   H     H_    0.331458 0.360279 0.144402 0.142591
H22   H     H_    0.419482 0.634181 0.856988 0.149025
H23   H     H_    0.729455 0.017022 0.672273 0.165194
H24   H     H_    0.274222 0.984006 0.325434 0.164343
N1    N     N_R   0.574200 0.731700 0.552740 -0.108767
N2    N     N_R   0.425800 0.268300 0.447260 -0.108150
O1    O     O_R   0.462600 0.383110 0.605620 -0.618634
O2    O     O_R   0.537400 0.616890 0.394380 -0.617839
O3    O     O_R   0.510210 0.531900 0.639510 -0.623074
O4    O     O_R   0.489790 0.468100 0.360490 -0.621400
O5    O     O_R   0.662240 0.425610 0.483080 -0.615894
O6    O     O_R   0.337760 0.574390 0.516920 -0.618456
O7    O     O_R   0.709860 0.574400 0.516970 -0.622870
O8    O     O_R   0.290140 0.425600 0.483030 -0.625156
Zn1   Zn    Zn3+2 0.468210 0.400660 0.477370 0.935215
Zn2   Zn    Zn3+2 0.531790 0.599340 0.522630 0.933783
N3    N     N_3   0.778699 0.861547 0.711532 -0.471253
H25   H     H_    0.821457 0.806487 0.730500 0.178948
H26   H     H_    0.722654 0.867301 0.765526 0.179071
N4    N     N_3   0.220783 0.138456 0.288654 -0.476685
H27   H     H_    0.198108 0.198756 0.258172 0.172509
H28   H     H_    0.132732 0.095113 0.317356 0.184905

loop_
_geom_bond_atom_site_label_1
_geom_bond_atom_site_label_2
_ccdc_geom_bond_type
C25   C31   A    
C38   C40   S    
C26   C32   A    
C34   C37   S    
C19   N1    A    
C35   H1    S    
C34   H10   S    
C12   H22   S    
C33   C39   S    
C29   H7    S    
C34   C40   S    
C28   C29   A    
C35   C37   S    
N4    H28   S    
C15   C25   A    
C39   H11   S    
C42   C46   A    
C44   H20   S    
C24   O8    A    
C44   C46   A    
C7    C43   A    
C9    C10   A    
N2    Zn1   S    
C2    O2    A    
N1    Zn2   S    
C21   C27   A    
C22   C28   A    
C27   C30   A    
C16   N4    S    
O2    Zn2   S    
C17   H6    S    
O1    Zn1   S    
C11   H21   S    
C18   H5    S    
C18   N2    A    
C37   C39   S    
C40   H12   S    
C1    O3    A    
C4    C6    A    
C5    C7    A    
N4    H27   S    
C32   H24   S    
C4    H15   S    
C5    C9    A    
C20   H3    S    
C30   H8    S    
O6    Zn2   S    
C31   H23   S    
N3    H25   S    
O5    Zn1   S    
C43   H19   S    
C24   C37   S    
C33   H9    S    
C23   O5    A    
C43   C45   A    
C1    C41   S    
N3    H26   S    
C20   C22   A    
C17   N1    A    
C2    O4    A    
C3    H16   S    
C24   O6    A    
C15   C17   A    
C21   C25   A    
C3    C41   A    
C8    C14   A    
C19   C21   A    
C36   C39   S    
C8    C44   A    
C12   C14   A    
O8    Zn1   S    
C3    C5    A    
C16   C26   A    
O4    Zn1   S    
C6    C10   A    
O7    Zn2   S    
C6    C8    A    
O3    Zn2   S    
C13   H13   S    
C23   C38   S    
C14   H14   S    
C45   H18   S    
C33   C38   S    
C46   H17   S    
C1    O1    A    
C36   C38   S    
C35   C40   S    
C29   C31   A    
C30   C32   A    
C11   C13   A    
C19   H4    S    
C4    C42   A    
C2    C42   S    
C15   N3    S    
C33   C35   S    
C36   H2    S    
C34   C36   S    
C9    C12   A    
C10   C11   A    
C7    C13   A    
C16   C18   A    
C22   C26   A    
C27   C28   A    
C41   C45   A    
C20   N2    A    
C23   O7    A    
