data_mof_unit_38839.cif
_audit_creation_date              2013-03-05T16:07:58-0500
_audit_creation_method            fapswitch 2.2
_symmetry_space_group_name_H-M    P1
_symmetry_Int_Tables_number       1
_space_group_crystal_system       triclinic
_cell_length_a                    6.962374
_cell_length_b                    14.521827
_cell_length_c                    16.024008
_cell_angle_alpha                 90.292663
_cell_angle_beta                  89.981892
_cell_angle_gamma                 89.988311
_cell_volume                      1620.10836352

loop_
_atom_site_label
_atom_site_type_symbol
_atom_site_description
_atom_site_fract_x
_atom_site_fract_y
_atom_site_fract_z
_atom_type_partial_charge
O1    O     O_R   0.494380 0.415640 0.412830 -0.597621
O2    O     O_R   0.823960 0.405540 0.586560 -0.603293
O3    O     O_R   0.994270 0.584360 0.587170 -0.588891
C1    C     C_R   0.655243 0.383527 0.615198 0.936021
O4    O     O_R   0.824090 0.404620 0.413450 -0.605309
O5    O     O_R   0.994400 0.583430 0.412820 -0.564902
C2    C     C_R   0.655351 0.382532 0.384464 0.938345
O6    O     O_R   0.494250 0.416570 0.587180 -0.595606
O7    O     O_3   0.660800 0.558670 0.500000 -0.234099
V1    V     V_3+5 0.935650 0.489120 0.500000 1.172705
O8    O     O_R   0.324110 0.594460 0.413440 -0.587452
C3    C     C_R   0.155064 0.616735 0.384868 0.957658
O9    O     O_R   0.323980 0.595380 0.586550 -0.593601
C4    C     C_R   0.155214 0.617512 0.615571 0.872688
V2    V     V_3+5 0.435660 0.510880 0.500000 1.186184
O10   O     O_3   0.160640 0.441330 0.500000 -0.287712
C5    C     C_3   0.046139 0.644857 0.764305 -0.350920
H1    H     H_    0.898868 0.621064 0.747923 0.158211
H2    H     H_    0.128250 0.583421 0.785300 0.161557
C6    C     C_3   0.033461 0.716111 0.836871 -0.319816
H3    H     H_    0.109524 0.688817 0.892592 0.172029
H4    H     H_    0.879575 0.752618 0.641242 0.169905
H5    H     H_    0.860998 0.857303 0.748200 0.154571
C7    C     C_3   0.027274 0.773463 0.660028 -0.313008
C8    C     C_3   0.348218 0.720491 0.713103 -0.349040
C9    C     C_3   0.144741 0.687433 0.686453 0.080182
H6    H     H_    0.423057 0.752459 0.659101 0.167681
C10   C     C_3   0.123212 0.809545 0.810936 0.094275
C11   C     C_3   0.014608 0.844620 0.732638 -0.378090
C12   C     C_3   0.335802 0.791226 0.785207 -0.330425
H7    H     H_    0.418299 0.764893 0.839619 0.178463
H8    H     H_    0.095659 0.806130 0.604816 0.154984
H9    H     H_    0.076819 0.911385 0.712161 0.138263
C13   C     C_R   0.278935 0.810325 0.234699 0.029754
C14   C     C_R   0.120023 0.813225 0.181612 -0.165154
C15   C     C_R   0.969931 0.751502 0.198007 -0.136153
H10   H     H_    0.850078 0.748060 0.156222 0.172201
C16   C     C_R   0.980909 0.688506 0.264304 -0.031594
C17   C     C_R   0.141562 0.686561 0.317788 -0.209620
C18   C     C_R   0.286348 0.751917 0.303984 0.088499
C19   C     C_3   0.496120 0.735064 0.292757 0.032346
C20   C     C_3   0.482836 0.790157 0.211949 0.021548
H11   H     H_    0.533528 0.660987 0.285614 0.116951
C21   C     C_R   0.501181 0.320206 0.744895 0.152054
C22   C     C_R   0.648087 0.317454 0.685198 -0.203782
C23   C     C_R   0.795690 0.252327 0.697185 -0.171907
H12   H     H_    0.915075 0.248715 0.654079 0.126938
C24   C     C_R   0.783889 0.186763 0.761589 -0.073683
H13   H     H_    0.894731 0.134759 0.766064 0.114489
C25   C     C_R   0.625008 0.184918 0.816299 -0.249975
C26   C     C_R   0.490889 0.256331 0.809191 0.115796
C27   C     C_3   0.276563 0.254777 0.805980 0.192850
C28   C     C_3   0.288226 0.324580 0.735193 -0.597274
H14   H     H_    0.217251 0.186680 0.787238 0.054691
H15   H     H_    0.229910 0.393859 0.750741 0.220851
H16   H     H_    0.240592 0.296262 0.674083 0.180668
C29   C     C_R   0.493749 0.316551 0.256849 0.195777
C30   C     C_R   0.647502 0.316786 0.313321 -0.235317
C31   C     C_R   0.798837 0.254642 0.297632 -0.150222
C32   C     C_R   0.787637 0.190106 0.231787 -0.125177
C33   C     C_R   0.624481 0.185514 0.179760 -0.233518
C34   C     C_R   0.482276 0.252478 0.191918 0.215055
C35   C     C_3   0.271246 0.241012 0.203127 -0.464139
C36   C     C_3   0.283611 0.311197 0.273590 -0.475951
H17   H     H_    0.233626 0.170702 0.224753 0.183650
H18   H     H_    0.188572 0.265998 0.148391 0.231332
H19   H     H_    0.208771 0.376924 0.259449 0.206120
O11   O     O_R   0.771490 0.080820 0.910070 -0.571378
O12   O     O_R   0.441590 0.092730 0.083780 -0.597522
O13   O     O_R   0.271350 0.913900 0.084390 -0.574969
C37   C     C_R   0.610599 0.114865 0.112764 0.957978
O14   O     O_R   0.441780 0.091820 0.910670 -0.603456
O15   O     O_R   0.271540 0.912980 0.910040 -0.594753
C38   C     C_R   0.610870 0.114053 0.882178 0.948544
O16   O     O_R   0.771300 0.081740 0.084420 -0.592767
O17   O     O_3   0.604960 0.938700 0.997240 -0.242371
V3    V     V_3+5 0.330090 0.008230 0.997220 1.213124
O18   O     O_R   0.941820 0.901930 0.910640 -0.600143
C39   C     C_R   0.111072 0.879603 0.881762 0.859896
O19   O     O_R   0.941630 0.902840 0.083750 -0.593394
C40   C     C_R   0.110651 0.879790 0.111702 0.952776
V4    V     V_3+5 0.830090 0.986410 0.997190 1.213305
O20   O     O_3   0.105080 0.055990 0.997200 -0.244888
H20   H     H_    0.404995 0.856657 0.765302 0.144821
H21   H     H_    0.867366 0.638351 0.271351 0.125695
N1    N     N_R   0.606613 0.781992 0.358176 0.239451
O21   O     O_R   0.590440 0.870441 0.370077 -0.418446
O22   O     O_R   0.705515 0.733769 0.411060 -0.388637
N2    N     N_R   0.492703 0.731633 0.136855 0.228743
O23   O     O_R   0.560715 0.765046 0.067795 -0.390346
O24   O     O_R   0.413907 0.650285 0.135470 -0.403744
H22   H     H_    0.574241 0.852858 0.208498 0.123125
N3    N     N_R   0.190363 0.292681 0.882090 0.259605
O25   O     O_R   0.053435 0.247965 0.919312 -0.380618
O26   O     O_R   0.251923 0.369656 0.914419 -0.383026
H23   H     H_    0.921120 0.252459 0.339058 0.139679
H24   H     H_    0.902216 0.140455 0.224378 0.133251
H25   H     H_    0.252387 0.281840 0.336064 0.192817
H26   H     H_    0.880276 0.726093 0.854648 0.167439
H27   H     H_    0.436346 0.660663 0.733406 0.158169

loop_
_geom_bond_atom_site_label_1
_geom_bond_atom_site_label_2
_geom_bond_distance
_ccdc_geom_bond_type
C35   H17   1.111229 S    
N3    O25   1.300046 A    
C19   C20   1.528375 S    
O12   V3    2.003987 S    
C14   C15   1.402519 A    
C13   C20   1.494137 S    
C1    O6    1.300200 A    
C14   C40   1.484815 S    
C29   C34   1.394594 A    
C22   C23   1.410332 A    
C21   C22   1.400629 A    
C19   N1    1.465785 S    
C10   C11   1.553169 S    
O14   V3    2.004630 S    
C13   C18   1.401541 A    
C5    C9    1.554771 S    
H5    C11   1.113194 S    
C15   H10   1.071055 S    
C7    C9    1.553768 S    
C25   C38   1.481268 S    
O5    C3    1.299205 A    
C12   H7    1.113543 S    
N1    O22   1.299568 A    
V3    O20   1.713136 S    
O11   C38   1.298289 A    
V2    O10   2.165018 S    
C11   H9    1.112934 S    
C5    C6    1.555055 S    
C13   C14   1.396606 A    
O12   C37   1.304847 A    
O13   C40   1.300325 A    
C7    C11   1.554637 S    
O8    V2    2.004425 S    
C21   C28   1.492221 S    
O1    V2    2.002687 S    
N2    O24   1.302675 A    
O7    V1    2.163608 S    
C2    C30   1.484271 S    
C33   C37   1.484342 S    
C36   H25   1.111506 S    
C35   H18   1.111643 S    
C31   C32   1.409827 A    
N3    O26   1.302309 A    
O1    C2    1.300403 A    
O9    C4    1.303137 A    
O13   V3    2.003554 S    
C12   H20   1.113485 S    
C19   H11   1.112096 S    
C27   H14   1.111682 S    
C25   C26   1.400464 A    
C1    C22   1.480633 S    
C28   H15   1.111896 S    
C23   C24   1.410080 A    
C16   H21   1.081289 S    
C26   C27   1.493293 S    
C36   H19   1.111732 S    
O17   V3    2.163595 S    
O14   C38   1.303833 A    
C32   H24   1.081294 S    
O17   V4    1.713867 S    
C17   C18   1.402949 A    
O4    C2    1.303001 A    
N1    O21   1.302417 A    
C6    C10   1.552455 S    
C30   C31   1.408868 A    
C32   C33   1.410651 A    
O2    C1    1.301512 A    
C7    H8    1.112907 S    
C34   C35   1.489631 S    
O18   V4    2.003789 S    
C8    H27   1.113529 S    
C5    H1    1.113108 S    
O15   C39   1.298756 A    
C27   N3    1.463942 S    
C4    C9    1.521358 S    
O3    C4    1.301087 A    
C21   C26   1.391676 A    
O19   V4    2.004308 S    
C24   H13   1.082295 S    
O6    V2    2.003320 S    
O9    V2    2.003828 S    
H4    C7    1.113148 S    
C31   H23   1.080303 S    
C15   C16   1.407575 A    
O2    V1    2.004653 S    
C27   C28   1.527243 S    
C29   C36   1.489483 S    
C28   H16   1.110900 S    
C8    C12   1.544441 S    
C23   H12   1.081666 S    
C18   C19   1.491505 S    
O18   C39   1.306080 A    
O19   C40   1.303530 A    
O5    V1    2.003483 S    
O8    C3    1.304293 A    
O16   V4    2.004350 S    
C8    H6    1.113427 S    
C20   N2    1.471207 S    
O11   V4    2.003659 S    
C3    C17   1.484438 S    
C10   C12   1.558806 S    
C8    C9    1.555116 S    
O4    V1    2.004039 S    
O3    V1    2.002840 S    
V1    O10   1.713183 S    
C37   O16   1.298752 A    
C29   C30   1.401923 A    
C16   C17   1.409695 A    
C6    H26   1.113089 S    
C24   C25   1.411585 A    
C5    H2    1.113069 S    
C20   H22   1.112593 S    
O7    V2    1.714398 S    
C33   C34   1.400500 A    
C35   C36   1.519679 S    
C6    H3    1.112920 S    
C10   C39   1.522603 S    
V4    O20   2.165035 S    
O15   V3    2.002952 S    
N2    O23   1.299819 A    
