data_mof_unit_5288.cif
_audit_creation_date              2012-10-26T20:48:43-0400
_audit_creation_method            fapswitch 2.2
_symmetry_space_group_name_H-M    P1
_symmetry_Int_Tables_number       1
_space_group_crystal_system       triclinic
_cell_length_a                    15.266293
_cell_length_b                    13.852828
_cell_length_c                    9.08912
_cell_angle_alpha                 89.658381
_cell_angle_beta                  90.094259
_cell_angle_gamma                 89.994913
_cell_volume                      1922.14241936

loop_
_atom_site_label
_atom_site_type_symbol
_atom_type_description
_atom_site_fract_x
_atom_site_fract_y
_atom_site_fract_z
_atom_type_partial_charge
C1    C     C_R   0.329762 0.500078 0.501369 0.574691
C2    C     C_R   0.532602 0.892826 0.619470 0.218386
C3    C     C_R   0.499970 0.500174 0.220491 0.547959
C4    C     C_R   0.499982 0.499827 0.779508 0.547648
C5    C     C_R   0.494407 0.054606 0.499887 0.063735
C6    C     C_R   0.494290 0.945301 0.501677 0.062983
C7    C     C_1   0.499959 0.500241 0.065484 -0.058128
C8    C     C_1   0.499963 0.499762 0.934513 -0.058053
C9    C     C_R   0.095009 0.587616 0.487019 0.229604
C10   C     C_R   0.905988 0.425151 0.447703 0.248841
C11   C     C_R   0.902032 0.576067 0.582167 0.240427
C12   C     C_R   0.670184 0.500042 0.500487 0.581865
C13   C     C_R   0.095823 0.416911 0.551390 0.249663
C14   C     C_R   0.186444 0.588581 0.497938 0.184843
C15   C     C_R   0.815007 0.417633 0.465812 0.176533
C16   C     C_R   0.812783 0.583288 0.550074 0.199957
C17   C     C_R   0.185995 0.413789 0.525910 0.195932
C18   C     C_R   0.233129 0.500655 0.507050 -0.089330
C19   C     C_R   0.766699 0.500376 0.504584 -0.090304
C20   C     C_R   0.048412 0.502151 0.519920 -0.032467
C21   C     C_R   0.951235 0.500796 0.518159 -0.036346
C22   C     C_3   0.049870 0.693735 0.308860 0.014165
C23   C     C_R   0.465144 0.209937 0.616758 0.032484
C24   C     C_3   0.046783 0.802520 0.285511 -0.365241
C25   C     C_3   0.937434 0.361841 0.221275 0.012681
C26   C     C_3   0.008751 0.424399 0.152414 -0.415927
C27   C     C_3   0.962324 0.610892 0.804445 0.009398
C28   C     C_3   0.988259 0.693580 0.904235 -0.365093
C29   C     C_3   0.040547 0.339055 0.751953 0.002050
C30   C     C_3   0.029132 0.237650 0.814057 -0.366859
C31   C     C_3   0.228306 0.714862 0.638591 0.026348
C32   C     C_3   0.261701 0.818101 0.635513 -0.365494
C33   C     C_3   0.788316 0.273866 0.574003 0.024497
C34   C     C_R   0.462550 0.790229 0.385562 0.034051
C35   C     C_3   0.756100 0.171500 0.551480 -0.374634
C36   C     C_3   0.787836 0.723260 0.430085 0.026256
C37   C     C_3   0.756914 0.826819 0.443827 -0.374658
C38   C     C_3   0.216585 0.282892 0.387572 0.024320
C39   C     C_3   0.255431 0.181972 0.388021 -0.365026
C40   C     C_3   0.332988 0.066714 0.732292 -0.120843
C41   C     C_3   0.326706 0.932389 0.280800 -0.126253
C42   C     C_3   0.651274 0.055520 0.258157 -0.122144
C43   C     C_3   0.655656 0.942558 0.737896 -0.122241
C44   C     C_R   0.531118 0.208831 0.382168 0.024938
C45   C     C_R   0.533510 0.790844 0.616429 0.026063
C46   C     C_R   0.460014 0.108164 0.618657 0.228560
C47   C     C_R   0.457124 0.892005 0.384773 0.230478
C48   C     C_R   0.530206 0.106834 0.379844 0.220078
Cu1   Cu    Cu3+1 0.500000 0.596430 0.500000 0.964222
Cu2   Cu    Cu3+1 0.500000 0.403570 0.500000 0.965278
H1    H     H_    0.439419 0.249880 0.708858 0.161424
H2    H     H_    0.871583 0.390588 0.190414 0.129095
H3    H     H_    0.941811 0.288638 0.172835 0.144074
H4    H     H_    0.074256 0.392462 0.174024 0.138808
H5    H     H_    0.998214 0.429810 0.032003 0.074434
H6    H     H_    0.006510 0.498063 0.198699 0.128801
H7    H     H_    0.019198 0.561115 0.796493 0.100916
H8    H     H_    0.906144 0.572074 0.856329 0.109220
H9    H     H_    0.930389 0.739451 0.928079 0.152347
H10   H     H_    0.014551 0.663695 0.008440 0.063467
H11   H     H_    0.039702 0.738470 0.851483 0.155064
H12   H     H_    0.434823 0.750339 0.294871 0.159298
H13   H     H_    0.979753 0.380842 0.773320 0.097430
H14   H     H_    0.096511 0.373167 0.811557 0.114169
H15   H     H_    0.089387 0.194672 0.794447 0.162145
H16   H     H_    0.017092 0.241147 0.934290 0.079447
H17   H     H_    0.972765 0.201296 0.760604 0.142397
H18   H     H_    0.271440 0.671402 0.712452 0.130248
H19   H     H_    0.160998 0.716327 0.685625 0.151805
H20   H     H_    0.219804 0.862913 0.562156 0.136119
H21   H     H_    0.259827 0.848570 0.748173 0.094327
H22   H     H_    0.330150 0.819983 0.595606 0.165682
H23   H     H_    0.557544 0.247850 0.288984 0.162844
H24   H     H_    0.751751 0.305771 0.667929 0.126064
H25   H     H_    0.859039 0.269060 0.603585 0.161930
H26   H     H_    0.789939 0.138784 0.455949 0.147574
H27   H     H_    0.770590 0.127621 0.651194 0.078570
H28   H     H_    0.684427 0.171596 0.533088 0.157464
H29   H     H_    0.751888 0.689097 0.337187 0.125663
H30   H     H_    0.858944 0.725948 0.402828 0.151242
H31   H     H_    0.791028 0.862209 0.536983 0.150265
H32   H     H_    0.772224 0.867060 0.341022 0.077806
H33   H     H_    0.685187 0.828564 0.461107 0.156347
H34   H     H_    0.561691 0.751489 0.707989 0.164939
H35   H     H_    0.250567 0.326550 0.301547 0.120455
H36   H     H_    0.145964 0.276132 0.357981 0.170270
H37   H     H_    0.221621 0.136459 0.471242 0.138698
H38   H     H_    0.246761 0.148843 0.278023 0.091432
H39   H     H_    0.326356 0.185152 0.413455 0.169151
H40   H     H_    0.307988 0.029622 0.632642 0.088288
H41   H     H_    0.309344 0.142673 0.735278 0.125719
H42   H     H_    0.305361 0.028833 0.829545 0.146573
H43   H     H_    0.303914 0.967695 0.383326 0.089238
H44   H     H_    0.303835 0.856164 0.277088 0.122957
H45   H     H_    0.989303 0.661752 0.262176 0.099817
H46   H     H_    0.296051 0.971148 0.186809 0.142534
H47   H     H_    0.675960 0.019771 0.360010 0.087001
H48   H     H_    0.679884 0.128928 0.245461 0.117519
H49   H     H_    0.673698 0.011829 0.163523 0.150616
H50   H     H_    0.679526 0.977657 0.635159 0.087024
H51   H     H_    0.683603 0.868818 0.750454 0.126149
H52   H     H_    0.679597 0.986258 0.831591 0.147685
H53   H     H_    0.107882 0.665480 0.247974 0.127079
H54   H     H_    0.107033 0.836103 0.330942 0.161424
H55   H     H_    0.042601 0.819423 0.166168 0.079519
H56   H     H_    0.988703 0.833438 0.341579 0.151893
N1    N     N_R   0.500000 0.258690 0.500000 -0.293173
N2    N     N_R   0.500000 0.741310 0.500000 -0.292945
O1    O     O_R   0.371460 0.581430 0.500010 -0.462997
O2    O     O_3   0.950842 0.352857 0.374855 -0.500914
O3    O     O_3   0.940042 0.648429 0.664672 -0.477803
O4    O     O_3   0.054877 0.333281 0.598884 -0.491411
O5    O     O_3   0.229143 0.676691 0.494524 -0.525290
O6    O     O_3   0.774848 0.329342 0.444463 -0.526463
O7    O     O_3   0.772128 0.672019 0.562907 -0.510392
O8    O     O_3   0.227738 0.325140 0.527725 -0.518954
O9    O     O_3   0.425034 0.061478 0.739921 -0.503800
O10   O     O_3   0.418434 0.939037 0.266831 -0.505491
O11   O     O_3   0.559138 0.058855 0.256108 -0.502548
O12   O     O_R   0.628540 0.418570 0.499990 -0.460608
O13   O     O_3   0.563548 0.940512 0.742271 -0.503505
O14   O     O_R   0.628540 0.581430 0.499990 -0.462832
O15   O     O_R   0.371460 0.418570 0.500010 -0.460792
O16   O     O_R   0.500000 0.581420 0.288390 -0.510104
O17   O     O_R   0.500000 0.418580 0.711610 -0.510915
O18   O     O_R   0.500000 0.581420 0.711610 -0.508840
O19   O     O_R   0.500000 0.418580 0.288390 -0.508520
O20   O     O_3   0.052184 0.674025 0.461156 -0.494067

loop_
_geom_bond_atom_site_label_1
_geom_bond_atom_site_label_2
_ccdc_geom_bond_type
C29   H13   S    
C22   H45   S    
C14   C18   A    
C29   O4    S    
C39   H37   S    
C4    C8    S    
C26   H5    S    
C34   C47   A    
C43   H51   S    
C7    C8    T    
C32   H22   S    
C15   C19   A    
Cu1   O18   S    
C33   O6    S    
C4    O17   A    
C38   H36   S    
Cu2   O12   S    
C36   C37   S    
C25   H3    S    
C13   O4    S    
C3    C7    S    
C10   C15   A    
C42   H48   S    
C38   C39   S    
C3    O19   A    
C42   O11   S    
C2    O13   S    
C41   H46   S    
C34   H12   S    
C1    O1    A    
C12   O12   A    
C23   H1    S    
C33   H25   S    
C47   O10   S    
C41   H43   S    
C41   H44   S    
C39   H39   S    
C41   O10   S    
Cu1   N2    S    
C43   O13   S    
C30   H17   S    
C45   N2    A    
C28   H11   S    
C40   O9    S    
C29   H14   S    
C27   O3    S    
C2    C45   A    
C23   C46   A    
C37   H31   S    
C2    C6    A    
C28   H9    S    
C39   H38   S    
C26   H4    S    
C32   H21   S    
C28   H10   S    
C10   C21   A    
C31   H18   S    
C5    C48   A    
C35   H26   S    
C9    O20   S    
C6    C47   A    
C38   H35   S    
C11   O3    S    
C43   H50   S    
C27   H7    S    
C42   H47   S    
C32   H20   S    
C25   C26   S    
Cu1   O16   S    
C11   C21   A    
C22   H53   S    
C46   O9    S    
C24   H54   S    
C9    C14   A    
C1    O15   A    
C29   C30   S    
C38   O8    S    
C11   C16   A    
C9    C20   A    
C22   O20   S    
C31   C32   S    
C23   N1    A    
C17   C18   A    
C1    C18   S    
C15   O6    S    
Cu2   O17   S    
C40   H42   S    
C30   H16   S    
C25   O2    S    
C36   H30   S    
Cu2   N1    S    
C22   C24   S    
C37   H32   S    
C45   H34   S    
C24   H56   S    
C16   O7    S    
C3    O16   A    
Cu1   O1    S    
C44   N1    A    
C13   C20   A    
Cu2   O15   S    
C36   H29   S    
C26   H6    S    
Cu2   O19   S    
C13   C17   A    
C14   O5    S    
C5    C46   A    
C35   H28   S    
C4    O18   A    
C34   N2    A    
C43   H52   S    
C42   H49   S    
C5    C6    S    
C27   H8    S    
C16   C19   A    
Cu1   O14   S    
C12   C19   S    
C33   C35   S    
C35   H27   S    
C10   O2    S    
C40   H41   S    
C44   H23   S    
C25   H2    S    
C30   H15   S    
C33   H24   S    
C31   H19   S    
C12   O14   A    
C20   C21   S    
Cu1   Cu2   S    
C27   C28   S    
C48   O11   S    
C37   H33   S    
C24   H55   S    
C40   H40   S    
C36   O7    S    
C31   O5    S    
C44   C48   A    
C17   O8    S    
