data_mof_unit_63541.cif
_audit_creation_date              2012-12-10T20:10:32-0500
_audit_creation_method            fapswitch 2.2
_symmetry_space_group_name_H-M    P1
_symmetry_Int_Tables_number       1
_space_group_crystal_system       triclinic
_cell_length_a                    19.304323
_cell_length_b                    18.595939
_cell_length_c                    11.546927
_cell_angle_alpha                 89.833556
_cell_angle_beta                  89.634437
_cell_angle_gamma                 89.712535
_cell_volume                      4144.98545

loop_
_atom_site_label
_atom_site_type_symbol
_atom_type_description
_atom_site_fract_x
_atom_site_fract_y
_atom_site_fract_z
_atom_type_partial_charge
C1    C     C_R   0.365863 0.500162 0.499840 1.058347
C2    C     C_R   0.554102 0.196979 0.445495 0.569979
C3    C     C_R   0.453131 0.805254 0.443425 0.567488
C4    C     C_R   0.450087 0.196096 0.559113 0.572824
C5    C     C_R   0.505443 0.841475 0.502929 -0.168700
C6    C     C_R   0.502869 0.157501 0.503035 -0.202532
C7    C     C_R   0.509188 0.961468 0.398358 0.055120
C8    C     C_R   0.504957 0.037536 0.608954 0.053416
C9    C     C_R   0.504770 0.961031 0.609005 0.055139
C10   C     C_R   0.505880 0.037815 0.398210 0.058471
C11   C     C_R   0.504422 0.076358 0.503518 0.221173
C12   C     C_R   0.634179 0.499889 0.500455 1.059972
C13   C     C_R   0.507365 0.922566 0.503675 0.223325
C14   C     C_R   0.500037 0.500085 0.281869 0.899682
C15   C     C_R   0.499960 0.499917 0.718132 0.907708
C16   C     C_1   0.500023 0.500216 0.161453 -0.121864
C17   C     C_1   0.499968 0.499786 0.838548 -0.122315
C18   C     C_1   0.500005 0.500114 0.059311 0.052456
C19   C     C_1   0.499983 0.499891 0.940691 0.052157
C20   C     C_R   0.745554 0.442044 0.551804 0.464063
C21   C     C_R   0.254203 0.556989 0.553078 0.467056
C22   C     C_R   0.254884 0.444111 0.446394 0.466282
C23   C     C_R   0.071839 0.500280 0.501481 -0.272261
C24   C     C_R   0.745694 0.558147 0.453366 0.474690
C25   C     C_R   0.817355 0.441946 0.551716 0.638436
C26   C     C_R   0.182411 0.557078 0.552986 0.638048
C27   C     C_R   0.183115 0.443922 0.447691 0.637730
C28   C     C_R   0.817443 0.558258 0.454731 0.630140
C29   C     C_R   0.853237 0.500008 0.503197 -0.233835
C30   C     C_R   0.146920 0.500429 0.500753 -0.235102
C31   C     C_R   0.709367 0.499879 0.501630 -0.549146
C32   C     C_R   0.290747 0.500483 0.499665 -0.548260
C33   C     C_R   0.964105 0.498443 0.607889 0.592583
C34   C     C_R   0.928319 0.499799 0.502723 -0.271362
C35   C     C_R   0.036038 0.501991 0.396346 0.593483
C36   C     C_R   0.035908 0.498269 0.607252 0.592028
C37   C     C_R   0.964268 0.501310 0.396952 0.591899
C38   C     C_R   0.550506 0.723743 0.561495 0.108425
C39   C     C_R   0.551809 0.272617 0.443224 0.081675
C40   C     C_R   0.451346 0.729738 0.441524 0.067902
C41   C     C_R   0.449502 0.271916 0.558114 0.076935
C42   C     C_R   0.554740 0.799683 0.562088 0.492135
F1    F     F_    0.711669 0.386620 0.603461 -0.577839
F2    F     F_    0.070693 0.505020 0.293711 -0.515752
F3    F     F_    0.070473 0.495488 0.709275 -0.515944
F4    F     F_    0.929743 0.501538 0.294813 -0.516923
F5    F     F_    0.607206 0.832091 0.619455 -0.621440
F6    F     F_    0.607939 0.162269 0.393350 -0.598650
F7    F     F_    0.402244 0.843095 0.389483 -0.601238
F8    F     F_    0.397702 0.160362 0.612883 -0.597281
F9    F     F_    0.287772 0.611116 0.607599 -0.576693
F10   F     F_    0.289101 0.390146 0.390962 -0.576313
F11   F     F_    0.711998 0.614321 0.403118 -0.570269
F12   F     F_    0.851990 0.385091 0.598047 -0.524999
F13   F     F_    0.147399 0.612493 0.603115 -0.525298
F14   F     F_    0.148810 0.388473 0.398057 -0.525170
F15   F     F_    0.852135 0.615282 0.409473 -0.527484
F16   F     F_    0.929408 0.498080 0.710594 -0.516191
H1    H     H_    0.594737 0.697898 0.713891 0.211459
H2    H     H_    0.473068 0.935405 0.239118 0.234751
H3    H     H_    0.551586 0.061541 0.760817 0.205016
H4    H     H_    0.463596 0.062497 0.765966 0.235184
H5    H     H_    0.454378 0.936681 0.758613 0.205300
H6    H     H_    0.542202 0.935507 0.767883 0.232651
H7    H     H_    0.458080 0.060579 0.246403 0.206210
H8    H     H_    0.545982 0.064397 0.240862 0.235304
H9    H     H_    0.648831 0.694841 0.598162 0.262100
H10   H     H_    0.586560 0.349264 0.330350 0.227474
H11   H     H_    0.642818 0.326094 0.439691 0.277144
H12   H     H_    0.415896 0.656287 0.326437 0.223828
H13   H     H_    0.360613 0.676224 0.438687 0.270753
H14   H     H_    0.412729 0.348333 0.668873 0.227049
H15   H     H_    0.357972 0.325118 0.558351 0.273778
H16   H     H_    0.560769 0.938994 0.249095 0.207129
N1    N     N_R   0.500000 0.689440 0.500000 -0.157247
N2    N     N_3   0.502272 0.076791 0.290923 -0.404115
N3    N     N_R   0.500000 0.310560 0.500000 -0.178794
N4    N     N_3   0.598911 0.682288 0.627206 -0.340647
N5    N     N_3   0.606211 0.307715 0.381020 -0.346236
N6    N     N_3   0.396246 0.696888 0.379311 -0.343977
N7    N     N_3   0.393905 0.306520 0.618534 -0.344369
N8    N     N_3   0.515429 0.922763 0.291391 -0.407059
N9    N     N_3   0.506853 0.076422 0.716045 -0.402695
N10   N     N_3   0.500150 0.921839 0.715988 -0.402798
O1    O     O_R   0.398180 0.560840 0.499970 -0.604335
O2    O     O_R   0.601820 0.439160 0.500030 -0.609704
O3    O     O_R   0.601820 0.560840 0.500030 -0.552814
O4    O     O_R   0.398180 0.439160 0.499970 -0.604371
O5    O     O_R   0.500010 0.560810 0.334440 -0.624951
O6    O     O_R   0.499990 0.439190 0.665560 -0.624766
O7    O     O_R   0.499990 0.560810 0.665560 -0.592186
O8    O     O_R   0.500010 0.439190 0.334440 -0.621134
Zn1   Zn    Zn3+2 0.500000 0.581210 0.500000 1.023524
Zn2   Zn    Zn3+2 0.500000 0.418790 0.500000 0.995639

loop_
_geom_bond_atom_site_label_1
_geom_bond_atom_site_label_2
_ccdc_geom_bond_type
C7    C10   A    
H4    N9    S    
C33   F16   S    
C34   C37   A    
O1    Zn1   S    
C5    C42   A    
C26   F13   S    
C3    F7    S    
C28   F15   S    
H7    N2    S    
C22   C32   A    
C39   N3    A    
C28   C29   A    
C35   C37   A    
C38   C42   A    
C41   N3    A    
C20   C25   A    
C8    N9    S    
N3    Zn2   S    
C33   C36   A    
C18   C19   S    
C9    C13   A    
H6    N10   S    
O2    Zn2   S    
H2    N8    S    
C2    C39   A    
C8    C9    A    
C40   N6    S    
C5    C13   S    
H14   N7    S    
H10   N5    S    
C41   N7    S    
C27   C30   A    
C1    O1    A    
C2    C6    A    
H9    N4    S    
C10   N2    S    
H16   N8    S    
H1    N4    S    
H15   N7    S    
H13   N6    S    
C21   C26   A    
O6    Zn2   S    
C38   N1    A    
C25   C29   A    
C21   C32   A    
O4    Zn2   S    
H12   N6    S    
C23   C30   S    
C25   F12   S    
C4    C6    A    
H3    N9    S    
C6    C11   S    
C27   F14   S    
C38   N4    S    
C2    F6    S    
C24   F11   S    
C29   C34   S    
C1    C32   S    
C4    F8    S    
C39   N5    S    
C14   O5    A    
O7    Zn1   S    
H8    N2    S    
O8    Zn2   S    
C33   C34   A    
C36   F3    S    
C35   F2    S    
C14   O8    A    
C3    C40   A    
C26   C30   A    
C23   C35   A    
C22   C27   A    
C12   C31   S    
C14   C16   S    
H11   N5    S    
C21   F9    S    
C20   F1    S    
N1    Zn1   S    
C22   F10   S    
C15   C17   S    
C12   O3    A    
C24   C28   A    
C3    C5    A    
C40   N1    A    
C12   O2    A    
H5    N10   S    
C24   C31   A    
C15   O6    A    
C1    O4    A    
C8    C11   A    
O3    Zn1   S    
C17   C19   T    
C42   F5    S    
O5    Zn1   S    
C10   C11   A    
C9    N10   S    
C15   O7    A    
C7    C13   A    
C7    N8    S    
C16   C18   T    
C23   C36   A    
C4    C41   A    
C37   F4    S    
C20   C31   A    
