data_mof_unit_61033.cif
_audit_creation_date              2012-12-10T18:01:59-0500
_audit_creation_method            fapswitch 2.2
_symmetry_space_group_name_H-M    P1
_symmetry_Int_Tables_number       1
_space_group_crystal_system       triclinic
_cell_length_a                    21.729881
_cell_length_b                    21.72988
_cell_length_c                    47.218812
_cell_angle_alpha                 90.000118
_cell_angle_beta                  90.000116
_cell_angle_gamma                 90.00003
_cell_volume                      22296.1425439

loop_
_atom_site_label
_atom_site_type_symbol
_atom_type_description
_atom_site_fract_x
_atom_site_fract_y
_atom_site_fract_z
_atom_type_partial_charge
C1    C     C_R   0.001077 0.881066 0.999891 0.833868
C2    C     C_R   0.118934 0.001077 0.999891 0.833869
C3    C     C_R   0.998923 0.118934 0.999891 0.833866
C4    C     C_R   0.881066 0.998923 0.999891 0.833866
C5    C     C_R   0.501076 0.381066 0.499891 0.833898
C6    C     C_R   0.618934 0.501077 0.499891 0.833871
C7    C     C_R   0.498923 0.618934 0.499891 0.833865
C8    C     C_R   0.381066 0.498924 0.499891 0.833891
C9    C     C_R   0.685217 0.001616 0.999855 -0.189206
C10   C     C_R   0.998384 0.685217 0.999855 -0.189205
C11   C     C_R   0.314783 0.998384 0.999855 -0.189203
C12   C     C_R   0.001615 0.314783 0.999855 -0.189208
C13   C     C_R   0.185217 0.501616 0.499857 -0.189151
C14   C     C_R   0.498384 0.185217 0.499856 -0.189181
C15   C     C_R   0.814783 0.498385 0.499854 -0.189214
C16   C     C_R   0.501615 0.814782 0.499854 -0.189219
C17   C     C_R   0.718541 0.034208 0.020347 -0.062359
C18   C     C_R   0.965792 0.718541 0.020347 -0.062359
C19   C     C_R   0.281459 0.965794 0.020348 -0.062370
C20   C     C_R   0.034210 0.281459 0.020346 -0.062351
C21   C     C_R   0.218540 0.534178 0.520360 -0.062527
C22   C     C_R   0.465806 0.218540 0.520354 -0.062445
C23   C     C_R   0.781459 0.465787 0.520345 -0.062339
C24   C     C_R   0.534215 0.781459 0.520344 -0.062315
C25   C     C_3   0.716009 0.031036 0.052147 0.223651
C26   C     C_3   0.968965 0.716009 0.052147 0.223653
C27   C     C_3   0.283991 0.968969 0.052148 0.223652
C28   C     C_3   0.031041 0.283992 0.052147 0.223652
C29   C     C_3   0.216011 0.530951 0.552160 0.223648
C30   C     C_3   0.469005 0.216010 0.552154 0.223643
C31   C     C_3   0.783992 0.468951 0.552145 0.223651
C32   C     C_3   0.531055 0.783992 0.552144 0.223652
C33   C     C_3   0.785718 0.025605 0.051845 0.475209
C34   C     C_3   0.974395 0.785718 0.051845 0.475208
C35   C     C_3   0.214282 0.974399 0.051845 0.475211
C36   C     C_3   0.025611 0.214283 0.051844 0.475206
C37   C     C_3   0.285719 0.525514 0.551854 0.475247
C38   C     C_3   0.474438 0.285719 0.551849 0.475225
C39   C     C_3   0.714283 0.474381 0.551843 0.475202
C40   C     C_3   0.525626 0.714283 0.551842 0.475200
C41   C     C_R   0.945961 0.486244 0.100805 -0.243291
C42   C     C_R   0.513757 0.945962 0.100805 -0.243294
C43   C     C_R   0.054039 0.513754 0.100806 -0.243296
C44   C     C_R   0.486244 0.054039 0.100805 -0.243296
C45   C     C_R   0.445962 0.986235 0.600805 -0.243278
C46   C     C_R   0.013749 0.445962 0.600806 -0.243332
C47   C     C_R   0.554039 0.013751 0.600806 -0.243315
C48   C     C_R   0.986224 0.554036 0.600805 -0.243269
C49   C     C_R   0.500000 1.000000 0.945404 0.809340
C50   C     C_R   1.000000 0.500000 0.945404 0.809336
C51   C     C_R   0.000000 0.500000 0.445404 0.809378
C52   C     C_R   0.500000 1.000000 0.445404 0.809350
C53   C     C_R   0.618717 0.000292 0.000821 0.829252
C54   C     C_R   0.999708 0.618717 0.000821 0.829253
C55   C     C_R   0.381283 0.999708 0.000821 0.829252
C56   C     C_R   0.000292 0.381283 0.000821 0.829250
C57   C     C_R   0.118717 0.500292 0.500822 0.829254
C58   C     C_R   0.499708 0.118717 0.500821 0.829251
C59   C     C_R   0.881283 0.499708 0.500820 0.829252
C60   C     C_R   0.500292 0.881283 0.500820 0.829254
C61   C     C_R   0.500000 1.000000 0.054438 0.735706
C62   C     C_R   1.000000 0.500000 0.054438 0.735704
C63   C     C_R   0.999997 0.500000 0.554438 0.735715
C64   C     C_R   0.500000 0.999999 0.554438 0.735707
C65   C     C_R   0.037912 0.460188 0.190229 0.537041
C66   C     C_R   0.539810 0.037914 0.190229 0.537040
C67   C     C_R   0.962089 0.539810 0.190229 0.537040
C68   C     C_R   0.460191 0.962088 0.190229 0.537040
C69   C     C_R   0.537914 0.960183 0.690229 0.537038
C70   C     C_R   0.039790 0.537918 0.690228 0.537045
C71   C     C_R   0.462086 0.039800 0.690228 0.537043
C72   C     C_R   0.960178 0.462084 0.690229 0.537038
C73   C     C_R   0.960954 0.540251 0.219997 -0.014870
C74   C     C_R   0.459750 0.960953 0.219997 -0.014871
C75   C     C_R   0.039047 0.459748 0.219997 -0.014870
C76   C     C_R   0.540250 0.039049 0.219997 -0.014870
C77   C     C_R   0.460950 0.040242 0.719996 -0.014873
C78   C     C_R   0.959740 0.460949 0.719997 -0.014868
C79   C     C_R   0.539049 0.959744 0.719997 -0.014868
C80   C     C_R   0.040233 0.539053 0.719996 -0.014875
C81   C     C_R   0.500000 0.999998 0.854446 0.341653
C82   C     C_R   0.999997 0.500000 0.854446 0.341653
C83   C     C_R   0.000001 0.500000 0.354446 0.341653
C84   C     C_R   0.499999 0.000001 0.354446 0.341653
C85   C     C_R   0.000001 0.499999 0.234937 -0.016975
C86   C     C_R   0.500000 0.000001 0.234937 -0.016975
C87   C     C_R   0.500000 0.999993 0.734937 -0.016974
C88   C     C_R   0.999988 0.500001 0.734937 -0.016974
C89   C     C_R   0.921941 0.580014 0.235126 -0.154911
C90   C     C_R   0.419988 0.921938 0.235126 -0.154910
C91   C     C_R   0.078060 0.419985 0.235126 -0.154911
C92   C     C_R   0.580012 0.078063 0.235126 -0.154910
C93   C     C_R   0.421935 0.080003 0.735126 -0.154909
C94   C     C_R   0.919983 0.421931 0.735127 -0.154911
C95   C     C_R   0.578064 0.919984 0.735127 -0.154911
C96   C     C_R   0.079992 0.578071 0.735125 -0.154909
C97   C     C_R   0.421604 0.079678 0.764701 -0.157843
C98   C     C_R   0.920312 0.421599 0.764702 -0.157844
C99   C     C_R   0.578396 0.920311 0.764702 -0.157845
C100  C     C_R   0.079669 0.578402 0.764701 -0.157843
C101  C     C_R   0.921610 0.579688 0.264701 -0.157845
C102  C     C_R   0.420314 0.921607 0.264701 -0.157845
C103  C     C_R   0.078392 0.420311 0.264702 -0.157843
C104  C     C_R   0.579686 0.078395 0.264702 -0.157844
C105  C     C_R   0.460559 0.039858 0.779831 -0.015038
C106  C     C_R   0.960131 0.460556 0.779832 -0.015037
C107  C     C_R   0.539441 0.960132 0.779832 -0.015037
C108  C     C_R   0.039852 0.539444 0.779831 -0.015037
C109  C     C_R   0.960562 0.539865 0.279831 -0.015037
C110  C     C_R   0.460135 0.960561 0.279831 -0.015037
C111  C     C_R   0.039440 0.460134 0.279831 -0.015039
C112  C     C_R   0.539864 0.039441 0.279831 -0.015038
C113  C     C_R   0.500000 0.999995 0.764891 -0.016484
C114  C     C_R   0.999990 0.500000 0.764891 -0.016484
C115  C     C_R   0.000001 0.500000 0.264891 -0.016484
C116  C     C_R   0.500000 0.000001 0.264891 -0.016484
C117  C     C_R   0.460975 0.038715 0.809600 0.534024
C118  C     C_R   0.961278 0.460972 0.809600 0.534025
C119  C     C_R   0.539025 0.961278 0.809600 0.534024
C120  C     C_R   0.038710 0.539027 0.809599 0.534024
C121  C     C_R   0.960978 0.538721 0.309600 0.534023
C122  C     C_R   0.461280 0.960977 0.309600 0.534024
C123  C     C_R   0.039024 0.461279 0.309600 0.534025
C124  C     C_R   0.538719 0.039025 0.309600 0.534025
C125  C     C_R   0.484980 0.946338 0.869457 -0.102497
C126  C     C_R   0.053658 0.484983 0.869456 -0.102496
C127  C     C_R   0.515019 0.053659 0.869457 -0.102496
C128  C     C_R   0.946336 0.515017 0.869457 -0.102499
C129  C     C_R   0.984978 0.446341 0.369457 -0.102490
C130  C     C_R   0.553659 0.984979 0.369457 -0.102493
C131  C     C_R   0.015024 0.553659 0.369457 -0.102500
C132  C     C_R   0.446340 0.015022 0.369457 -0.102499
C133  C     C_R   0.485289 0.946214 0.899039 -0.226271
C134  C     C_R   0.053784 0.485293 0.899039 -0.226270
C135  C     C_R   0.514710 0.053784 0.899039 -0.226272
C136  C     C_R   0.946213 0.514708 0.899039 -0.226272
C137  C     C_R   0.985286 0.446216 0.399039 -0.226239
C138  C     C_R   0.553784 0.985288 0.399039 -0.226251
C139  C     C_R   0.014714 0.553784 0.399039 -0.226305
C140  C     C_R   0.446215 0.014712 0.399039 -0.226292
C141  C     C_R   0.500000 0.999999 0.914125 -0.058014
C142  C     C_R   0.999999 0.500000 0.914125 -0.058018
C143  C     C_R   0.000000 0.500000 0.414125 -0.058004
C144  C     C_R   0.500000 0.000000 0.414125 -0.058011
C145  C     C_R   0.946066 0.485996 0.130383 -0.097247
C146  C     C_R   0.514004 0.946066 0.130383 -0.097245
C147  C     C_R   0.053935 0.514001 0.130383 -0.097248
C148  C     C_R   0.485997 0.053935 0.130383 -0.097245
C149  C     C_R   0.446067 0.985985 0.630382 -0.097241
C150  C     C_R   0.013993 0.446067 0.630383 -0.097235
C151  C     C_R   0.553934 0.013996 0.630383 -0.097243
C152  C     C_R   0.985973 0.553932 0.630382 -0.097228
C153  C     C_R   0.000000 0.499999 0.085720 -0.065429
C154  C     C_R   0.500000 0.000000 0.085719 -0.065434
C155  C     C_R   0.500000 0.999994 0.585719 -0.065442
C156  C     C_R   0.999989 0.499999 0.585719 -0.065466
C157  C     C_R   0.000000 0.499999 0.145389 0.344907
C158  C     C_R   0.500001 0.000000 0.145389 0.344907
C159  C     C_R   0.500000 0.999991 0.645389 0.344907
C160  C     C_R   0.999982 0.500000 0.645389 0.344910
C161  C     C_R   0.782023 0.031386 0.020474 -0.062634
C162  C     C_R   0.968614 0.782023 0.020474 -0.062632
C163  C     C_R   0.217977 0.968616 0.020475 -0.062628
C164  C     C_R   0.031388 0.217977 0.020473 -0.062636
C165  C     C_R   0.282023 0.531353 0.520486 -0.062555
C166  C     C_R   0.468630 0.282023 0.520480 -0.062566
C167  C     C_R   0.717977 0.468609 0.520472 -0.062631
C168  C     C_R   0.531394 0.717977 0.520471 -0.062656
C169  C     C_R   0.814340 0.000656 0.999340 -0.099488
C170  C     C_R   0.999344 0.814340 0.999340 -0.099488
C171  C     C_R   0.185660 0.999344 0.999340 -0.099489
C172  C     C_R   0.000655 0.185660 0.999340 -0.099487
C173  C     C_R   0.314339 0.500658 0.499340 -0.099510
C174  C     C_R   0.499343 0.314339 0.499340 -0.099507
C175  C     C_R   0.685660 0.499345 0.499340 -0.099487
C176  C     C_R   0.500655 0.685660 0.499340 -0.099479
C177  C     C_R   0.781418 0.975837 0.976384 -0.266064
C178  C     C_R   0.024163 0.781418 0.976384 -0.266065
C179  C     C_R   0.218582 0.024162 0.976384 -0.266064
C180  C     C_R   0.975834 0.218582 0.976384 -0.266064
C181  C     C_R   0.281415 0.475875 0.476377 -0.266060
C182  C     C_R   0.524145 0.281417 0.476380 -0.266064
C183  C     C_R   0.718582 0.524170 0.476385 -0.266067
C184  C     C_R   0.475828 0.718581 0.476386 -0.266070
C185  C     C_R   0.716780 0.976014 0.976544 0.496458
C186  C     C_R   0.023985 0.716780 0.976544 0.496458
C187  C     C_R   0.283220 0.023984 0.976544 0.496460
C188  C     C_R   0.976012 0.283220 0.976544 0.496457
C189  C     C_R   0.216778 0.476052 0.476538 0.496474
C190  C     C_R   0.523968 0.216779 0.476541 0.496467
C191  C     C_R   0.783220 0.523992 0.476545 0.496459
C192  C     C_R   0.476006 0.783219 0.476545 0.496454
Cu1   Cu    Cu3+1 1.000000 1.000000 0.028100 1.111422
Cu2   Cu    Cu3+1 0.500000 0.500000 0.528100 1.111393
Cu3   Cu    Cu3+1 0.000000 1.000000 0.971820 0.959215
Cu4   Cu    Cu3+1 0.500000 0.500000 0.471820 0.959218
Cu5   Cu    Cu3+1 0.500040 0.061910 0.999920 0.987858
Cu6   Cu    Cu3+1 0.938090 0.500040 0.999920 0.987858
Cu7   Cu    Cu3+1 0.499960 0.938090 0.999920 0.987854
Cu8   Cu    Cu3+1 0.061910 0.499960 0.999920 0.987859
Cu9   Cu    Cu3+1 0.000040 0.561910 0.499920 0.987810
Cu10  Cu    Cu3+1 0.438090 0.000040 0.499920 0.987832
Cu11  Cu    Cu3+1 0.999960 0.438090 0.499920 0.987856
Cu12  Cu    Cu3+1 0.561910 0.999960 0.499920 0.987869
H1    H     H_    0.904185 0.474723 0.141672 0.154889
H2    H     H_    0.525279 0.904186 0.141672 0.154889
H3    H     H_    0.095816 0.525274 0.141672 0.154889
H4    H     H_    0.474722 0.095815 0.141672 0.154889
H5    H     H_    0.404186 0.974709 0.641671 0.154888
H6    H     H_    0.025272 0.404188 0.641673 0.154889
H7    H     H_    0.595815 0.025272 0.641672 0.154890
H8    H     H_    0.974693 0.595812 0.641671 0.154886
H9    H     H_    0.390833 0.110844 0.775650 0.191206
H10   H     H_    0.889150 0.390826 0.775652 0.191206
H11   H     H_    0.609167 0.889146 0.775652 0.191206
H12   H     H_    0.110832 0.609175 0.775649 0.191206
H13   H     H_    0.890841 0.610855 0.275651 0.191206
H14   H     H_    0.389148 0.890837 0.275651 0.191206
H15   H     H_    0.109161 0.389144 0.275651 0.191207
H16   H     H_    0.610851 0.109165 0.275651 0.191207
H17   H     H_    0.472873 0.904688 0.858169 0.153676
H18   H     H_    0.095308 0.472878 0.858168 0.153676
H19   H     H_    0.527127 0.095308 0.858168 0.153676
H20   H     H_    0.904686 0.527122 0.858169 0.153675
H21   H     H_    0.972868 0.404692 0.358168 0.153674
H22   H     H_    0.595309 0.972871 0.358168 0.153675
H23   H     H_    0.027134 0.595308 0.358169 0.153677
H24   H     H_    0.404690 0.027130 0.358168 0.153677
H25   H     H_    0.473404 0.904194 0.910087 0.168207
H26   H     H_    0.095806 0.473409 0.910086 0.168209
H27   H     H_    0.526596 0.095805 0.910086 0.168207
H28   H     H_    0.904192 0.526591 0.910087 0.168209
H29   H     H_    0.973398 0.404196 0.410086 0.168201
H30   H     H_    0.595805 0.973402 0.410086 0.168205
H31   H     H_    0.026603 0.595804 0.410087 0.168203
H32   H     H_    0.404195 0.026599 0.410087 0.168206
H33   H     H_    0.805473 0.953827 0.959024 0.175710
H34   H     H_    0.046172 0.805473 0.959024 0.175710
H35   H     H_    0.194527 0.046170 0.959024 0.175711
H36   H     H_    0.953823 0.194526 0.959025 0.175709
H37   H     H_    0.305469 0.453892 0.459010 0.175724
H38   H     H_    0.546142 0.305471 0.459018 0.175718
H39   H     H_    0.694526 0.546184 0.459027 0.175708
H40   H     H_    0.453812 0.694526 0.459028 0.175705
H41   H     H_    0.692506 0.989163 0.060616 0.114340
H42   H     H_    0.010838 0.692506 0.060616 0.114339
H43   H     H_    0.307495 0.010842 0.060616 0.114343
H44   H     H_    0.989170 0.307495 0.060617 0.114338
H45   H     H_    0.192504 0.489069 0.560616 0.114387
H46   H     H_    0.510882 0.192505 0.560616 0.114365
H47   H     H_    0.807495 0.510821 0.560616 0.114333
H48   H     H_    0.489184 0.807495 0.560616 0.114326
H49   H     H_    0.810899 0.064234 0.062057 0.137605
H50   H     H_    0.935766 0.810899 0.062057 0.137606
H51   H     H_    0.189101 0.935772 0.062059 0.137606
H52   H     H_    0.064241 0.189102 0.062056 0.137608
H53   H     H_    0.310905 0.564122 0.562082 0.137594
H54   H     H_    0.435820 0.310902 0.562069 0.137628
H55   H     H_    0.689102 0.435749 0.562054 0.137620
H56   H     H_    0.564260 0.689103 0.562052 0.137602
H57   H     H_    0.903698 0.475244 0.089761 0.170826
H58   H     H_    0.524758 0.903699 0.089761 0.170827
H59   H     H_    0.096302 0.524754 0.089762 0.170826
H60   H     H_    0.475243 0.096302 0.089761 0.170827
H61   H     H_    0.403700 0.975233 0.589761 0.170826
H62   H     H_    0.024757 0.403701 0.589762 0.170831
H63   H     H_    0.596301 0.024754 0.589762 0.170828
H64   H     H_    0.975219 0.596298 0.589761 0.170829
H65   H     H_    0.891414 0.611417 0.224177 0.192488
H66   H     H_    0.388586 0.891410 0.224177 0.192488
H67   H     H_    0.108587 0.388581 0.224177 0.192488
H68   H     H_    0.611414 0.108591 0.224177 0.192488
H69   H     H_    0.391406 0.111404 0.724176 0.192489
H70   H     H_    0.888583 0.391400 0.724178 0.192488
H71   H     H_    0.608593 0.888582 0.724178 0.192488
H72   H     H_    0.111390 0.608602 0.724175 0.192489
N1    N     N_R   0.000000 0.499999 0.175924 -0.467342
N2    N     N_R   0.500000 0.000001 0.175924 -0.467342
N3    N     N_R   0.500000 0.999991 0.675924 -0.467343
N4    N     N_R   0.999983 0.500001 0.675924 -0.467345
N5    N     N_R   0.500000 0.999997 0.823907 -0.466535
N6    N     N_R   0.999995 0.499999 0.823907 -0.466535
N7    N     N_R   0.000001 0.500000 0.323907 -0.466535
N8    N     N_R   0.499999 0.000001 0.323907 -0.466535
O1    O     O_R   0.000030 0.909910 0.023730 -0.542386
O2    O     O_R   0.090090 0.000030 0.023730 -0.542390
O3    O     O_R   0.999970 0.090090 0.023730 -0.542384
O4    O     O_R   0.909910 0.999970 0.023730 -0.542387
O5    O     O_R   0.500030 0.409910 0.523730 -0.542402
O6    O     O_R   0.590090 0.500030 0.523730 -0.542377
O7    O     O_R   0.499970 0.590090 0.523730 -0.542378
O8    O     O_R   0.409910 0.499970 0.523730 -0.542437
O9    O     O_R   0.000060 0.909970 0.976200 -0.605972
O10   O     O_R   0.090030 0.000060 0.976200 -0.605971
O11   O     O_R   0.999940 0.090030 0.976200 -0.605971
O12   O     O_R   0.909970 0.999940 0.976200 -0.605972
O13   O     O_R   0.500060 0.409970 0.476200 -0.605968
O14   O     O_R   0.590030 0.500060 0.476200 -0.605969
O15   O     O_R   0.499940 0.590030 0.476200 -0.605974
O16   O     O_R   0.409970 0.499940 0.476200 -0.605973
O17   O     O_R   0.500060 0.052300 0.958860 -0.575455
O18   O     O_R   0.947700 0.500060 0.958860 -0.575457
O19   O     O_R   0.499940 0.947700 0.958860 -0.575455
O20   O     O_R   0.052300 0.499940 0.958860 -0.575455
O21   O     O_R   0.000060 0.552300 0.458860 -0.575459
O22   O     O_R   0.447700 0.000060 0.458860 -0.575458
O23   O     O_R   0.999940 0.447700 0.458860 -0.575446
O24   O     O_R   0.552300 0.999940 0.458860 -0.575450
O25   O     O_R   0.590210 0.052300 0.999920 -0.592975
O26   O     O_R   0.947700 0.590210 0.999920 -0.592975
O27   O     O_R   0.409790 0.947700 0.999920 -0.592980
O28   O     O_R   0.052300 0.409790 0.999920 -0.592972
O29   O     O_R   0.090210 0.552300 0.499920 -0.593042
O30   O     O_R   0.447700 0.090210 0.499920 -0.593009
O31   O     O_R   0.909790 0.447700 0.499920 -0.592970
O32   O     O_R   0.552300 0.909790 0.499920 -0.592958
O33   O     O_R   0.590210 0.947930 0.999950 -0.543687
O34   O     O_R   0.052070 0.590210 0.999950 -0.543688
O35   O     O_R   0.409790 0.052070 0.999950 -0.543688
O36   O     O_R   0.947930 0.409790 0.999950 -0.543686
O37   O     O_R   0.090210 0.447930 0.499950 -0.543700
O38   O     O_R   0.552070 0.090210 0.499950 -0.543692
O39   O     O_R   0.909790 0.552070 0.499950 -0.543683
O40   O     O_R   0.447930 0.909790 0.499950 -0.543686
O41   O     O_R   0.500010 0.052300 0.040980 -0.601541
O42   O     O_R   0.947700 0.500010 0.040980 -0.601541
O43   O     O_R   0.499990 0.947700 0.040980 -0.601543
O44   O     O_R   0.052300 0.499990 0.040980 -0.601542
O45   O     O_R   0.000010 0.552300 0.540980 -0.601553
O46   O     O_R   0.447700 0.000010 0.540980 -0.601549
O47   O     O_R   0.999990 0.447700 0.540980 -0.601541
O48   O     O_R   0.552300 0.999990 0.540980 -0.601537
O49   O     O_2   0.073981 0.420696 0.175708 -0.535509
O50   O     O_2   0.579301 0.073984 0.175708 -0.535508
O51   O     O_2   0.926019 0.579302 0.175708 -0.535508
O52   O     O_2   0.420700 0.926017 0.175708 -0.535506
O53   O     O_2   0.573986 0.920693 0.675709 -0.535515
O54   O     O_2   0.079276 0.573993 0.675707 -0.535484
O55   O     O_2   0.426014 0.079289 0.675707 -0.535494
O56   O     O_2   0.920690 0.426010 0.675709 -0.535509
O57   O     O_2   0.422226 0.075585 0.824117 -0.538543
O58   O     O_2   0.924412 0.422220 0.824118 -0.538545
O59   O     O_2   0.577775 0.924409 0.824118 -0.538543
O60   O     O_2   0.075578 0.577779 0.824116 -0.538544
O61   O     O_2   0.922231 0.575593 0.324117 -0.538544
O62   O     O_2   0.424409 0.922229 0.324117 -0.538547
O63   O     O_2   0.077771 0.424407 0.324118 -0.538534
O64   O     O_2   0.575590 0.077773 0.324118 -0.538539
O65   O     O_3   0.684930 0.946797 0.955073 -0.562893
C193  C     C_3   0.674990 0.989534 0.933087 -0.288079
H73   H     H_    0.647404 0.029598 0.940512 0.146104
H74   H     H_    0.648364 0.966609 0.916037 0.208263
H75   H     H_    0.719297 0.005392 0.923772 0.163224
O66   O     O_3   0.053202 0.684931 0.955073 -0.562894
C194  C     C_3   0.010466 0.674990 0.933087 -0.288075
H76   H     H_    0.970402 0.647404 0.940512 0.146104
H77   H     H_    0.033390 0.648364 0.916037 0.208262
H78   H     H_    0.994607 0.719298 0.923772 0.163223
O67   O     O_3   0.315069 0.053199 0.955072 -0.562894
C195  C     C_3   0.325009 0.010462 0.933087 -0.288080
H79   H     H_    0.352595 0.970398 0.940513 0.146105
H80   H     H_    0.351635 0.033385 0.916037 0.208262
H81   H     H_    0.280702 0.994603 0.923772 0.163224
O68   O     O_3   0.946793 0.315069 0.955074 -0.562893
C196  C     C_3   0.989527 0.325010 0.933087 -0.288070
H82   H     H_    0.029591 0.352596 0.940512 0.146101
H83   H     H_    0.966601 0.351636 0.916038 0.208262
H84   H     H_    0.005385 0.280702 0.923772 0.163223
O69   O     O_3   0.184927 0.446866 0.455058 -0.562903
C197  C     C_3   0.174992 0.489631 0.433083 -0.288140
H85   H     H_    0.147408 0.529688 0.440520 0.146140
H86   H     H_    0.148365 0.466731 0.416027 0.208264
H87   H     H_    0.219301 0.505498 0.423774 0.163228
O70   O     O_3   0.553170 0.184929 0.455066 -0.562897
C198  C     C_3   0.510420 0.174991 0.433085 -0.288100
H88   H     H_    0.470360 0.147406 0.440516 0.146121
H89   H     H_    0.533334 0.148364 0.416033 0.208262
H90   H     H_    0.494558 0.219299 0.423773 0.163226
O71   O     O_3   0.815068 0.553214 0.455076 -0.562891
C199  C     C_3   0.825010 0.510482 0.433087 -0.288070
H91   H     H_    0.852596 0.470417 0.440511 0.146094
H92   H     H_    0.851636 0.533411 0.416039 0.208260
H93   H     H_    0.780703 0.494625 0.423772 0.163224
O72   O     O_3   0.446782 0.815068 0.455076 -0.562893
C200  C     C_3   0.489511 0.825010 0.433087 -0.288067
H94   H     H_    0.529577 0.852597 0.440511 0.146094
H95   H     H_    0.466581 0.851636 0.416040 0.208261
H96   H     H_    0.505368 0.780703 0.423772 0.163222
O73   O     O_3   0.698905 0.088095 0.064230 -0.572816
C201  C     C_3   0.637240 0.085850 0.073101 -0.235389
H97   H     H_    0.630171 0.049903 0.089569 0.169756
H98   H     H_    0.606610 0.078250 0.054738 0.179838
H99   H     H_    0.624878 0.130863 0.082601 0.203162
O74   O     O_3   0.911906 0.698904 0.064230 -0.572816
C202  C     C_3   0.914151 0.637239 0.073101 -0.235388
H100  H     H_    0.950100 0.630170 0.089568 0.169751
H101  H     H_    0.921749 0.606609 0.054738 0.179841
H102  H     H_    0.869140 0.624879 0.082602 0.203162
O75   O     O_3   0.301095 0.911910 0.064232 -0.572816
C203  C     C_3   0.362762 0.914152 0.073099 -0.235392
H103  H     H_    0.369838 0.950104 0.089565 0.169748
H104  H     H_    0.393389 0.921745 0.054735 0.179847
H105  H     H_    0.375122 0.869142 0.082602 0.203164
O76   O     O_3   0.088102 0.301096 0.064228 -0.572816
C204  C     C_3   0.085857 0.362760 0.073100 -0.235393
H106  H     H_    0.049913 0.369825 0.089570 0.169760
H107  H     H_    0.078251 0.393392 0.054739 0.179837
H108  H     H_    0.130871 0.375122 0.082599 0.203160
O77   O     O_3   0.198917 0.587990 0.564266 -0.572820
C205  C     C_3   0.137222 0.585773 0.573094 -0.235380
H109  H     H_    0.130063 0.549766 0.589526 0.169667
H110  H     H_    0.106641 0.578286 0.554704 0.179914
H111  H     H_    0.124880 0.630758 0.582627 0.203186
O78   O     O_3   0.411955 0.198911 0.564247 -0.572807
C206  C     C_3   0.414185 0.137230 0.573096 -0.235381
H112  H     H_    0.450163 0.130115 0.589546 0.169710
H113  H     H_    0.421729 0.106626 0.554719 0.179878
H114  H     H_    0.369186 0.124879 0.582612 0.203174
O79   O     O_3   0.801097 0.411888 0.564224 -0.572814
C207  C     C_3   0.862759 0.414133 0.573100 -0.235383
H115  H     H_    0.869818 0.450074 0.589572 0.169764
H116  H     H_    0.893394 0.421745 0.554740 0.179837
H117  H     H_    0.875120 0.369118 0.582597 0.203159
O80   O     O_3   0.588119 0.801099 0.564221 -0.572820
C208  C     C_3   0.585868 0.862756 0.573103 -0.235383
H118  H     H_    0.549933 0.869803 0.589579 0.169772
H119  H     H_    0.578242 0.893399 0.554747 0.179821
H120  H     H_    0.630885 0.875120 0.582597 0.203157
F1    F     F_    0.805488 0.967781 0.060212 -0.647758
F2    F     F_    0.032220 0.805488 0.060212 -0.647758
F3    F     F_    0.194513 0.032225 0.060211 -0.647760
F4    F     F_    0.967787 0.194513 0.060213 -0.647756
F5    F     F_    0.305484 0.467672 0.560198 -0.647784
F6    F     F_    0.532272 0.305486 0.560205 -0.647774
F7    F     F_    0.694513 0.532203 0.560214 -0.647757
F8    F     F_    0.467805 0.694511 0.560215 -0.647750

loop_
_geom_bond_atom_site_label_1
_geom_bond_atom_site_label_2
_ccdc_geom_bond_type
Cu3   O12   S    
Cu2   Cu4   S    
C208  H118  S    
C108  C120  A    
Cu10  O22   S    
C128  H20   S    
C79   C87   A    
Cu6   O18   S    
C52   C144  S    
C170  C178  A    
C175  C183  A    
C207  H115  S    
C37   H53   S    
C112  C124  A    
C95   C99   A    
C68   N2    A    
C69   N3    A    
C70   N4    A    
C30   C38   S    
C5    C174  S    
Cu8   O34   S    
Cu5   Cu7   S    
C107  C113  A    
C51   O21   A    
Cu1   O2    S    
C26   O74   S    
Cu2   O7    S    
C39   F7    S    
C52   O24   A    
C53   O25   A    
C37   F5    S    
C2    C171  S    
C97   C105  A    
C45   H61   S    
C98   H10   S    
C106  C118  A    
C90   H66   S    
C63   O47   A    
C138  H30   S    
C58   O38   A    
C166  C174  A    
C69   O53   S    
Cu12  O32   S    
Cu7   O27   S    
C81   N5    S    
C60   O40   A    
C45   C149  A    
C201  H98   S    
C20   C28   S    
C27   C35   S    
C21   C29   S    
C35   C163  S    
C23   C31   S    
C68   O52   S    
C33   C161  S    
C24   C32   S    
C94   H70   S    
C27   H43   S    
C120  O60   S    
C145  C157  A    
C194  H76   S    
C66   C76   A    
C12   C20   A    
C31   H47   S    
C150  C160  A    
C23   C167  A    
Cu11  O37   S    
Cu3   O10   S    
C139  H31   S    
O73   C201  S    
C208  H120  S    
C204  H108  S    
C130  C138  A    
C110  C116  A    
C177  H33   S    
C47   H63   S    
C176  C184  A    
C15   C191  A    
C100  H12   S    
C89   C101  A    
Cu6   O26   S    
C207  H117  S    
C91   C103  A    
C133  H25   S    
C198  H88   S    
Cu12  O48   S    
C36   F4    S    
C51   C143  S    
C33   F1    S    
C98   C106  A    
C54   O34   A    
C44   C154  A    
C74   C90   A    
Cu9   O39   S    
C17   C25   S    
C80   C88   A    
C196  H82   S    
C109  C121  A    
C10   C18   A    
Cu1   O4    S    
C84   C130  A    
Cu4   O15   S    
C207  H116  S    
C193  H73   S    
C66   O50   S    
C87   C113  A    
C190  O70   S    
O74   C202  S    
C92   C104  A    
C21   C165  A    
C157  N1    S    
C178  C186  A    
C129  C137  A    
C130  H22   S    
C118  O58   S    
O67   C195  S    
C180  H36   S    
Cu6   Cu8   S    
C63   O45   A    
O77   C205  S    
C204  H106  S    
C121  O61   S    
C26   H42   S    
C29   H45   S    
C199  H91   S    
C200  H95   S    
O65   C193  S    
C159  N3    S    
O79   C207  S    
C160  N4    S    
C174  C182  A    
C145  H1    S    
C197  H85   S    
C40   H56   S    
Cu2   O8    S    
C60   O32   A    
C150  H6    S    
C103  C111  A    
C42   C154  A    
C78   C94   A    
C83   C129  A    
C13   C57   S    
C68   C74   A    
O75   C203  S    
O68   C196  S    
C16   C60   S    
C61   O41   A    
O70   C198  S    
C90   C102  A    
C72   C78   A    
C139  C143  A    
C8    O16   A    
C57   O37   A    
C136  C142  A    
C206  H113  S    
C56   O28   A    
C185  O65   S    
C186  O66   S    
C75   C91   A    
C161  C169  A    
C35   H51   S    
Cu9   Cu11  S    
C171  C179  A    
C183  H39   S    
C38   H54   S    
C169  C177  A    
C195  H79   S    
C181  H37   S    
C41   C153  A    
C124  N8    A    
C100  C108  A    
C83   N7    S    
O76   C204  S    
C50   O20   A    
C196  H84   S    
C104  C112  A    
C64   O46   A    
C37   C165  S    
C84   C132  A    
C71   N3    A    
C72   N4    A    
C151  C159  A    
C93   H69   S    
C38   F6    S    
Cu4   O13   S    
C188  O68   S    
C73   C85   A    
C7    C176  S    
C184  H40   S    
C19   C163  A    
C82   C128  A    
C205  H109  S    
C17   C161  A    
C199  H93   S    
O80   C208  S    
C194  H77   S    
C96   H72   S    
C69   C79   A    
C67   N1    A    
C82   N6    S    
C93   C97   A    
C71   C77   A    
Cu2   O6    S    
C167  C175  A    
C198  H90   S    
Cu3   O11   S    
C168  C176  A    
C164  C172  A    
C22   C30   S    
C81   C125  A    
C203  H103  S    
C34   C162  S    
C27   O75   S    
C124  O64   S    
C146  C158  A    
C125  H17   S    
C46   C156  A    
C62   C153  S    
C1    O9    A    
C34   H50   S    
C14   C22   A    
C49   O17   A    
C3    O11   A    
C138  C144  A    
Cu5   O41   S    
C172  C180  A    
C96   C100  A    
C10   C186  A    
C134  H26   S    
C48   C156  A    
C31   O79   S    
C131  C139  A    
C102  H14   S    
C14   C190  A    
C6    O6    A    
C135  C141  A    
C67   O51   S    
C77   C87   A    
Cu1   O1    S    
O66   C194  S    
C129  H21   S    
C135  H27   S    
C121  N7    A    
C122  N8    A    
C195  H81   S    
C50   C142  S    
C25   C33   S    
C191  O71   S    
C34   F2    S    
C196  H83   S    
C57   O29   A    
C18   C26   S    
C112  C116  A    
C50   O18   A    
C187  O67   S    
C61   C154  S    
C1    O1    A    
C64   O48   A    
C62   O44   A    
O71   C199  S    
C3    O3    A    
C64   C155  S    
C11   C19   A    
C36   H52   S    
Cu10  Cu12  S    
C149  H5    S    
C63   C156  S    
C132  H24   S    
C92   H68   S    
C202  H102  S    
C3    C172  S    
C158  N2    S    
C179  C187  A    
C6    C175  S    
C94   C98   A    
C101  C109  A    
C20   C164  A    
C1    C170  S    
C95   H71   S    
C29   O77   S    
C28   H44   S    
C108  C114  A    
C30   O78   S    
C55   O27   A    
C82   C126  A    
C179  H35   S    
C180  C188  A    
C7    O7    A    
C75   C85   A    
C49   C141  S    
C184  C192  A    
C67   C73   A    
C58   O30   A    
C163  C171  A    
C146  H2    S    
C35   F3    S    
Cu3   O9    S    
C120  N6    A    
C152  H8    S    
C173  C181  A    
C97   H9    S    
C81   C127  A    
C208  H119  S    
C105  C117  A    
C203  H105  S    
C14   C58   S    
C107  C119  A    
C70   O54   S    
C91   H67   S    
C111  C123  A    
C85   C115  A    
C119  N5    A    
Cu11  O47   S    
C193  H75   S    
C70   C80   A    
C55   O35   A    
Cu10  O30   S    
C54   O26   A    
C79   C95   A    
C134  C142  A    
C84   N8    S    
C162  C170  A    
C49   O19   A    
Cu1   O3    S    
Cu5   O35   S    
C56   O36   A    
Cu6   O36   S    
C72   O56   S    
Cu7   O33   S    
C193  H74   S    
Cu8   O28   S    
Cu12  O38   S    
C128  C136  A    
C47   C151  A    
C7    O15   A    
C48   C152  A    
C65   N1    A    
O78   C206  S    
C11   C187  A    
C102  C110  A    
C9    C53   S    
C42   C146  A    
C76   C86   A    
C178  H34   S    
C11   C55   S    
C62   O42   A    
C199  H92   S    
C200  H94   S    
C78   C88   A    
C38   C166  S    
C59   O39   A    
C40   F8    S    
C15   C59   S    
C140  C144  A    
C44   H60   S    
C197  H86   S    
C202  H100  S    
Cu7   O43   S    
C201  H97   S    
C132  C140  A    
C99   C107  A    
C133  C141  A    
Cu9   O21   S    
C41   H57   S    
C73   C89   A    
C110  C122  A    
C117  O57   S    
C18   C162  A    
C61   O43   A    
Cu5   O17   S    
C5    O13   A    
Cu7   O19   S    
Cu8   O20   S    
C88   C114  A    
C189  O69   S    
Cu10  O40   S    
C197  H87   S    
C65   O49   S    
C148  H4    S    
C131  H23   S    
C41   C145  A    
C28   C36   S    
C29   C37   S    
C140  H32   S    
C122  O62   S    
C43   C153  A    
C103  H15   S    
C25   H41   S    
C43   H59   S    
C152  C160  A    
Cu4   O16   S    
C2    O10   A    
C42   H58   S    
O72   C200  S    
C201  H99   S    
C195  H80   S    
C83   C131  A    
C136  H28   S    
C4    O4    A    
C151  H7    S    
C106  C114  A    
C89   H65   S    
C24   C168  A    
C9    C185  A    
C32   O80   S    
C204  H107  S    
C48   H64   S    
C177  C185  A    
C165  C173  A    
C12   C188  A    
C13   C189  A    
C86   C116  A    
C104  H16   S    
C53   O33   A    
C16   C192  A    
Cu4   O14   S    
C26   C34   S    
Cu1   Cu3   S    
C105  C113  A    
C45   C155  A    
C22   C166  A    
C80   C96   A    
C19   C27   S    
C205  H110  S    
C46   H62   S    
C2    O2    A    
C200  H96   S    
C15   C23   A    
C137  C143  A    
C16   C24   A    
C10   C54   S    
C182  H38   S    
C126  C134  A    
C182  C190  A    
C198  H89   S    
C36   C164  S    
C28   O76   S    
C4    C169  S    
C13   C21   A    
C205  H111  S    
C203  H104  S    
C6    O14   A    
C181  C189  A    
C118  N6    A    
C123  O63   S    
C8    C173  S    
C30   H46   S    
Cu5   O25   S    
C192  O72   S    
C59   O31   A    
Cu8   O44   S    
Cu9   O29   S    
C206  H112  S    
C206  H114  S    
C148  C158  A    
C74   C86   A    
C147  H3    S    
C149  C159  A    
C12   C56   S    
C39   H55   S    
C76   C92   A    
C51   O23   A    
C9    C17   A    
C46   C150  A    
C117  N5    A    
C52   O22   A    
C137  H29   S    
C147  C157  A    
Cu11  O23   S    
C77   C93   A    
O69   C197  S    
C8    O8    A    
C125  C133  A    
Cu11  O31   S    
C4    O12   A    
Cu12  O24   S    
C5    O5    A    
C126  H18   S    
C119  O59   S    
C183  C191  A    
C127  H19   S    
Cu10  O46   S    
C32   H48   S    
C65   C75   A    
C33   H49   S    
Cu6   O42   S    
C123  N7    A    
C202  H101  S    
C99   H11   S    
C44   C148  A    
C31   C39   S    
C66   N2    A    
C71   O55   S    
C32   C40   S    
C39   C167  S    
C127  C135  A    
C40   C168  S    
C43   C147  A    
C109  C115  A    
C101  H13   S    
C194  H78   S    
C25   O73   S    
C111  C115  A    
Cu9   O45   S    
Cu2   O5    S    
C47   C155  A    
