data_mof_unit_34346.cif
_audit_creation_date              2012-12-10T16:59:16-0500
_audit_creation_method            fapswitch 2.2
_symmetry_space_group_name_H-M    P1
_symmetry_Int_Tables_number       1
_space_group_crystal_system       triclinic
_cell_length_a                    7.886338
_cell_length_b                    8.598324
_cell_length_c                    27.021452
_cell_angle_alpha                 92.582472
_cell_angle_beta                  86.291948
_cell_angle_gamma                 93.244549
_cell_volume                      1823.96214286

loop_
_atom_site_label
_atom_site_type_symbol
_atom_type_description
_atom_site_fract_x
_atom_site_fract_y
_atom_site_fract_z
_atom_type_partial_charge
C1    C     C_R   0.544057 0.793556 0.498097 1.041423
C2    C     C_R   0.455978 0.206293 0.501740 0.823197
C3    C     C_R   0.281059 0.579082 0.904621 -0.145931
C4    C     C_R   0.239135 0.620114 0.112667 -0.144066
C5    C     C_R   0.351211 0.705913 0.877005 -0.099022
C6    C     C_R   0.181151 0.488021 0.139376 -0.151040
C7    C     C_R   0.380590 0.851530 0.901060 0.438080
C8    C     C_R   0.074327 0.374554 0.116438 0.478539
C9    C     C_R   0.255890 0.432335 0.880104 -0.080984
C10   C     C_R   0.316321 0.747768 0.137918 -0.066250
C11   C     C_R   0.495762 0.497315 0.648470 -0.046085
C12   C     C_R   0.488275 0.530733 0.353139 -0.024567
C13   C     C_R   0.276677 0.758751 0.034710 -0.039362
C14   C     C_R   0.167898 0.470021 0.983578 -0.025401
C15   C     C_R   0.145680 0.490690 0.036225 0.022065
C16   C     C_R   0.282120 0.745556 0.981396 0.020838
C17   C     C_R   0.220147 0.623922 0.060941 -0.002765
C18   C     C_R   0.241768 0.598372 0.956623 0.011011
C19   C     C_R   0.322956 0.898522 0.063845 0.376675
C20   C     C_R   0.131290 0.322891 0.957468 0.339232
C21   C     C_R   0.328461 0.892697 0.115931 -0.140119
C22   C     C_R   0.168637 0.308826 0.905504 -0.114202
C23   C     C_R   0.501493 0.501102 0.594268 0.942447
C24   C     C_R   0.497399 0.500903 0.405756 0.877897
C25   C     C_R   0.335826 0.871191 0.951403 -0.322796
C26   C     C_R   0.052782 0.381665 0.065961 -0.202703
C27   C     C_2   0.557977 0.953315 0.488017 -0.238054
C28   C     C_2   0.442820 0.046759 0.512080 -0.288933
C29   C     C_R   0.388893 0.683619 0.825660 0.533573
C30   C     C_R   0.227353 0.478051 0.188517 0.526056
C31   C     C_R   0.329061 0.411372 0.831130 0.539932
C32   C     C_R   0.376163 0.726135 0.184825 0.570806
C33   C     C_R   0.322595 0.423935 0.721846 -0.061056
C34   C     C_R   0.347187 0.681001 0.295744 -0.069316
C35   C     C_R   0.357643 0.411410 0.671048 -0.218740
C36   C     C_R   0.396267 0.659775 0.343095 -0.241153
C37   C     C_R   0.606016 0.590645 0.678315 -0.073177
C38   C     C_R   0.541379 0.426380 0.313735 -0.036443
C39   C     C_R   0.579056 0.589045 0.730085 -0.171826
C40   C     C_R   0.490158 0.449833 0.266025 -0.185449
C41   C     C_R   0.431944 0.513599 0.751973 0.269046
C42   C     C_R   0.390816 0.574529 0.257243 0.283467
H1    H     H_    0.664499 0.657911 0.753314 0.152373
H2    H     H_    0.525407 0.370261 0.235414 0.124269
H3    H     H_    0.355429 0.741219 0.372714 0.159201
H4    H     H_    0.269962 0.341194 0.648858 0.150567
H5    H     H_    0.270711 0.777932 0.289228 0.180219
H6    H     H_    0.206819 0.366874 0.737556 0.180197
H7    H     H_    0.345467 0.989362 0.964523 0.257209
H8    H     H_    0.959475 0.302176 0.051240 0.181792
N1    N     N_R   0.385450 0.536706 0.804222 -0.364010
N2    N     N_R   0.331774 0.592372 0.208912 -0.359436
N3    N     N_2   0.950320 0.457960 0.486880 -0.212756
N4    N     N_2   0.049680 0.542040 0.513120 -0.195725
O1    O     O_R   0.389250 0.738570 0.503220 -0.603962
O2    O     O_R   0.610750 0.261430 0.496780 -0.605387
O3    O     O_R   0.678390 0.711630 0.494810 -0.578925
O4    O     O_R   0.321610 0.288370 0.505190 -0.630381
O5    O     O_R   0.355440 0.513440 0.575450 -0.606641
O6    O     O_R   0.644560 0.486560 0.424550 -0.578367
O7    O     O_R   0.644590 0.486500 0.567040 -0.647139
O8    O     O_R   0.355410 0.513500 0.432960 -0.668743
O9    O     O_2   0.426609 0.807463 0.797231 -0.472568
O10   O     O_2   0.170457 0.355822 0.215675 -0.469713
O11   O     O_2   0.484371 0.834346 0.205174 -0.567855
O12   O     O_2   0.350249 0.266783 0.810961 -0.485640
Zn1   Zn    Zn3+2 0.306940 0.517990 0.505620 0.996294
Zn2   Zn    Zn3+2 0.693060 0.482010 0.494380 1.023086
C43   C     C_2   0.734624 0.706296 0.657951 0.459583
H9    H     H_    0.844937 0.741347 0.678651 0.091469
O13   O     O_2   0.713655 0.771263 0.619736 -0.510988
C44   C     C_2   0.641691 0.288831 0.319989 0.389412
H10   H     H_    0.637470 0.192336 0.292699 0.095938
O14   O     O_2   0.735870 0.283721 0.353804 -0.534552
C45   C     C_2   0.016239 0.419870 0.438363 0.766209
H11   H     H_    0.053192 0.511489 0.412842 0.027940
O15   O     O_2   0.024852 0.283553 0.424347 -0.541523
C46   C     C_2   0.994425 0.568758 0.563208 0.735458
H12   H     H_    0.927326 0.477075 0.583988 -0.006204
O16   O     O_2   0.041227 0.689365 0.584934 -0.552112
O17   O     O_3   0.443720 0.979788 0.874966 -0.553629
C47   C     C_3   0.611810 0.023154 0.887556 0.151495
H13   H     H_    0.702905 0.969563 0.859606 0.189585
H14   H     H_    0.642421 0.986115 0.924746 0.066890
C48   C     C_3   0.638663 0.199784 0.886911 -0.740651
H15   H     H_    0.538775 0.255615 0.911260 0.230367
H16   H     H_    0.764165 0.238067 0.900572 0.188815
H17   H     H_    0.634902 0.238922 0.848491 0.296693
O18   O     O_3   0.005325 0.246584 0.141258 -0.552498
C49   C     C_3   0.833895 0.270819 0.156147 0.059288
H18   H     H_    0.758493 0.292127 0.123908 0.101278
H19   H     H_    0.824931 0.371270 0.183533 0.163494
C50   C     C_3   0.756930 0.125189 0.180585 -0.690434
H20   H     H_    0.828931 0.100680 0.213099 0.291807
H21   H     H_    0.622581 0.142057 0.193263 0.201095
H22   H     H_    0.761468 0.023845 0.153629 0.248149
C51   C     C_2   0.319044 0.039524 0.147478 0.590246
H23   H     H_    0.362654 0.151182 0.133186 0.067175
O19   O     O_2   0.252437 0.038424 0.189551 -0.492591
C52   C     C_2   0.113929 0.164141 0.877577 0.539678
H24   H     H_    0.140287 0.051363 0.890223 0.104107
O20   O     O_2   0.034269 0.170413 0.840487 -0.566692
O21   O     O_3   0.333487 0.045072 0.044284 -0.580192
C53   C     C_3   0.504732 0.105442 0.041800 0.046288
H25   H     H_    0.576429 0.077686 0.074190 0.110310
H26   H     H_    0.571392 0.057757 0.007842 0.148930
C54   C     C_3   0.509656 0.281769 0.038460 -0.803355
H27   H     H_    0.435290 0.334575 0.070463 0.252910
H28   H     H_    0.642681 0.330751 0.038953 0.180439
H29   H     H_    0.456864 0.312693 0.003400 0.267232
O22   O     O_3   0.105396 0.186228 0.983552 -0.576801
C55   C     C_3   0.939615 0.114889 0.979319 0.045112
H30   H     H_    0.925688 0.051264 0.943507 0.119018
H31   H     H_    0.839592 0.201109 0.984027 0.119583
C56   C     C_3   0.907734 0.991096 0.018080 -0.781221
H32   H     H_    0.793875 0.914712 0.010216 0.173038
H33   H     H_    0.015516 0.915048 0.016372 0.287170
H34   H     H_    0.891654 0.044209 0.056111 0.254958
C57   C     C_2   0.663888 0.997046 0.442148 0.446779
H35   H     H_    0.632675 0.094785 0.421191 0.132644
O23   O     O_2   0.784699 0.921952 0.426755 -0.519627
C58   C     C_2   0.332998 0.007154 0.557527 0.518859
H36   H     H_    0.216186 0.066619 0.566075 0.076327
O24   O     O_2   0.376605 0.916247 0.587148 -0.495499

loop_
_geom_bond_atom_site_label_1
_geom_bond_atom_site_label_2
_ccdc_geom_bond_type
C31   O12   S    
C29   O9    S    
C50   H20   S    
C30   O10   S    
C8    C26   A    
C14   C18   A    
O22   C55   S    
C34   C42   A    
C55   H31   S    
O17   C47   S    
C39   C41   A    
C48   H15   S    
C23   O5    A    
O8    Zn1   S    
C19   C21   A    
C37   C43   S    
C26   H8    S    
C46   O16   D    
C9    C22   A    
C56   H32   S    
O1    Zn1   S    
C3    C18   A    
C11   C37   A    
C43   O13   D    
N3    Zn2   S    
C55   H30   S    
O5    Zn1   S    
C19   O21   S    
C32   N2    A    
C56   H33   S    
C54   H27   S    
C12   C36   A    
C34   C36   A    
C40   C42   A    
C50   H21   S    
C54   H28   S    
N3    C45   S    
C53   H26   S    
C53   H25   S    
C51   O19   D    
C51   H23   S    
C5    C29   A    
C57   O23   D    
C10   C21   A    
C38   C44   S    
C22   C52   S    
C13   C19   A    
C48   H16   S    
C14   C20   A    
C44   O14   D    
C5    C7    A    
C46   H12   S    
C15   C26   A    
C39   H1    S    
N4    Zn1   S    
N3    N4    D    
C45   H11   S    
C3    C9    A    
C1    O3    A    
C20   O22   S    
C21   C51   S    
C49   H19   S    
C40   H2    S    
C24   O6    A    
C56   H34   S    
C52   O20   D    
C36   H3    S    
C45   O15   D    
C2    O2    A    
C4    C17   A    
C4    C6    A    
C6    C30   A    
C20   C22   A    
C50   H22   S    
C47   H14   S    
C54   H29   S    
O3    Zn2   S    
C4    C10   A    
O18   C49   S    
O21   C53   S    
C49   C50   S    
C29   N1    A    
C48   H17   S    
C16   C25   A    
C15   C17   A    
C30   N2    A    
C24   O8    A    
C7    O17   S    
C31   N1    A    
C44   H10   S    
C3    C5    A    
C6    C8    A    
C57   H35   S    
C2    O4    A    
C8    O18   S    
C27   C57   S    
C47   C48   S    
C12   C24   S    
C7    C25   A    
C13   C17   A    
C33   C41   A    
C11   C35   A    
C1    O1    A    
C37   C39   A    
O2    Zn2   S    
C38   C40   A    
O7    Zn2   S    
C49   H18   S    
C11   C23   S    
C52   H24   S    
C33   C35   A    
C28   C58   S    
C53   C54   S    
C12   C38   A    
C43   H9    S    
C25   H7    S    
C9    C31   A    
C10   C32   A    
O4    Zn1   S    
C23   O7    A    
O6    Zn2   S    
C16   C18   A    
C47   H13   S    
C13   C16   A    
C27   C28   D    
C1    C27   S    
C33   H6    S    
C14   C15   A    
C2    C28   S    
C34   H5    S    
C58   H36   S    
C35   H4    S    
C58   O24   D    
C41   N1    S    
C55   C56   S    
C42   N2    S    
C32   O11   S    
N4    C46   S    
