data_mof_unit_67628.cif
_audit_creation_date              2012-12-10T18:19:58-0500
_audit_creation_method            fapswitch 2.2
_symmetry_space_group_name_H-M    P1
_symmetry_Int_Tables_number       1
_space_group_crystal_system       triclinic
_cell_length_a                    10.612133
_cell_length_b                    10.662093
_cell_length_c                    9.452319
_cell_angle_alpha                 90.666916
_cell_angle_beta                  88.991707
_cell_angle_gamma                 90.163117
_cell_volume                      1069.2649493

loop_
_atom_site_label
_atom_site_type_symbol
_atom_type_description
_atom_site_fract_x
_atom_site_fract_y
_atom_site_fract_z
_atom_type_partial_charge
C1    C     C_R   0.500696 0.259535 0.498833 0.866020
C2    C     C_R   0.497185 0.740148 0.500941 0.871306
C3    C     C_3   0.429792 0.962802 0.610002 0.488360
C4    C     C_3   0.564900 0.035505 0.387792 0.486993
C5    C     C_3   0.503159 0.613287 0.052259 -0.107749
C6    C     C_3   0.496980 0.386725 0.947806 -0.113245
C7    C     C_3   0.403506 0.558782 0.953554 0.305867
C8    C     C_3   0.596594 0.441504 0.046517 0.303350
C9    C     C_3   0.599917 0.554557 0.947818 -0.087073
C10   C     C_3   0.399972 0.445750 0.052278 -0.090518
C11   C     C_R   0.259698 0.496365 0.501117 0.847691
C12   C     C_R   0.740402 0.503011 0.499004 0.850413
C13   C     C_3   0.035377 0.432116 0.611742 0.246477
C14   C     C_3   0.965095 0.566344 0.389321 0.248760
C15   C     C_3   0.954518 0.381860 0.489203 -0.194053
C16   C     C_3   0.045767 0.616570 0.511867 -0.195054
C17   C     C_3   0.877356 0.503119 0.497416 -0.091694
C18   C     C_3   0.122895 0.495438 0.503396 -0.089870
C19   C     C_3   0.956167 0.553091 0.620716 -0.167843
C20   C     C_3   0.044132 0.445356 0.380328 -0.166652
C21   C     C_3   0.549664 0.044219 0.619566 -0.345589
C22   C     C_3   0.444673 0.954105 0.379665 -0.369851
C23   C     C_3   0.616471 0.957253 0.509270 0.073522
C24   C     C_3   0.378325 0.041721 0.489031 0.061400
C25   C     C_3   0.496285 0.876562 0.502420 -0.155128
C26   C     C_3   0.499083 0.122613 0.496049 -0.166732
Cu1   Cu    Cu3+1 0.500030 0.499990 0.643150 0.998276
Cu2   Cu    Cu3+1 0.499970 0.500010 0.356850 0.997623
H1    H     H_    0.914461 0.285866 0.479610 0.204398
H2    H     H_    0.085753 0.712600 0.521457 0.202882
H3    H     H_    0.918084 0.597685 0.719194 0.193365
H4    H     H_    0.082219 0.400806 0.281827 0.195097
H5    H     H_    0.591919 0.082853 0.717476 0.177769
H6    H     H_    0.398781 0.913641 0.284828 0.182884
H7    H     H_    0.505415 0.709052 0.099361 0.132695
H8    H     H_    0.495464 0.291009 0.900530 0.146429
H9    H     H_    0.684296 0.600390 0.900036 0.157084
H10   H     H_    0.314742 0.402379 0.100896 0.156248
N1    N     N_3   0.500090 0.499970 0.858290 -0.189071
N2    N     N_3   0.499910 0.500030 0.141710 -0.186341
O1    O     O_R   0.500060 0.316850 0.620870 -0.597677
O2    O     O_R   0.499940 0.683150 0.379130 -0.600176
O3    O     O_R   0.500000 0.316860 0.379090 -0.546068
O4    O     O_R   0.500000 0.683140 0.620910 -0.542849
O5    O     O_R   0.316880 0.499960 0.620870 -0.543594
O6    O     O_R   0.683120 0.500040 0.379130 -0.542059
O7    O     O_R   0.316830 0.499970 0.379090 -0.589512
O8    O     O_R   0.683170 0.500030 0.620910 -0.589393
I1    I     I_    0.084364 0.324720 0.792113 -0.358351
I2    I     I_    0.919983 0.674313 0.208771 -0.343340
I3    I     I_    0.805495 0.893252 0.531547 -0.376822
I4    I     I_    0.189835 0.105076 0.459902 -0.382421
O9    O     O_3   0.359387 0.914570 0.724993 -0.583326
C27   C     C_3   0.306603 0.012457 0.808912 0.132648
H11   H     H_    0.204883 0.991072 0.825340 0.212337
H12   H     H_    0.312437 0.107170 0.760169 0.150646
C28   C     C_3   0.370540 0.017269 0.952340 -0.406633
H13   H     H_    0.372924 0.921849 0.998185 0.242271
H14   H     H_    0.468786 0.050842 0.937227 0.205847
C29   C     C_3   0.301407 0.105294 0.055370 -0.834777
H15   H     H_    0.285938 0.197487 0.005769 0.258327
H16   H     H_    0.358447 0.119847 0.151493 0.277954
H17   H     H_    0.208726 0.064547 0.086612 0.288133
O10   O     O_3   0.636804 0.076965 0.269816 -0.568865
C30   C     C_3   0.658047 0.974647 0.175562 0.078952
H18   H     H_    0.567628 0.937874 0.134949 0.120878
H19   H     H_    0.708501 0.897539 0.228674 0.188723
C31   C     C_3   0.737089 0.016975 0.048345 -0.298649
H20   H     H_    0.690210 0.097366 0.997752 0.228438
H21   H     H_    0.831844 0.046946 0.084170 0.264677
C32   C     C_3   0.751497 0.912454 0.937738 -0.882232
H22   H     H_    0.793127 0.827703 0.984588 0.282082
H23   H     H_    0.815011 0.945069 0.851293 0.295385
H24   H     H_    0.658507 0.887697 0.892725 0.258023
I5    I     I_    0.241452 0.661380 0.891242 -0.279887
I6    I     I_    0.763129 0.347687 0.110455 -0.297136

loop_
_geom_bond_atom_site_label_1
_geom_bond_atom_site_label_2
_ccdc_geom_bond_type
Cu1   O8    S    
C24   I4    S    
C7    C10   S    
C21   C26   S    
Cu2   O7    S    
C11   O7    A    
C8    I6    S    
C12   O8    A    
C19   H3    S    
C11   C18   S    
O9    C27   S    
Cu2   O6    S    
C13   C18   S    
C29   H17   S    
C6    C8    S    
C10   N2    S    
C24   C26   S    
C16   C19   S    
C28   H14   S    
C21   H5    S    
Cu2   N2    S    
C16   H2    S    
C9    N1    S    
C29   H16   S    
Cu1   O4    S    
C1    O3    A    
C2    O4    A    
C31   H20   S    
C30   H19   S    
C22   C25   S    
C12   C17   S    
C18   C20   S    
Cu1   O5    S    
C14   C17   S    
C3    C24   S    
C15   H1    S    
C15   C20   S    
C22   H6    S    
C27   H12   S    
C13   C19   S    
C14   C20   S    
C3    C25   S    
C12   O6    A    
Cu1   N1    S    
C5    C7    S    
C4    C23   S    
C8    C9    S    
C28   C29   S    
C7    I5    S    
C29   H15   S    
C5    C9    S    
C4    C22   S    
Cu1   O1    S    
C23   I3    S    
C30   C31   S    
C9    H9    S    
C16   C18   S    
C13   I1    S    
C1    O1    A    
C13   C15   S    
C1    C26   S    
C14   C16   S    
C3    C21   S    
C32   H23   S    
C20   H4    S    
C15   C17   S    
C27   H11   S    
C6    C10   S    
C32   H24   S    
C4    C26   S    
C4    O10   S    
Cu2   O3    S    
C10   H10   S    
O10   C30   S    
C21   C23   S    
C32   H22   S    
C3    O9    S    
C28   H13   S    
C14   I2    S    
C2    O2    A    
C31   C32   S    
C5    H7    S    
Cu2   O2    S    
C17   C19   S    
C6    H8    S    
C2    C25   S    
C22   C24   S    
C23   C25   S    
C11   O5    A    
C31   H21   S    
C30   H18   S    
C5    N2    S    
Cu1   Cu2   S    
C7    N1    S    
C6    N1    S    
C8    N2    S    
C27   C28   S    
