data_mof_unit_13104.cif
_audit_creation_date              2012-12-10T18:59:16-0500
_audit_creation_method            fapswitch 2.2
_symmetry_space_group_name_H-M    P1
_symmetry_Int_Tables_number       1
_space_group_crystal_system       triclinic
_cell_length_a                    10.8206
_cell_length_b                    10.760297
_cell_length_c                    9.567696
_cell_angle_alpha                 88.793583
_cell_angle_beta                  89.924362
_cell_angle_gamma                 90.568097
_cell_volume                      1113.69131626

loop_
_atom_site_label
_atom_site_type_symbol
_atom_type_description
_atom_site_fract_x
_atom_site_fract_y
_atom_site_fract_z
_atom_type_partial_charge
C1    C     C_R   0.501539 0.262512 0.501352 0.772837
C2    C     C_R   0.063310 0.405638 0.596518 0.046582
C3    C     C_R   0.128040 0.486837 0.501902 -0.221670
C4    C     C_R   0.063232 0.563288 0.406747 0.434331
C5    C     C_R   0.935476 0.560224 0.405607 -0.294184
C6    C     C_R   0.870254 0.484549 0.500340 -0.172056
C7    C     C_R   0.403922 0.060969 0.556475 0.106041
C8    C     C_R   0.504073 0.129082 0.502969 -0.070671
C9    C     C_R   0.599449 0.067465 0.434069 -0.238372
C10   C     C_R   0.599166 0.937645 0.431391 -0.170671
C11   C     C_R   0.502328 0.870315 0.495576 -0.087441
C12   C     C_R   0.262444 0.494512 0.500551 0.821290
C13   C     C_R   0.403103 0.933017 0.552408 0.091857
C14   C     C_3   0.346460 0.918646 0.693761 -0.459307
C15   C     C_3   0.348668 0.059288 0.699643 -0.504316
C16   C     C_R   0.522920 0.607761 0.070593 0.183526
C17   C     C_R   0.460979 0.398871 0.076607 -0.058266
C18   C     C_R   0.459755 0.399382 0.928065 -0.070306
C19   C     C_R   0.529934 0.604691 0.923594 0.179504
C20   C     C_3   0.649133 0.674647 0.915985 -0.567998
C21   C     C_3   0.635976 0.690240 0.074235 0.245297
C22   C     C_R   0.502444 0.737266 0.498796 0.805205
C23   C     C_R   0.737053 0.494507 0.500097 0.805497
C24   C     C_R   0.124759 0.324064 0.690975 -0.160635
C25   C     C_R   0.058544 0.245346 0.781993 -0.152788
C26   C     C_R   0.930539 0.240801 0.776157 -0.134054
C27   C     C_R   0.867807 0.317112 0.681636 -0.159795
C28   C     C_R   0.932515 0.403373 0.593942 0.095590
Cu1   Cu    Cu3+1 0.499990 0.499980 0.640670 0.929594
Cu2   Cu    Cu3+1 0.500010 0.500020 0.359330 0.968509
H1    H     H_    0.408903 0.872838 0.770361 0.195312
H2    H     H_    0.254622 0.098408 0.699483 0.194600
H3    H     H_    0.412573 0.096073 0.780080 0.196802
H4    H     H_    0.430995 0.315957 0.133120 0.146120
H5    H     H_    0.428435 0.317253 0.874958 0.126635
H6    H     H_    0.726943 0.612771 0.888852 0.194485
H7    H     H_    0.644980 0.758313 0.847307 0.191668
H8    H     H_    0.712702 0.646314 0.133830 0.127940
H9    H     H_    0.223961 0.317638 0.695154 0.151444
H10   H     H_    0.106893 0.185315 0.855322 0.128919
H11   H     H_    0.879626 0.176633 0.843843 0.135577
H12   H     H_    0.768697 0.305363 0.676978 0.151853
H13   H     H_    0.886930 0.620610 0.332478 0.163416
H14   H     H_    0.675088 0.119422 0.385890 0.150187
H15   H     H_    0.675340 0.890113 0.382952 0.178423
H16   H     H_    0.251515 0.878551 0.689457 0.187811
N1    N     N_R   0.500790 0.500930 0.147930 -0.204110
N2    N     N_R   0.500790 0.500890 0.852020 -0.170761
O1    O     O_R   0.500000 0.319640 0.618810 -0.602559
O2    O     O_R   0.500010 0.319680 0.381230 -0.591501
O3    O     O_R   0.319640 0.499980 0.618820 -0.593725
O4    O     O_R   0.319650 0.500020 0.381230 -0.525303
O5    O     O_R   0.499990 0.680320 0.618770 -0.585312
O6    O     O_R   0.500000 0.680360 0.381190 -0.554764
O7    O     O_R   0.680350 0.499980 0.618770 -0.582095
O8    O     O_R   0.680360 0.500020 0.381180 -0.587187
O9    O     O_3   0.124907 0.639410 0.310982 -0.557112
C29   C     C_3   0.135598 0.759486 0.366519 0.073093
H17   H     H_    0.185940 0.756978 0.468082 0.123227
H18   H     H_    0.042850 0.801267 0.381600 0.135192
C30   C     C_3   0.208536 0.841947 0.264697 -0.775676
H19   H     H_    0.220000 0.936287 0.308103 0.193650
H20   H     H_    0.301042 0.801314 0.247066 0.264918
H21   H     H_    0.159124 0.849482 0.163211 0.244984
O10   O     O_3   0.612885 0.813397 0.122048 -0.563061
C31   C     C_3   0.526820 0.882745 0.040422 0.103871
H22   H     H_    0.441032 0.828766 0.019347 0.133742
H23   H     H_    0.569967 0.916119 0.941275 0.142331
C32   C     C_3   0.489742 0.999618 0.115779 -0.805926
H24   H     H_    0.572850 0.057146 0.138093 0.253631
H25   H     H_    0.426232 0.055234 0.048857 0.186302
H26   H     H_    0.440970 0.975143 0.214395 0.259832

loop_
_geom_bond_atom_site_label_1
_geom_bond_atom_site_label_2
_ccdc_geom_bond_type
C4    O9    S    
C30   H21   S    
C31   H23   S    
C23   O7    A    
Cu1   Cu2   S    
C32   H26   S    
C1    C8    S    
C11   C13   A    
C1    O2    A    
C11   C22   S    
C19   C20   S    
C7    C13   A    
C14   H1    S    
C10   C11   A    
Cu2   O8    S    
C24   H9    S    
C10   H15   S    
C7    C15   S    
C17   C18   A    
C5    H13   S    
C15   H2    S    
C22   O6    A    
Cu1   O1    S    
C13   C14   S    
C24   C25   A    
C20   H7    S    
Cu2   O6    S    
C27   H12   S    
C26   C27   A    
C16   C21   S    
Cu1   O5    S    
C29   C30   S    
C16   C19   A    
C5    C6    A    
C6    C23   S    
C16   N1    A    
C12   O4    A    
Cu1   O3    S    
C2    C3    A    
C22   O5    A    
O9    C29   S    
C32   H24   S    
C25   H10   S    
C2    C24   A    
C30   H19   S    
Cu2   O2    S    
C29   H17   S    
C31   C32   S    
C7    C8    A    
C17   H4    S    
Cu1   N2    S    
C29   H18   S    
C3    C4    A    
C20   H6    S    
Cu2   N1    S    
C23   O8    A    
C12   O3    A    
C31   H22   S    
C20   C21   S    
C18   H5    S    
C14   H16   S    
O10   C31   S    
C9    C10   A    
C27   C28   A    
C32   H25   S    
Cu2   O4    S    
C14   C15   S    
C4    C5    A    
C9    H14   S    
C2    C28   A    
C3    C12   S    
Cu1   O7    S    
C21   O10   S    
C25   C26   A    
C19   N2    A    
C1    O1    A    
C15   H3    S    
C30   H20   S    
C6    C28   A    
C21   H8    S    
C17   N1    A    
C26   H11   S    
C8    C9    A    
C18   N2    A    
