data_mof_unit_28088.cif
_audit_creation_date              2012-12-10T17:46:25-0500
_audit_creation_method            fapswitch 2.2
_symmetry_space_group_name_H-M    P1
_symmetry_Int_Tables_number       1
_space_group_crystal_system       triclinic
_cell_length_a                    20.79343
_cell_length_b                    21.196635
_cell_length_c                    14.739461
_cell_angle_alpha                 89.999869
_cell_angle_beta                  127.777314
_cell_angle_gamma                 90.000082
_cell_volume                      5134.76162491

loop_
_atom_site_label
_atom_site_type_symbol
_atom_type_description
_atom_site_fract_x
_atom_site_fract_y
_atom_site_fract_z
_atom_type_partial_charge
Br1   Br    Br    0.205151 0.999995 0.577855 -0.532466
Br2   Br    Br    0.794766 0.000005 0.422015 -0.522228
Br3   Br    Br    0.705151 0.499992 0.577855 -0.532465
Br4   Br    Br    0.294766 0.500008 0.422015 -0.522229
C1    C     C_R   0.602323 0.913348 0.630881 0.807889
C2    C     C_R   0.655673 0.237306 0.058655 -0.210061
C3    C     C_R   0.702691 0.759944 0.942057 0.069363
C4    C     C_R   0.202697 0.740051 0.942064 0.069363
C5    C     C_R   0.756178 0.290440 0.010239 0.067573
C6    C     C_R   0.756176 0.709560 0.010239 0.067570
C7    C     C_R   0.202694 0.259948 0.942062 0.069363
C8    C     C_R   0.298004 0.821537 0.975234 -0.211972
C9    C     C_R   0.650800 0.215961 0.965687 -0.210655
C10   C     C_R   0.650801 0.784041 0.965691 -0.210653
C11   C     C_R   0.298000 0.178460 0.975230 -0.211970
C12   C     C_R   0.798005 0.321539 0.975233 -0.211974
C13   C     C_R   0.655675 0.762697 0.058660 -0.210059
C14   C     C_R   0.150810 0.715952 0.965701 -0.210654
C15   C     C_R   0.150807 0.284047 0.965700 -0.210651
C16   C     C_R   0.798000 0.678460 0.975230 -0.211971
C17   C     C_R   0.292398 0.199324 0.881397 -0.204051
C18   C     C_R   0.792405 0.300673 0.881402 -0.204052
C19   C     C_R   0.155685 0.737295 0.058670 -0.210059
C20   C     C_R   0.155683 0.262704 0.058669 -0.210058
C21   C     C_R   0.792400 0.699325 0.881398 -0.204050
C22   C     C_R   0.321492 0.999997 0.664803 0.139886
C23   C     C_R   0.678419 0.000002 0.335097 0.144754
C24   C     C_R   0.821492 0.499996 0.664803 0.139887
C25   C     C_R   0.396245 0.085475 0.367338 0.807108
C26   C     C_R   0.178419 0.500004 0.335097 0.144753
C27   C     C_R   0.352036 0.999999 0.602930 0.034870
C28   C     C_R   0.647942 0.000001 0.397023 0.036320
C29   C     C_R   0.852036 0.499998 0.602930 0.034871
C30   C     C_R   0.147942 0.500002 0.397023 0.036320
C31   C     C_R   0.487575 0.000000 0.774920 -0.017621
C32   C     C_R   0.512344 0.999999 0.225073 -0.014973
C33   C     C_R   0.987575 0.500001 0.774920 -0.017619
C34   C     C_R   0.012344 0.499999 0.225073 -0.014974
C35   C     C_R   0.461101 1.000000 0.844288 -0.061153
C36   C     C_R   0.396245 0.914525 0.367338 0.807107
C37   C     C_R   0.538741 1.000000 0.155635 -0.060966
C38   C     C_R   0.961101 0.500000 0.844288 -0.061154
C39   C     C_R   0.038741 0.500000 0.155635 -0.060966
C40   C     C_R   0.375864 0.999997 0.786166 0.085079
C41   C     C_R   0.623981 0.000002 0.213731 0.084115
C42   C     C_R   0.875864 0.499996 0.786166 0.085079
C43   C     C_R   0.123981 0.500003 0.213731 0.084115
C44   C     C_R   0.515708 0.000001 0.968163 0.095727
C45   C     C_R   0.484089 0.999999 0.031744 0.101198
C46   C     C_R   0.015708 0.500002 0.968163 0.095727
C47   C     C_R   0.602324 0.086652 0.630881 0.807888
C48   C     C_R   0.984089 0.499998 0.031744 0.101198
C49   C     C_R   0.398903 0.999995 0.969257 -0.269260
C50   C     C_R   0.600883 0.000004 0.030635 -0.254976
C51   C     C_R   0.898903 0.499992 0.969257 -0.269260
C52   C     C_R   0.100883 0.500007 0.030635 -0.254979
C53   C     C_R   0.346454 0.999995 0.849952 -0.159147
C54   C     C_R   0.653351 0.000004 0.149923 -0.141637
C55   C     C_R   0.846454 0.499992 0.849952 -0.159144
C56   C     C_R   0.153351 0.500007 0.149923 -0.141639
C57   C     C_R   0.655741 0.139978 0.698561 -0.058588
C58   C     C_R   0.102323 0.413348 0.630881 0.807889
C59   C     C_R   0.333463 0.868549 0.288318 -0.057074
C60   C     C_R   0.333463 0.131451 0.288318 -0.057073
C61   C     C_R   0.655741 0.860022 0.698560 -0.058586
C62   C     C_R   0.155742 0.639977 0.698561 -0.058586
C63   C     C_R   0.833461 0.368551 0.288315 -0.057074
C64   C     C_R   0.833462 0.631450 0.288316 -0.057074
C65   C     C_R   0.155741 0.360022 0.698561 -0.058585
C66   C     C_R   0.744240 0.225378 0.729092 -0.174546
C67   C     C_R   0.220619 0.800609 0.230001 -0.175346
C68   C     C_R   0.220618 0.199390 0.230001 -0.175348
C69   C     C_R   0.896245 0.585475 0.367338 0.807107
C70   C     C_R   0.744236 0.774620 0.729088 -0.174548
C71   C     C_R   0.244236 0.725380 0.729088 -0.174547
C72   C     C_R   0.720610 0.300617 0.229989 -0.175346
C73   C     C_R   0.720612 0.699385 0.229993 -0.175348
C74   C     C_R   0.244233 0.274619 0.729086 -0.174549
C75   C     C_R   0.698554 0.172179 0.667681 -0.175214
C76   C     C_R   0.279941 0.843918 0.306979 -0.174723
C77   C     C_R   0.279941 0.156082 0.306979 -0.174723
C78   C     C_R   0.698551 0.827819 0.667678 -0.175215
C79   C     C_R   0.198550 0.672181 0.667677 -0.175215
C80   C     C_R   0.896245 0.414525 0.367338 0.807107
C81   C     C_R   0.779935 0.343923 0.306971 -0.174723
C82   C     C_R   0.779937 0.656078 0.306974 -0.174723
C83   C     C_R   0.198549 0.327817 0.667676 -0.175215
C84   C     C_R   0.659530 0.161116 0.791428 -0.241899
C85   C     C_R   0.326101 0.850460 0.191201 -0.246712
C86   C     C_R   0.326101 0.149539 0.191201 -0.246712
C87   C     C_R   0.659530 0.838885 0.791429 -0.241897
C88   C     C_R   0.159534 0.661112 0.791434 -0.241898
C89   C     C_R   0.826100 0.350461 0.191199 -0.246713
C90   C     C_R   0.826101 0.649539 0.191200 -0.246712
C91   C     C_R   0.102324 0.586651 0.630881 0.807889
C92   C     C_R   0.159533 0.338887 0.791433 -0.241897
C93   C     C_R   0.701879 0.216243 0.851184 0.092732
C94   C     C_R   0.265096 0.808560 0.110301 0.092573
C95   C     C_R   0.265094 0.191439 0.110300 0.092573
C96   C     C_R   0.701878 0.783757 0.851184 0.092731
C97   C     C_R   0.201882 0.716239 0.851189 0.092731
C98   C     C_R   0.765091 0.308564 0.110295 0.092573
C99   C     C_R   0.765091 0.691436 0.110296 0.092573
C100  C     C_R   0.201880 0.283759 0.851187 0.092731
C101  C     C_R   0.746367 0.247563 0.820579 0.158161
C102  C     C_R   0.292403 0.800673 0.881401 -0.204052
C103  C     C_R   0.213470 0.782163 0.132799 0.160608
C104  C     C_R   0.213469 0.217836 0.132798 0.160608
C105  C     C_R   0.746363 0.752435 0.820577 0.158161
C106  C     C_R   0.246366 0.747563 0.820580 0.158161
C107  C     C_R   0.713462 0.282170 0.132787 0.160607
C108  C     C_R   0.713464 0.717831 0.132791 0.160608
C109  C     C_R   0.246362 0.252435 0.820577 0.158162
C110  C     C_R   0.702691 0.240056 0.942056 0.069364
C111  C     C_R   0.256181 0.790436 0.010244 0.067571
C112  C     C_R   0.256178 0.209562 0.010242 0.067569
Cu1   Cu    Cu3+1 0.526640 0.000000 0.436960 0.944767
Cu2   Cu    Cu3+1 0.473360 0.000000 0.563040 0.944107
Cu3   Cu    Cu3+1 0.026640 0.500000 0.436960 0.944767
Cu4   Cu    Cu3+1 0.973360 0.500000 0.563040 0.944108
H1    H     H_    0.325303 0.825845 0.857321 0.154520
H2    H     H_    0.629572 0.000007 0.989779 0.136903
H3    H     H_    0.870214 0.499986 0.010123 0.133592
H4    H     H_    0.129572 0.500012 0.989779 0.136902
H5    H     H_    0.370355 0.868328 0.182160 0.152168
H6    H     H_    0.629880 0.132980 0.816808 0.148982
H7    H     H_    0.629881 0.867021 0.816810 0.148982
H8    H     H_    0.370355 0.131672 0.182160 0.152168
H9    H     H_    0.870357 0.368326 0.182163 0.152169
H10   H     H_    0.129887 0.632974 0.816816 0.148979
H11   H     H_    0.129886 0.367025 0.816816 0.148981
H12   H     H_    0.614897 0.217586 0.073825 0.149261
H13   H     H_    0.870357 0.631674 0.182162 0.152169
H14   H     H_    0.284372 0.857607 0.381430 0.164930
H15   H     H_    0.696250 0.156617 0.595750 0.165231
H16   H     H_    0.696248 0.843380 0.595747 0.165230
H17   H     H_    0.284372 0.142393 0.381431 0.164929
H18   H     H_    0.784365 0.357613 0.381421 0.164931
H19   H     H_    0.196244 0.656621 0.595743 0.165230
H20   H     H_    0.196243 0.343378 0.595742 0.165229
H21   H     H_    0.784367 0.642389 0.381424 0.164929
H22   H     H_    0.277459 0.749477 0.704559 0.144302
H23   H     H_    0.614901 0.782418 0.073832 0.149260
H24   H     H_    0.680649 0.281181 0.246846 0.143445
H25   H     H_    0.680652 0.718823 0.246852 0.143443
H26   H     H_    0.277456 0.250521 0.704555 0.144300
H27   H     H_    0.777466 0.249473 0.704566 0.144302
H28   H     H_    0.180661 0.781170 0.246862 0.143444
H29   H     H_    0.180660 0.218830 0.246863 0.143443
H30   H     H_    0.777461 0.750524 0.704560 0.144300
H31   H     H_    0.333749 0.863561 0.016468 0.143480
H32   H     H_    0.603774 0.181756 0.911838 0.146268
H33   H     H_    0.603777 0.818247 0.911843 0.146268
H34   H     H_    0.325298 0.174153 0.857316 0.154519
H35   H     H_    0.333743 0.136436 0.016464 0.143483
H36   H     H_    0.833751 0.363561 0.016469 0.143481
H37   H     H_    0.103787 0.681744 0.911856 0.146267
H38   H     H_    0.103785 0.318255 0.911854 0.146267
H39   H     H_    0.833745 0.636436 0.016464 0.143484
H40   H     H_    0.281876 0.999992 0.808181 0.201572
H41   H     H_    0.717926 0.000007 0.191678 0.199328
H42   H     H_    0.781876 0.499987 0.808181 0.201572
H43   H     H_    0.217926 0.500012 0.191678 0.199329
H44   H     H_    0.448960 0.999999 0.188369 0.130816
H45   H     H_    0.825309 0.325842 0.857326 0.154520
H46   H     H_    0.550958 0.000001 0.811657 0.132639
H47   H     H_    0.948960 0.499999 0.188369 0.130817
H48   H     H_    0.050958 0.500001 0.811657 0.132637
H49   H     H_    0.689357 0.000002 0.489872 0.158692
H50   H     H_    0.310643 0.999998 0.510077 0.156893
H51   H     H_    0.189357 0.500002 0.489872 0.158692
H52   H     H_    0.810643 0.499997 0.510077 0.156892
H53   H     H_    0.114912 0.717573 0.073845 0.149261
H54   H     H_    0.114910 0.282426 0.073845 0.149260
H55   H     H_    0.825302 0.674154 0.857320 0.154519
H56   H     H_    0.370214 0.999991 0.010123 0.133592
N1    N     N_R   0.433280 0.000000 0.657760 -0.198154
N2    N     N_R   0.566720 0.000000 0.342240 -0.198826
N3    N     N_R   0.933280 0.500000 0.657760 -0.198154
N4    N     N_R   0.066720 0.500000 0.342240 -0.198826
O1    O     O_R   0.600040 0.935040 0.546740 -0.583743
O2    O     O_R   0.444990 0.064930 0.346780 -0.587577
O3    O     O_R   0.444990 0.935070 0.346780 -0.587578
O4    O     O_R   0.555010 0.064930 0.653220 -0.586529
O5    O     O_R   0.055010 0.435070 0.653220 -0.586527
O6    O     O_R   0.944990 0.564930 0.346780 -0.587578
O7    O     O_R   0.944990 0.435070 0.346780 -0.587578
O8    O     O_R   0.055010 0.564930 0.653220 -0.586528
O9    O     O_R   0.399960 0.064960 0.453260 -0.584825
O10   O     O_R   0.399960 0.935040 0.453260 -0.584825
O11   O     O_R   0.600040 0.064960 0.546740 -0.583743
O12   O     O_R   0.100040 0.435040 0.546740 -0.583743
O13   O     O_R   0.899960 0.564960 0.453260 -0.584824
O14   O     O_R   0.899960 0.435040 0.453260 -0.584825
O15   O     O_R   0.100040 0.564960 0.546740 -0.583744
O16   O     O_R   0.555010 0.935070 0.653220 -0.586528

loop_
_geom_bond_atom_site_label_1
_geom_bond_atom_site_label_2
_ccdc_geom_bond_type
C74   C83   A    
C31   N1    A    
C3    C6    A    
C28   H49   S    
C51   C55   A    
C42   C55   A    
C29   N3    A    
C64   C82   A    
C2    C107  A    
C30   N4    A    
C47   C57   S    
C60   C86   A    
C83   H20   S    
C65   C92   A    
C20   H54   S    
Cu4   O5    S    
C31   H46   S    
C70   C105  A    
C79   H19   S    
C69   O6    A    
C61   C78   A    
C22   C40   A    
C85   H5    S    
C77   H17   S    
C95   C104  A    
C24   C42   A    
C36   C59   S    
C87   H7    S    
C27   N1    A    
C5    C110  A    
C52   H4    S    
C6    C99   A    
C71   H22   S    
Cu4   N3    S    
C69   O13   A    
C50   C54   A    
C31   C35   A    
Cu2   O9    S    
Cu1   O1    S    
C39   C48   A    
C16   C21   A    
C56   H43   S    
C76   H14   S    
C38   C42   A    
C1    O1    A    
C33   C38   A    
C84   H6    S    
Cu1   O11   S    
C4    C111  A    
C62   C79   A    
C18   H45   S    
C3    C10   A    
C68   C104  A    
C6    C16   A    
C5    C98   A    
C16   H39   S    
C12   H36   S    
C46   C48   A    
C17   H34   S    
C7    C100  A    
C20   C104  A    
C87   C96   A    
Cu2   O16   S    
C4    C97   A    
C11   H35   S    
C68   C77   A    
C65   C83   A    
C48   C51   A    
C21   C105  A    
C36   O3    A    
C93   C101  A    
C23   C41   A    
C67   H28   S    
C43   C56   A    
C25   C60   S    
C19   C103  A    
C96   C105  A    
C8    H31   S    
C28   N2    A    
C98   C107  A    
C75   H15   S    
C70   C78   A    
C89   H9    S    
Cu4   O8    S    
C37   C45   A    
C67   C76   A    
C91   O8    A    
C33   H48   S    
C59   C76   A    
C34   H47   S    
C33   N3    A    
C51   H3    S    
C41   C54   A    
C63   C81   A    
C34   N4    A    
C3    C96   A    
C26   C30   A    
C14   C19   A    
C26   C43   A    
C32   N2    A    
Cu3   O12   S    
C1    C61   S    
C47   O4    A    
C25   O2    A    
C80   O14   A    
C95   C112  A    
C49   C53   A    
Cu1   O2    S    
C62   C88   A    
C2    H12   S    
C97   C106  A    
Cu4   O14   S    
C94   C103  A    
C52   C56   A    
C58   C65   S    
C12   C18   A    
C99   C108  A    
C44   C50   A    
C73   C108  A    
C88   H10   S    
C57   C84   A    
C21   H55   S    
C11   C17   A    
C40   C53   A    
C54   H41   S    
C7    C15   A    
C59   C85   A    
C4    C14   A    
C7    C112  A    
Br2   C23   S    
C88   C97   A    
C38   C46   A    
C1    O16   A    
C72   H24   S    
C17   C109  A    
C44   C45   A    
C53   H40   S    
C24   C29   A    
C92   H11   S    
C10   H33   S    
Br1   C22   S    
C25   O9    A    
C74   C109  A    
Cu3   N4    S    
C13   C108  A    
C73   H25   S    
C86   C95   A    
C47   O11   A    
Cu1   N2    S    
C62   C91   S    
C32   H44   S    
C102  C106  A    
C61   C87   A    
Br3   C24   S    
C71   C106  A    
C91   O15   A    
C23   C28   A    
C15   H38   S    
C5    C12   A    
C9    C110  A    
C9    H32   S    
C66   C101  A    
C89   C98   A    
C73   C82   A    
C58   O12   A    
Cu3   Cu4   S    
Cu1   O3    S    
C55   H42   S    
C35   C40   A    
C19   H53   S    
C27   H50   S    
Cu2   O4    S    
C18   C101  A    
C64   C90   A    
C90   C99   A    
Cu4   O13   S    
C85   C94   A    
C13   H23   S    
C8    C111  A    
C92   C100  A    
C15   C20   A    
C64   C69   S    
C84   C93   A    
C34   C39   A    
C14   H37   S    
C37   C41   A    
C46   C52   A    
C2    C9    A    
C8    C102  A    
Cu2   O10   S    
C71   C79   A    
C94   C111  A    
C66   C75   A    
C67   C103  A    
C63   C80   S    
C90   H13   S    
C57   C75   A    
C72   C107  A    
C45   C49   A    
C50   H2    S    
C102  H1    S    
Cu3   O15   S    
C78   H16   S    
Cu3   O7    S    
C60   C77   A    
Cu3   O6    S    
C74   H26   S    
C58   O5    A    
C100  C109  A    
Cu2   N1    S    
C22   C27   A    
C36   O10   A    
C82   H21   S    
C68   H29   S    
C32   C37   A    
C63   C89   A    
C86   H8    S    
C11   C112  A    
C70   H30   S    
C80   O7    A    
C66   H27   S    
C81   H18   S    
C93   C110  A    
Cu1   Cu2   S    
C29   H52   S    
C39   C43   A    
C72   C81   A    
Br4   C26   S    
C30   H51   S    
C49   H56   S    
C35   C44   A    
C10   C13   A    
