data_mof_unit_62486.cif
_audit_creation_date              2012-12-10T20:20:38-0500
_audit_creation_method            fapswitch 2.2
_symmetry_space_group_name_H-M    P1
_symmetry_Int_Tables_number       1
_space_group_crystal_system       triclinic
_cell_length_a                    41.394294
_cell_length_b                    35.51276
_cell_length_c                    21.289836
_cell_angle_alpha                 90.018131
_cell_angle_beta                  59.083594
_cell_angle_gamma                 89.901279
_cell_volume                      26849.848664

loop_
_atom_site_label
_atom_site_type_symbol
_atom_type_description
_atom_site_fract_x
_atom_site_fract_y
_atom_site_fract_z
_atom_type_partial_charge
C1    C     C_R   0.926555 0.500043 0.073454 0.865430
C2    C     C_R   0.326317 0.499689 0.730575 -0.166522
C3    C     C_R   0.999733 0.806793 0.500205 0.162675
C4    C     C_1   0.499688 0.266781 0.500237 -0.072273
C5    C     C_1   0.999688 0.766781 0.500237 -0.072273
C6    C     C_1   0.999689 0.733139 0.500237 -0.072989
C7    C     C_1   0.499689 0.233139 0.500236 -0.072988
C8    C     C_R   0.965614 0.673698 0.534343 -0.167713
C9    C     C_R   0.033938 0.673666 0.466004 -0.167569
C10   C     C_R   0.465614 0.173698 0.534340 -0.167712
C11   C     C_R   0.533938 0.173666 0.466005 -0.167569
C12   C     C_R   0.965635 0.634522 0.534344 -0.203279
C13   C     C_R   0.173683 0.000133 0.269425 -0.166600
C14   C     C_R   0.034055 0.634493 0.465910 -0.205165
C15   C     C_R   0.465635 0.134522 0.534342 -0.203279
C16   C     C_R   0.534055 0.134493 0.465912 -0.205162
C17   C     C_R   0.999880 0.614634 0.500103 -0.040371
C18   C     C_R   0.499881 0.114634 0.500103 -0.040378
C19   C     C_3   0.009848 0.534130 0.260921 -0.154547
C20   C     C_3   0.006452 0.534897 0.722815 -0.153601
C21   C     C_3   0.509562 0.034209 0.261210 -0.154452
C22   C     C_3   0.506649 0.034861 0.722619 -0.153647
C23   C     C_R   0.999743 0.693127 0.500194 0.162720
C24   C     C_R   0.826317 0.999689 0.730574 -0.166522
C25   C     C_R   0.499743 0.193127 0.500194 0.162719
C26   C     C_R   0.500213 0.673607 0.442861 -0.166544
C27   C     C_R   0.500234 0.673612 0.556798 -0.166549
C28   C     C_R   0.000213 0.173607 0.442861 -0.166542
C29   C     C_R   0.000234 0.173612 0.556798 -0.166549
C30   C     C_R   0.500116 0.634428 0.442860 -0.200206
C31   C     C_R   0.500138 0.634432 0.556959 -0.200216
C32   C     C_R   0.000116 0.134427 0.442860 -0.200206
C33   C     C_R   0.000138 0.134432 0.556959 -0.200216
C34   C     C_R   0.500077 0.614541 0.499951 -0.038886
C35   C     C_R   0.634507 0.500012 0.308495 -0.200243
C36   C     C_R   0.000077 0.114541 0.499951 -0.038886
C37   C     C_R   0.500273 0.693063 0.499788 0.162616
C38   C     C_R   0.000272 0.193063 0.499788 0.162615
C39   C     C_1   0.500319 0.733091 0.499755 -0.072425
C40   C     C_1   0.000319 0.233091 0.499754 -0.072424
C41   C     C_1   0.000318 0.266741 0.499755 -0.073182
C42   C     C_1   0.500318 0.766741 0.499755 -0.073183
C43   C     C_R   0.966069 0.326238 0.534010 -0.167928
C44   C     C_R   0.034389 0.326208 0.465632 -0.167675
C45   C     C_R   0.466069 0.826237 0.534008 -0.167929
C46   C     C_R   0.365493 0.499760 0.691504 -0.200211
C47   C     C_R   0.534389 0.826208 0.465634 -0.167676
C48   C     C_R   0.965950 0.365416 0.534106 -0.203510
C49   C     C_R   0.034366 0.365390 0.465632 -0.205278
C50   C     C_R   0.465950 0.865416 0.534104 -0.203513
C51   C     C_R   0.534366 0.865390 0.465635 -0.205276
C52   C     C_R   0.000121 0.385284 0.499895 -0.038262
C53   C     C_R   0.500121 0.885284 0.499895 -0.038255
C54   C     C_3   0.999835 0.499800 0.310871 0.021145
C55   C     C_3   0.999935 0.499723 0.689354 0.021154
C56   C     C_3   0.499838 0.999794 0.310868 0.021149
C57   C     C_R   0.134507 0.000013 0.308495 -0.200244
C58   C     C_3   0.499933 0.999726 0.689357 0.021153
C59   C     C_R   0.000263 0.306769 0.499799 0.162813
C60   C     C_R   0.500263 0.806769 0.499799 0.162814
C61   C     C_3   0.965060 0.491429 0.305508 -0.170402
C62   C     C_3   0.027089 0.476440 0.702336 -0.164554
C63   C     C_3   0.465137 0.991131 0.305431 -0.170346
C64   C     C_3   0.526953 0.976289 0.702473 -0.164453
C65   C     C_3   0.989783 0.465538 0.239549 -0.169929
C66   C     C_3   0.993367 0.464628 0.777240 -0.170662
C67   C     C_3   0.490078 0.965449 0.239255 -0.169997
C68   C     C_R   0.865493 0.999760 0.691504 -0.200212
C69   C     C_3   0.493163 0.964669 0.777444 -0.170632
C70   C     C_3   0.024522 0.473912 0.246094 -0.162670
C71   C     C_3   0.966184 0.487910 0.763147 -0.169502
C72   C     C_3   0.524744 0.974116 0.245873 -0.162829
C73   C     C_3   0.466113 0.988105 0.763217 -0.169554
C74   C     C_3   0.034541 0.508271 0.194814 -0.154141
C75   C     C_3   0.972695 0.523075 0.797865 -0.161667
C76   C     C_3   0.534472 0.008560 0.194885 -0.154225
C77   C     C_3   0.472824 0.023231 0.797736 -0.161774
C78   C     C_R   0.614631 0.499965 0.385421 -0.038763
C79   C     C_R   0.385369 0.499811 0.614579 -0.038797
C80   C     C_R   0.114631 0.999965 0.385421 -0.038763
C81   C     C_R   0.073445 0.499967 0.926547 0.865502
C82   C     C_R   0.885369 0.999811 0.614579 -0.038797
C83   C     C_R   0.634524 0.500035 0.422604 -0.200257
C84   C     C_R   0.365476 0.499784 0.577396 -0.200227
C85   C     C_R   0.134524 0.000035 0.422604 -0.200257
C86   C     C_R   0.865476 0.999784 0.577396 -0.200227
C87   C     C_R   0.673700 0.500155 0.383371 -0.166607
C88   C     C_R   0.326299 0.499713 0.616629 -0.166527
C89   C     C_R   0.173700 0.000155 0.383371 -0.166606
C90   C     C_R   0.826299 0.999713 0.616629 -0.166526
C91   C     C_R   0.693140 0.500207 0.306962 0.162696
C92   C     C_R   0.426555 0.000043 0.073454 0.865432
C93   C     C_R   0.306860 0.499667 0.693038 0.162625
C94   C     C_R   0.193140 0.000207 0.306962 0.162696
C95   C     C_R   0.806860 0.999667 0.693038 0.162625
C96   C     C_1   0.733158 0.500280 0.266963 -0.072422
C97   C     C_1   0.266842 0.499648 0.733037 -0.072278
C98   C     C_1   0.233158 0.000280 0.266963 -0.072422
C99   C     C_1   0.766841 0.999648 0.733037 -0.072279
C100  C     C_1   0.766802 0.500297 0.233318 -0.073188
C101  C     C_1   0.233197 0.499666 0.766681 -0.072988
C102  C     C_1   0.266802 0.000296 0.233319 -0.073188
C103  C     C_R   0.573445 0.999967 0.926546 0.865503
C104  C     C_1   0.733197 0.999666 0.766681 -0.072988
C105  C     C_R   0.826249 0.534383 0.173827 -0.167658
C106  C     C_R   0.173720 0.533929 0.826171 -0.167553
C107  C     C_R   0.326249 0.034383 0.173830 -0.167656
C108  C     C_R   0.673720 0.033929 0.826172 -0.167553
C109  C     C_R   0.999893 0.499989 0.121914 0.872782
C110  C     C_R   0.999919 0.499972 0.878272 0.872799
C111  C     C_R   0.499896 0.999988 0.121911 0.872785
C112  C     C_R   0.499917 0.999973 0.878274 0.872796
C113  C     C_R   0.865428 0.534366 0.134614 -0.205511
C114  C     C_3   0.999791 0.499891 0.189517 0.021176
C115  C     C_R   0.134544 0.534052 0.865380 -0.205292
C116  C     C_R   0.365428 0.034366 0.134617 -0.205518
C117  C     C_R   0.634544 0.034052 0.865382 -0.205300
C118  C     C_R   0.885322 0.500123 0.114712 -0.038328
C119  C     C_R   0.114678 0.499882 0.885288 -0.040194
C120  C     C_R   0.385322 0.000123 0.114713 -0.038329
C121  C     C_R   0.614677 0.999882 0.885288 -0.040192
C122  C     C_R   0.865463 0.465947 0.134599 -0.203412
C123  C     C_R   0.134563 0.465634 0.865407 -0.203076
C124  C     C_R   0.365464 0.965947 0.134597 -0.203405
C125  C     C_3   0.999874 0.499827 0.810812 0.021178
C126  C     C_R   0.634563 0.965634 0.865404 -0.203068
C127  C     C_R   0.826289 0.466059 0.173808 -0.167959
C128  C     C_R   0.173740 0.465606 0.826194 -0.167746
C129  C     C_R   0.326289 0.966059 0.173806 -0.167961
C130  C     C_R   0.673740 0.965606 0.826192 -0.167747
C131  C     C_R   0.806821 0.500251 0.193284 0.162880
C132  C     C_R   0.193179 0.499731 0.806716 0.162695
C133  C     C_R   0.306821 0.000251 0.193284 0.162880
C134  C     C_R   0.693179 0.999731 0.806716 0.162695
C135  C     C_R   0.999962 0.573407 0.500037 0.865775
C136  C     C_3   0.499796 0.999887 0.189513 0.021178
C137  C     C_R   0.499962 0.073407 0.500036 0.865775
C138  C     C_R   0.999963 0.499854 0.378244 0.872808
C139  C     C_R   0.999999 0.499810 0.621791 0.872798
C140  C     C_R   0.499964 0.999851 0.378244 0.872808
C141  C     C_R   0.499999 0.999812 0.621792 0.872799
C142  C     C_R   0.000038 0.426526 0.499963 0.865131
C143  C     C_R   0.500038 0.926526 0.499963 0.865130
C144  C     C_R   0.500008 0.573289 0.500001 0.871791
C145  C     C_R   0.000008 0.073289 0.500001 0.871792
C146  C     C_R   0.573386 0.499890 0.426637 0.871760
C147  C     C_3   0.499870 0.999829 0.810817 0.021179
C148  C     C_R   0.426614 0.499874 0.573362 0.871778
C149  C     C_R   0.073386 0.999890 0.426637 0.871760
C150  C     C_R   0.926614 0.999874 0.573362 0.871778
C151  C     C_3   0.975069 0.525748 0.254330 -0.163534
C152  C     C_3   0.033606 0.511642 0.737118 -0.155255
C153  C     C_3   0.474855 0.025534 0.254543 -0.163381
C154  C     C_3   0.533669 0.011452 0.737056 -0.155181
C155  C     C_R   0.499992 0.426535 0.499999 0.871707
C156  C     C_R   0.999992 0.926535 0.499999 0.871707
C157  C     C_R   0.499780 0.326240 0.557148 -0.166556
C158  C     C_R   0.673683 0.500133 0.269425 -0.166599
C159  C     C_R   0.499782 0.326236 0.443181 -0.166561
C160  C     C_R   0.999780 0.826240 0.557149 -0.166556
C161  C     C_R   0.999782 0.826236 0.443181 -0.166562
C162  C     C_R   0.499875 0.365414 0.557152 -0.200230
C163  C     C_R   0.499877 0.365410 0.443022 -0.200240
C164  C     C_R   0.999875 0.865414 0.557152 -0.200231
C165  C     C_R   0.999877 0.865410 0.443022 -0.200241
C166  C     C_R   0.499924 0.385294 0.500047 -0.038749
C167  C     C_R   0.999924 0.885294 0.500047 -0.038749
C168  C     C_R   0.499733 0.306793 0.500205 0.162674
H1    H     H_    0.018012 0.562076 0.271708 0.128994
H2    H     H_    0.188811 0.560420 0.811052 0.133920
H3    H     H_    0.311133 0.060926 0.188950 0.133726
H4    H     H_    0.688811 0.060420 0.811055 0.133921
H5    H     H_    0.880077 0.561079 0.119944 0.156228
H6    H     H_    0.119876 0.560820 0.880043 0.156994
H7    H     H_    0.380077 0.061079 0.119949 0.156229
H8    H     H_    0.619876 0.060820 0.880046 0.156993
H9    H     H_    0.880138 0.439183 0.119921 0.156251
H10   H     H_    0.119907 0.438924 0.880092 0.156796
H11   H     H_    0.380138 0.939183 0.119917 0.156252
H12   H     H_    0.011776 0.563523 0.698571 0.128095
H13   H     H_    0.619907 0.938924 0.880088 0.156794
H14   H     H_    0.811206 0.439564 0.188909 0.133688
H15   H     H_    0.188848 0.439058 0.811094 0.133823
H16   H     H_    0.311206 0.939564 0.188906 0.133688
H17   H     H_    0.688848 0.939058 0.811090 0.133822
H18   H     H_    0.499750 0.311141 0.601407 0.133518
H19   H     H_    0.499754 0.311133 0.398968 0.133508
H20   H     H_    0.999750 0.811141 0.601407 0.133518
H21   H     H_    0.999754 0.811133 0.398968 0.133508
H22   H     H_    0.499907 0.380066 0.601738 0.156713
H23   H     H_    0.517489 0.062223 0.272234 0.128907
H24   H     H_    0.499911 0.380059 0.398383 0.156700
H25   H     H_    0.999907 0.880066 0.601738 0.156713
H26   H     H_    0.999911 0.880059 0.398383 0.156700
H27   H     H_    0.939069 0.688811 0.560886 0.133847
H28   H     H_    0.060431 0.688753 0.439497 0.133938
H29   H     H_    0.439069 0.188811 0.560882 0.133848
H30   H     H_    0.560432 0.188753 0.439501 0.133939
H31   H     H_    0.938923 0.619869 0.561070 0.156842
H32   H     H_    0.060820 0.619820 0.439146 0.157036
H33   H     H_    0.438923 0.119869 0.561066 0.156844
H34   H     H_    0.512137 0.063456 0.698214 0.128136
H35   H     H_    0.560820 0.119820 0.439150 0.157038
H36   H     H_    0.500234 0.688704 0.398609 0.133390
H37   H     H_    0.500272 0.688712 0.601004 0.133377
H38   H     H_    0.000234 0.188704 0.398609 0.133391
H39   H     H_    0.000272 0.188712 0.601004 0.133377
H40   H     H_    0.954896 0.546872 0.255766 0.137835
H41   H     H_    0.061076 0.521303 0.728573 0.129610
H42   H     H_    0.454506 0.046488 0.256152 0.137660
H43   H     H_    0.561194 0.020956 0.728459 0.129540
H44   H     H_    0.500074 0.619774 0.398286 0.156579
H45   H     H_    0.688807 0.500202 0.412509 0.133400
H46   H     H_    0.500112 0.619782 0.601589 0.156566
H47   H     H_    0.000074 0.119774 0.398286 0.156579
H48   H     H_    0.000112 0.119782 0.601589 0.156566
H49   H     H_    0.939575 0.311151 0.560533 0.133666
H50   H     H_    0.060935 0.311098 0.439069 0.133696
H51   H     H_    0.439575 0.811151 0.560530 0.133666
H52   H     H_    0.560935 0.811098 0.439074 0.133695
H53   H     H_    0.939184 0.380086 0.560888 0.156194
H54   H     H_    0.061078 0.380043 0.438889 0.156166
H55   H     H_    0.439184 0.880086 0.560884 0.156191
H56   H     H_    0.311193 0.499703 0.587490 0.133489
H57   H     H_    0.561078 0.880042 0.438894 0.156163
H58   H     H_    0.936671 0.484505 0.352337 0.146907
H59   H     H_    0.049257 0.457408 0.661489 0.138929
H60   H     H_    0.436809 0.983967 0.352202 0.146818
H61   H     H_    0.549012 0.957132 0.661731 0.138811
H62   H     H_    0.981543 0.437519 0.229237 0.146409
H63   H     H_    0.987983 0.435907 0.801089 0.147425
H64   H     H_    0.482075 0.937360 0.228710 0.146511
H65   H     H_    0.487615 0.935980 0.801458 0.147377
H66   H     H_    0.044671 0.452770 0.244697 0.136853
H67   H     H_    0.188807 0.000202 0.412510 0.133400
H68   H     H_    0.938654 0.478170 0.772111 0.145707
H69   H     H_    0.545070 0.953143 0.244294 0.137027
H70   H     H_    0.438528 0.978522 0.772239 0.145787
H71   H     H_    0.062847 0.515124 0.147648 0.128525
H72   H     H_    0.950517 0.542075 0.838778 0.135772
H73   H     H_    0.562720 0.015652 0.147780 0.128601
H74   H     H_    0.450753 0.042356 0.838540 0.135887
H75   H     H_    0.688776 0.500163 0.210106 0.133417
H76   H     H_    0.311224 0.499660 0.789894 0.133504
H77   H     H_    0.188776 0.000163 0.210106 0.133417
H78   H     H_    0.811193 0.999703 0.587490 0.133489
H79   H     H_    0.811224 0.999660 0.789894 0.133503
H80   H     H_    0.619850 0.499963 0.278531 0.156646
H81   H     H_    0.380150 0.499776 0.721468 0.156673
H82   H     H_    0.119850 0.999963 0.278531 0.156647
H83   H     H_    0.880150 0.999776 0.721468 0.156673
H84   H     H_    0.619879 0.500003 0.481850 0.156627
H85   H     H_    0.380121 0.499820 0.518150 0.156654
H86   H     H_    0.119879 0.000003 0.481850 0.156627
H87   H     H_    0.880121 0.999820 0.518149 0.156654
H88   H     H_    0.811134 0.560926 0.188946 0.133725
O1    O     O_R   0.944560 0.468710 0.055440 -0.625918
O2    O     O_R   0.444560 0.499880 0.607950 -0.623569
O3    O     O_R   0.055440 0.999880 0.392050 -0.623580
O4    O     O_R   0.944560 0.999880 0.607950 -0.623569
O5    O     O_R   0.500000 0.444470 0.552540 -0.623556
O6    O     O_R   0.500000 0.444470 0.447460 -0.623557
O7    O     O_R   0.000000 0.944470 0.552540 -0.623557
O8    O     O_R   1.000000 0.944470 0.447460 -0.623557
O9    O     O_R   0.944560 0.531300 0.055450 -0.626842
O10   O     O_R   0.055440 0.531300 0.944550 -0.625430
O11   O     O_R   0.444560 0.031300 0.055450 -0.626844
O12   O     O_R   0.055440 0.468710 0.944560 -0.624506
O13   O     O_R   0.555440 0.031300 0.944550 -0.625436
O14   O     O_R   0.000010 0.468710 0.093020 -0.627138
O15   O     O_R   0.999990 0.468710 0.906980 -0.627529
O16   O     O_R   0.500010 0.968710 0.093020 -0.627177
O17   O     O_R   0.499990 0.968710 0.906980 -0.627511
O18   O     O_R   0.000010 0.531300 0.093030 -0.624342
O19   O     O_R   0.999990 0.531300 0.906970 -0.623976
O20   O     O_R   0.500010 0.031300 0.093030 -0.624306
O21   O     O_R   0.499990 0.031300 0.906970 -0.623992
O22   O     O_R   0.031280 0.555400 0.468730 -0.625262
O23   O     O_R   0.444560 0.968710 0.055440 -0.625913
O24   O     O_R   0.968720 0.555400 0.531270 -0.624460
O25   O     O_R   0.531280 0.055400 0.468730 -0.625256
O26   O     O_R   0.468720 0.055400 0.531270 -0.624455
O27   O     O_R   0.031290 0.499960 0.375690 -0.624121
O28   O     O_R   0.968710 0.499960 0.624310 -0.626821
O29   O     O_R   0.531290 0.999960 0.375690 -0.624154
O30   O     O_R   0.468710 0.999960 0.624310 -0.626850
O31   O     O_R   0.968700 0.499940 0.438280 -0.627281
O32   O     O_R   0.031300 0.499940 0.561720 -0.624565
O33   O     O_R   0.468700 0.999940 0.438280 -0.627247
O34   O     O_R   0.555440 0.968710 0.944560 -0.624505
O35   O     O_R   0.531300 0.999940 0.561720 -0.624538
O36   O     O_R   0.031310 0.444530 0.468680 -0.626814
O37   O     O_R   0.968690 0.444530 0.531320 -0.626014
O38   O     O_R   0.531310 0.944530 0.468680 -0.626819
O39   O     O_R   0.468690 0.944530 0.531320 -0.626020
O40   O     O_R   0.500010 0.555340 0.552490 -0.623559
O41   O     O_R   0.499990 0.555340 0.447510 -0.623560
O42   O     O_R   0.000010 0.055340 0.552490 -0.623559
O43   O     O_R   0.999990 0.055340 0.447510 -0.623560
O44   O     O_R   0.555450 0.499900 0.497080 -0.623582
O45   O     O_R   0.444550 0.499900 0.502920 -0.623573
O46   O     O_R   0.055450 0.999900 0.497080 -0.623582
O47   O     O_R   0.944550 0.999900 0.502920 -0.623573
O48   O     O_R   0.555440 0.499880 0.392050 -0.623580
Zn1   Zn    Zn3+2 0.000000 0.458210 0.000000 0.936880
Zn2   Zn    Zn3+2 0.499990 0.499910 0.429870 0.940091
Zn3   Zn    Zn3+2 0.000010 0.999910 0.570130 0.940092
Zn4   Zn    Zn3+2 0.999990 0.999910 0.429870 0.940091
Zn5   Zn    Zn3+2 0.500000 0.958210 0.000000 0.936870
Zn6   Zn    Zn3+2 0.000000 0.541790 0.000000 0.939920
Zn7   Zn    Zn3+2 0.500000 0.041790 0.000000 0.939929
Zn8   Zn    Zn3+2 0.041800 0.499960 0.458210 0.939599
Zn9   Zn    Zn3+2 0.958200 0.499960 0.541790 0.937086
Zn10  Zn    Zn3+2 0.541800 0.999960 0.458210 0.939596
Zn11  Zn    Zn3+2 0.458200 0.999960 0.541790 0.937088
Zn12  Zn    Zn3+2 0.500010 0.499910 0.570130 0.940092

loop_
_geom_bond_atom_site_label_1
_geom_bond_atom_site_label_2
_ccdc_geom_bond_type
C152  H41   S    
C87   C91   A    
C49   H54   S    
C28   H38   S    
C83   C87   A    
C57   C80   A    
C90   C95   A    
C105  C131  A    
C31   H46   S    
C107  H3    S    
C106  C132  A    
C21   C76   S    
C62   C152  S    
C65   H62   S    
C115  H6    S    
C46   C79   A    
C56   C140  S    
O2    Zn12  S    
O14   Zn1   S    
C62   H59   S    
C74   C114  S    
C55   C62   S    
C29   C33   A    
C8    C23   A    
C55   C139  S    
C89   C94   A    
C91   C96   S    
C32   H47   S    
C56   C72   S    
C138  O27   A    
C70   C74   S    
C81   O12   A    
C163  H24   S    
C140  O29   A    
C77   C147  S    
C142  O36   A    
C75   H72   S    
C130  C134  A    
C111  O16   A    
O20   Zn7   S    
C157  C168  A    
C141  O35   A    
C19   C74   S    
C50   C53   A    
C27   C31   A    
C135  O24   A    
C28   C32   A    
C44   H50   S    
C112  O17   A    
C63   C153  S    
C86   C90   A    
C30   C34   A    
O27   Zn8   S    
C98   C102  T    
C4    C168  S    
C27   H37   S    
C18   C137  S    
O36   Zn8   S    
C54   C70   S    
C150  O47   A    
C85   H86   S    
C129  C133  A    
C68   H83   S    
C137  O26   A    
C119  C123  A    
C69   C147  S    
C103  C121  S    
O17   Zn5   S    
C162  H22   S    
O11   Zn7   S    
C84   C88   A    
C22   C58   S    
C145  O43   A    
C79   C148  S    
C54   C61   S    
C146  O44   A    
C81   C119  S    
C35   C78   A    
C106  C115  A    
C76   H73   S    
C136  C153  S    
C58   C141  S    
C143  O39   A    
C64   H61   S    
C45   C50   A    
C144  O40   A    
C66   H63   S    
C139  O32   A    
C67   C136  S    
C95   C99   S    
C127  C131  A    
C78   C146  S    
C155  O5    A    
C101  C132  S    
C61   C65   S    
C48   C52   A    
O34   Zn5   S    
C37   C39   S    
C126  C130  A    
C72   H69   S    
C2    H76   S    
C157  C162  A    
C55   C71   S    
C122  H9    S    
C135  O22   A    
C33   C36   A    
O12   Zn1   S    
O28   Zn9   S    
C104  C134  S    
C32   C36   A    
C105  C113  A    
O44   Zn12  S    
C153  H42   S    
C111  C136  S    
C13   C57   A    
C11   C25   A    
C44   C59   A    
C65   C70   S    
C8    H27   S    
C67   C72   S    
C118  C122  A    
C159  H19   S    
C122  C127  A    
C69   H65   S    
O16   Zn5   S    
C91   C158  A    
C156  O8    A    
C29   C38   A    
C17   C135  S    
C19   C151  S    
C88   H56   S    
C109  O18   A    
C43   C59   A    
O42   Zn3   S    
O48   Zn2   S    
C140  O33   A    
C165  C167  A    
C106  H2    S    
C14   C17   A    
C128  H15   S    
C4    C7    T    
C78   C83   A    
C15   H33   S    
C58   C64   S    
C80   C149  S    
C62   C66   S    
O21   Zn7   S    
C3    C161  A    
C9    C23   A    
O22   Zn8   S    
C64   C69   S    
C138  O31   A    
C116  C120  A    
C20   C75   S    
C51   C53   A    
C13   C94   A    
C8    C12   A    
C31   C34   A    
C111  O20   A    
C61   C151  S    
C109  C114  S    
C19   C54   S    
C26   C30   A    
C115  C119  A    
C108  H4    S    
O25   Zn10  S    
C10   H29   S    
C93   C97   S    
C10   C25   A    
C21   C153  S    
C116  H7    S    
C108  C117  A    
O47   Zn4   S    
C47   H52   S    
C61   H58   S    
C29   H39   S    
C112  C147  S    
C68   C82   A    
O31   Zn9   S    
C109  O14   A    
C92   C120  S    
C11   H30   S    
C73   H70   S    
C81   O10   A    
C96   C100  T    
O15   Zn1   S    
O10   Zn6   S    
C161  C165  A    
C107  C116  A    
O18   Zn6   S    
C110  O19   A    
C36   C145  S    
O29   Zn10  S    
C84   H85   S    
C127  H14   S    
C24   H79   S    
O1    Zn1   S    
O37   Zn9   S    
C146  O48   A    
C13   H77   S    
O40   Zn12  S    
C83   H84   S    
C15   C18   A    
O41   Zn2   S    
C165  H26   S    
C130  H17   S    
C34   C144  S    
C35   H80   S    
C139  O28   A    
C5    C6    T    
C160  C164  A    
C123  H10   S    
C21   H23   S    
C94   C98   S    
C73   C77   S    
C149  O3    A    
C124  H11   S    
C162  C166  A    
C144  O41   A    
C12   C17   A    
C69   C73   S    
O26   Zn11  S    
C99   C104  T    
C137  O25   A    
O33   Zn11  S    
C114  C151  S    
O23   Zn5   S    
C39   C42   T    
C1    O1    A    
C50   H55   S    
C9    H28   S    
C22   H34   S    
O4    Zn3   S    
C163  C166  A    
C24   C95   A    
C85   C89   A    
C145  O42   A    
C47   C51   A    
C82   C86   A    
C14   H32   S    
O46   Zn3   S    
C20   C152  S    
C75   C125  S    
C26   H36   S    
C9    C14   A    
C46   H81   S    
C108  C134  A    
C80   C85   A    
C11   C16   A    
C66   C71   S    
C49   C52   A    
O30   Zn11  S    
O6    Zn2   S    
C129  H16   S    
C67   H64   S    
O5    Zn12  S    
C164  C167  A    
C22   C77   S    
C3    C5    S    
C21   C56   S    
O3    Zn4   S    
C26   C37   A    
C63   H60   S    
C7    C25   S    
C35   C158  A    
C107  C133  A    
C38   C40   S    
C89   H67   S    
C79   C84   A    
O45   Zn2   S    
C90   H78   S    
C124  C129  A    
C158  H75   S    
C102  C133  S    
C24   C68   A    
C149  O46   A    
O9    Zn6   S    
C105  H88   S    
C57   H82   S    
C44   C49   A    
C45   C60   A    
C65   C114  S    
C72   C76   S    
C76   C136  S    
C100  C131  S    
C20   H12   S    
C2    C46   A    
C142  O37   A    
C154  H43   S    
O35   Zn10  S    
C10   C15   A    
C30   H44   S    
C110  O15   A    
O43   Zn4   S    
C48   H53   S    
C155  C166  S    
C64   C154  S    
C159  C168  A    
C70   H66   S    
C74   H71   S    
C147  C154  S    
C117  C121  A    
C112  O21   A    
C150  O4    A    
C47   C60   A    
O38   Zn10  S    
C92   O11   A    
O24   Zn9   S    
C51   H57   S    
C151  H40   S    
C16   H35   S    
C43   C48   A    
O8    Zn4   S    
C155  O6    A    
C43   H49   S    
C20   C55   S    
C128  C132  A    
C33   H48   S    
C63   C67   S    
C77   H74   S    
C157  H18   S    
C41   C59   S    
C161  H21   S    
C42   C60   S    
C164  H25   S    
C103  O34   A    
C156  C167  S    
C86   H87   S    
C52   C142  S    
C53   C143  S    
C125  C152  S    
C117  H8    S    
C156  O7    A    
C148  O45   A    
C103  O13   A    
C28   C38   A    
O39   Zn11  S    
C87   H45   S    
C56   C63   S    
C71   H68   S    
C82   C150  S    
O19   Zn6   S    
C40   C41   T    
C3    C160  A    
C45   H51   S    
C159  C163  A    
C160  H20   S    
C141  O30   A    
C113  H5    S    
C22   C154  S    
C88   C93   A    
C2    C93   A    
C19   H1    S    
C148  O2    A    
C126  H13   S    
C143  O38   A    
C66   C125  S    
C92   O23   A    
O7    Zn3   S    
C121  C126  A    
C71   C75   S    
C123  C128  A    
C54   C138  S    
C27   C37   A    
C6    C23   S    
C12   H31   S    
C1    C118  S    
C110  C125  S    
C113  C118  A    
C1    O9    A    
C16   C18   A    
O32   Zn8   S    
C97   C101  T    
C120  C124  A    
C58   C73   S    
O13   Zn7   S    
