data_mof_unit_34024.cif
_audit_creation_date              2012-12-10T17:38:46-0500
_audit_creation_method            fapswitch 2.2
_symmetry_space_group_name_H-M    P1
_symmetry_Int_Tables_number       1
_space_group_crystal_system       triclinic
_cell_length_a                    12.35808
_cell_length_b                    13.191873
_cell_length_c                    23.489892
_cell_angle_alpha                 78.078002
_cell_angle_beta                  101.354359
_cell_angle_gamma                 116.528175
_cell_volume                      3328.35489142

loop_
_atom_site_label
_atom_site_type_symbol
_atom_type_description
_atom_site_fract_x
_atom_site_fract_y
_atom_site_fract_z
_atom_type_partial_charge
C1    C     C_R   0.854704 0.287012 0.502983 0.848368
C2    C     C_R   0.802879 0.365434 0.026299 -0.154762
C3    C     C_R   0.802936 0.362962 0.967249 -0.157710
C4    C     C_R   0.902242 0.442055 0.937579 -0.015062
C5    C     C_R   0.001821 0.524804 0.967726 -0.016168
C6    C     C_R   0.101542 0.604801 0.938285 -0.015210
C7    C     C_R   0.200408 0.686934 0.968836 -0.156048
C8    C     C_R   0.200801 0.688830 0.028082 -0.155340
C9    C     C_R   0.904983 0.440078 0.878436 0.536295
C10   C     C_R   0.099678 0.600316 0.878887 0.536128
C11   C     C_R   0.090100 0.490130 0.772690 -0.107542
C12   C     C_R   0.000089 0.500750 0.608881 0.826558
C13   C     C_R   0.089357 0.485261 0.713838 -0.175124
C14   C     C_R   0.000718 0.504366 0.671227 -0.040963
C15   C     C_R   0.913240 0.528786 0.688593 -0.225482
C16   C     C_R   0.914603 0.534215 0.747348 -0.095984
C17   C     C_R   0.002820 0.514739 0.789689 0.347465
C18   C     C_R   0.011982 0.425799 0.245564 -0.135016
C19   C     C_R   0.005796 0.413666 0.305730 -0.058118
C20   C     C_R   0.001424 0.503006 0.328559 -0.101940
C21   C     C_R   0.999660 0.599784 0.290564 -0.234451
C22   C     C_R   0.003117 0.609149 0.230712 -0.080695
C23   C     C_R   0.145156 0.713452 0.492355 0.800959
C24   C     C_R   0.008886 0.521991 0.208021 0.320136
C25   C     C_R   0.264692 0.032725 0.448307 -0.005038
C26   C     C_R   0.228030 0.835308 0.483580 -0.068937
C27   C     C_R   0.818293 0.083162 0.518917 -0.192398
C28   C     C_R   0.741635 0.967479 0.522418 -0.129424
C29   C     C_R   0.616535 0.931350 0.508598 -0.179084
C30   C     C_R   0.565322 0.011363 0.488044 0.092546
C31   C     C_R   0.645843 0.128592 0.477216 0.089414
C32   C     C_R   0.437159 0.979213 0.477862 0.070746
C33   C     C_R   0.391565 0.062956 0.453639 0.074537
C34   C     C_R   0.999772 0.499471 0.391270 0.851399
C35   C     C_R   0.473907 0.174326 0.435348 -0.210701
C36   C     C_R   0.597815 0.204788 0.444522 -0.179472
C37   C     C_R   0.353229 0.866645 0.493021 -0.240749
C38   C     C_R   0.184296 0.918907 0.463254 -0.217656
C39   C     C_R   0.771907 0.165260 0.498595 -0.094221
C40   C     C_R   0.345311 0.320578 0.586296 -0.285121
C41   C     C_R   0.760998 0.647345 0.422285 0.082138
C42   C     C_R   0.666596 0.681974 0.406281 -0.233047
C43   C     C_R   0.563375 0.627927 0.435719 -0.187835
C44   C     C_R   0.553573 0.538156 0.481778 0.001491
C45   C     C_R   0.101732 0.607180 0.117916 0.545106
C46   C     C_R   0.653671 0.506491 0.496926 0.278018
C47   C     C_R   0.448666 0.477861 0.513186 -0.025537
C48   C     C_R   0.446744 0.386284 0.557172 0.141464
C49   C     C_R   0.545698 0.358867 0.572102 -0.261651
C50   C     C_R   0.647545 0.418914 0.543335 -0.192623
C51   C     C_R   0.344764 0.502721 0.503069 -0.000931
C52   C     C_R   0.244554 0.345197 0.573819 0.177095
C53   C     C_R   0.905470 0.449036 0.116665 0.540307
C54   C     C_R   0.902361 0.446734 0.056967 -0.016306
C55   C     C_R   0.002002 0.527006 0.027569 -0.016663
C56   C     C_R   0.102182 0.608843 0.057986 -0.017443
Cu1   Cu    Cu3+1 0.098270 0.475410 0.513370 0.982806
Cu2   Cu    Cu3+1 0.901730 0.524590 0.486630 0.935012
H1    H     H_    0.725102 0.302875 0.047910 0.192560
H2    H     H_    0.995914 0.668550 0.307409 0.151513
H3    H     H_    0.999834 0.683463 0.201851 0.152945
H4    H     H_    0.087153 0.895248 0.457556 0.170297
H5    H     H_    0.444445 0.239834 0.413600 0.190961
H6    H     H_    0.383091 0.800942 0.512627 0.154401
H7    H     H_    0.914443 0.108359 0.531987 0.201862
H8    H     H_    0.563429 0.840138 0.513208 0.126715
H9    H     H_    0.779163 0.905131 0.537516 0.157719
H10   H     H_    0.725127 0.298680 0.945025 0.191213
H11   H     H_    0.654154 0.288583 0.424067 0.195745
H12   H     H_    0.544677 0.289905 0.606730 0.165990
H13   H     H_    0.344106 0.248499 0.618848 0.170969
H14   H     H_    0.340091 0.572057 0.470699 0.130901
H15   H     H_    0.840798 0.690203 0.399275 0.130515
H16   H     H_    0.492598 0.657433 0.421512 0.142838
H17   H     H_    0.673494 0.750961 0.370914 0.162180
H18   H     H_    0.719216 0.392922 0.559124 0.212107
H19   H     H_    0.278099 0.749556 0.947187 0.191405
H20   H     H_    0.278838 0.752746 0.050402 0.191417
H21   H     H_    0.158261 0.474391 0.805173 0.151549
H22   H     H_    0.158183 0.466733 0.701802 0.185782
H23   H     H_    0.843872 0.544112 0.656832 0.166047
H24   H     H_    0.847010 0.553594 0.760057 0.148312
H25   H     H_    0.013950 0.358075 0.226952 0.177996
N1    N     N_R   0.004834 0.527349 0.146029 -0.465261
N2    N     N_R   0.002621 0.518495 0.850333 -0.468101
N3    N     N_R   0.246280 0.438190 0.533650 -0.220931
N4    N     N_R   0.754320 0.561190 0.466710 -0.212345
O1    O     O_R   0.972510 0.318130 0.516820 -0.559403
O2    O     O_2   0.810026 0.373459 0.145282 -0.527372
O3    O     O_2   0.811413 0.359661 0.849361 -0.534817
O4    O     O_2   0.193600 0.677521 0.849778 -0.533853
O5    O     O_R   0.806530 0.359650 0.494230 -0.620404
O6    O     O_R   0.082990 0.479200 0.593420 -0.536893
O7    O     O_R   0.917010 0.520720 0.570830 -0.611864
O8    O     O_R   0.193470 0.640350 0.505770 -0.598178
O9    O     O_R   0.027490 0.681870 0.483180 -0.591333
O10   O     O_R   0.082990 0.479280 0.429170 -0.571211
O11   O     O_R   0.917010 0.520800 0.406580 -0.587517
O12   O     O_2   0.198018 0.683325 0.148054 -0.530403
C57   C     C_2   0.993441 0.303302 0.341725 0.851768
O13   O     O_2   0.037041 0.246233 0.327882 -0.549087
O14   O     O_R   0.926023 0.260891 0.389302 -0.786978
H26   H     H_    0.918322 0.181847 0.407888 0.331670
C58   C     C_2   0.212613 0.117505 0.429562 0.841465
O15   O     O_2   0.229985 0.178037 0.382235 -0.553061
O16   O     O_R   0.141361 0.126204 0.466092 -0.742099
H27   H     H_    0.115662 0.190668 0.450364 0.344543
C59   C     C_2   0.137812 0.261532 0.603550 0.850187
O17   O     O_2   0.087968 0.291705 0.632175 -0.592673
O18   O     O_R   0.103147 0.144814 0.604324 -0.766883
H28   H     H_    0.033994 0.094703 0.628756 0.329562

loop_
_geom_bond_atom_site_label_1
_geom_bond_atom_site_label_2
_ccdc_geom_bond_type
C30   C32   A    
C55   C56   A    
C10   N2    A    
C40   H13   S    
C41   C42   A    
C35   C36   A    
Cu2   O11   S    
C34   O11   A    
Cu2   N4    S    
C8    C56   A    
C58   O16   S    
C7    C8    A    
C15   H23   S    
C53   C54   A    
C23   O9    A    
C42   H17   S    
C53   N1    A    
C18   C24   A    
C28   C29   A    
C5    C6    A    
O16   H27   S    
C15   C16   A    
C34   O10   A    
C59   O17   D    
C18   C19   A    
C23   C26   S    
Cu2   O9    S    
O18   H28   S    
C9    N2    A    
C3    H10   S    
C45   C56   A    
C27   C39   A    
C16   C17   A    
Cu1   N3    S    
C42   C43   A    
C44   C47   A    
C7    H19   S    
C20   C34   S    
C1    O1    A    
C13   H22   S    
Cu1   O6    S    
C21   C22   A    
C8    H20   S    
C12   O7    A    
C51   N3    A    
C57   O14   S    
C58   O15   D    
C44   C46   A    
C41   N4    A    
C28   H9    S    
C21   H2    S    
C45   O12   S    
C2    H1    S    
C26   C38   A    
C47   C51   A    
C40   C52   A    
C43   C44   A    
C29   C30   A    
C27   H7    S    
C50   H18   S    
C25   C38   A    
C47   C48   A    
Cu1   O10   S    
C16   H24   S    
C18   H25   S    
C26   C37   A    
C32   C37   A    
C11   H21   S    
C48   C49   A    
C12   C14   S    
C10   O4    S    
C1    O5    A    
C49   H12   S    
C2    C54   A    
C17   N2    S    
C12   O6    A    
C45   N1    A    
C51   H14   S    
C3    C4    A    
C37   H6    S    
C36   H11   S    
C46   N4    A    
C40   C48   A    
C54   C55   A    
C11   C17   A    
C31   C36   A    
C5    C55   A    
C4    C5    A    
C9    O3    S    
C6    C10   A    
C19   C57   S    
C59   O18   S    
C25   C58   S    
C6    C7    A    
C46   C50   A    
Cu1   O1    S    
C32   C33   A    
C19   C20   A    
C52   N3    A    
C2    C3    A    
C24   N1    S    
C22   H3    S    
C53   O2    S    
C11   C13   A    
Cu1   Cu2   S    
C30   C31   A    
C43   H16   S    
C57   O13   D    
C33   C35   A    
C23   O8    A    
C22   C24   A    
Cu2   O7    S    
O14   H26   S    
C1    C39   S    
C41   H15   S    
C29   H8    S    
C20   C21   A    
C52   C59   S    
C49   C50   A    
Cu1   O8    S    
C27   C28   A    
C31   C39   A    
C14   C15   A    
C35   H5    S    
C4    C9    A    
C13   C14   A    
Cu2   O5    S    
C25   C33   A    
C38   H4    S    
