data_mof_unit_32715.cif
_audit_creation_date              2012-10-26T18:50:02-0400
_audit_creation_method            fapswitch 2.2
_symmetry_space_group_name_H-M    P1
_symmetry_Int_Tables_number       1
_space_group_crystal_system       triclinic
_cell_length_a                    10.786764
_cell_length_b                    12.943003
_cell_length_c                    11.787545
_cell_angle_alpha                 100.738936
_cell_angle_beta                  95.082339
_cell_angle_gamma                 91.708011
_cell_volume                      1608.71251411

loop_
_atom_site_label
_atom_site_type_symbol
_atom_type_description
_atom_site_fract_x
_atom_site_fract_y
_atom_site_fract_z
_atom_type_partial_charge
C1    C     C_R   0.500905 0.299253 0.477927 0.521594
C2    C     C_R   0.551413 0.864811 0.459965 -0.146643
C3    C     C_R   0.460814 0.028487 0.538896 0.030579
C4    C     C_R   0.537627 0.971412 0.461077 0.031217
C5    C     C_R   0.382972 0.398280 0.014718 -0.033091
C6    C     C_R   0.624561 0.595237 0.984424 -0.034247
C7    C     C_R   0.388039 0.411449 0.138213 0.147331
C8    C     C_R   0.608126 0.592004 0.862121 0.144747
C9    C     C_R   0.555061 0.539158 0.159400 0.046481
C10   C     C_R   0.451609 0.455062 0.839922 0.047997
C11   C     C_R   0.547265 0.532328 0.036149 -0.028164
C12   C     C_R   0.498119 0.700655 0.521951 0.523724
C13   C     C_R   0.460089 0.461343 0.963082 -0.027500
C14   C     C_R   0.262896 0.500147 0.499235 0.528961
C15   C     C_R   0.737086 0.499912 0.500826 0.526703
C16   C     C_R   0.127954 0.322156 0.547773 -0.106845
C17   C     C_R   0.872264 0.678937 0.455244 -0.098636
C18   C     C_R   0.062863 0.235277 0.571511 -0.105908
C19   C     C_R   0.937127 0.765329 0.430140 -0.101317
C20   C     C_R   0.934188 0.235416 0.572693 -0.108135
C21   C     C_R   0.065425 0.764147 0.426076 -0.103049
C22   C     C_R   0.870210 0.322560 0.550494 -0.082138
C23   C     C_R   0.488088 0.813976 0.534074 -0.018530
C24   C     C_R   0.129342 0.676699 0.447411 -0.086503
C25   C     C_R   0.934473 0.412103 0.526771 0.012437
C26   C     C_R   0.065394 0.587874 0.473101 0.010990
C27   C     C_R   0.064865 0.411854 0.525194 0.000113
C28   C     C_R   0.935213 0.588746 0.476347 0.006930
C29   C     C_R   0.871090 0.500611 0.502464 -0.013900
C30   C     C_R   0.128891 0.499585 0.497962 -0.015151
C31   C     C_1   0.298365 0.318946 0.940574 0.143315
C32   C     C_1   0.722551 0.662699 0.056993 0.139958
C33   C     C_1   0.333479 0.818911 0.680452 0.189535
C34   C     C_R   0.509632 0.185751 0.465258 -0.015576
C35   C     C_1   0.655322 0.178820 0.310885 0.207635
C36   C     C_3   0.686611 0.672971 0.816873 -0.208695
C37   C     C_3   0.639079 0.784525 0.849367 -0.302188
C38   C     C_3   0.712885 0.863762 0.797397 -0.442015
C39   C     C_3   0.289971 0.347554 0.185173 -0.206651
C40   C     C_3   0.160156 0.393283 0.172740 -0.305740
C41   C     C_3   0.060404 0.323021 0.208668 -0.430932
C42   C     C_R   0.599020 0.021525 0.385023 -0.138599
C43   C     C_R   0.397490 0.977898 0.613343 -0.138443
C44   C     C_R   0.585421 0.128595 0.386390 -0.030248
C45   C     C_R   0.409333 0.870427 0.610447 -0.034752
C46   C     C_R   0.447807 0.135285 0.540642 -0.142778
Cu1   Cu    Cu3+1 0.509250 0.507730 0.615930 0.932947
Cu2   Cu    Cu3+1 0.490750 0.492270 0.384070 0.929216
H1    H     H_    0.115864 0.831502 0.407080 0.119567
H2    H     H_    0.389782 0.179629 0.601179 0.114538
H3    H     H_    0.658384 0.977531 0.325570 0.116545
H4    H     H_    0.336788 0.021568 0.671670 0.123739
H5    H     H_    0.386074 0.399845 0.782886 0.142811
H6    H     H_    0.622479 0.592757 0.216216 0.142692
H7    H     H_    0.812194 0.868821 0.832974 0.168921
H8    H     H_    0.707163 0.840209 0.701486 0.153682
H9    H     H_    0.673999 0.942691 0.819463 0.160211
H10   H     H_    0.539393 0.784432 0.817423 0.199668
H11   H     H_    0.646604 0.811201 0.944854 0.174930
H12   H     H_    0.883553 0.167567 0.590332 0.117891
H13   H     H_    0.785452 0.672238 0.852455 0.132243
H14   H     H_    0.691928 0.656090 0.723991 0.208957
H15   H     H_    0.049082 0.246367 0.147187 0.171841
H16   H     H_    0.086410 0.308373 0.297189 0.159798
H17   H     H_    0.970008 0.361905 0.207942 0.176242
H18   H     H_    0.160703 0.473231 0.226917 0.193092
H19   H     H_    0.133601 0.401336 0.081803 0.177737
H20   H     H_    0.286030 0.264646 0.137710 0.128746
H21   H     H_    0.311726 0.339069 0.274633 0.203697
H22   H     H_    0.227651 0.317379 0.545685 0.116713
H23   H     H_    0.772793 0.684230 0.458965 0.112221
H24   H     H_    0.112450 0.167322 0.588225 0.119474
H25   H     H_    0.887634 0.833588 0.414285 0.114514
H26   H     H_    0.770126 0.318421 0.551426 0.136266
H27   H     H_    0.229161 0.680114 0.444388 0.136249
H28   H     H_    0.610524 0.820727 0.400308 0.112066
N1    N     N_R   0.523180 0.519350 0.790130 -0.231239
N2    N     N_R   0.476820 0.480650 0.209870 -0.230495
N3    N     N_1   0.231186 0.255870 0.881486 -0.321529
N4    N     N_1   0.800512 0.716231 0.114869 -0.317308
N5    N     N_1   0.272552 0.777549 0.736333 -0.285362
N6    N     N_1   0.711447 0.219156 0.250601 -0.293278
O1    O     O_R   0.506570 0.354460 0.582000 -0.512848
O2    O     O_R   0.493430 0.645540 0.418000 -0.511505
O3    O     O_R   0.490940 0.341410 0.386200 -0.506346
O4    O     O_R   0.509060 0.658590 0.613800 -0.507317
O5    O     O_R   0.327470 0.506520 0.597900 -0.483296
O6    O     O_R   0.672530 0.493480 0.402100 -0.489171
O7    O     O_R   0.311840 0.493460 0.402100 -0.532835
O8    O     O_R   0.688160 0.506540 0.597900 -0.528557

loop_
_geom_bond_atom_site_label_1
_geom_bond_atom_site_label_2
_ccdc_geom_bond_type
C6    C32   S    
C23   C45   A    
C41   H15   S    
C33   C45   S    
C39   H20   S    
C21   H1    S    
C12   C23   S    
C3    C43   A    
C28   C29   A    
C19   C21   A    
C24   C26   A    
C14   O5    A    
C43   H4    S    
C12   O2    A    
C8    C36   S    
Cu2   N2    S    
C10   H5    S    
C10   N1    A    
C38   H7    S    
C18   H24   S    
Cu2   O6    S    
C34   C46   A    
Cu1   O1    S    
C20   H12   S    
C5    C13   A    
C37   H10   S    
C42   H3    S    
C16   C27   A    
C40   H18   S    
C27   C30   A    
C25   C29   A    
C42   C44   A    
C14   C30   S    
C36   H14   S    
C35   N6    T    
C1    C34   S    
C15   C29   S    
C1    O3    A    
Cu1   O4    S    
C19   H25   S    
C34   C44   A    
C39   C40   S    
C5    C7    A    
C41   H17   S    
C22   C25   A    
Cu2   O2    S    
Cu1   O5    S    
C2    C4    A    
C14   O7    A    
C37   C38   S    
C32   N4    T    
C38   H9    S    
C9    C11   A    
Cu1   Cu2   S    
C39   H21   S    
C16   H22   S    
C35   C44   S    
C43   C45   A    
C37   H11   S    
C7    N2    A    
C40   C41   S    
C20   C22   A    
C17   H23   S    
Cu2   O7    S    
C8    N1    A    
Cu1   O8    S    
C1    O1    A    
Cu1   N1    S    
C3    C4    A    
C6    C11   A    
C2    H28   S    
C40   H19   S    
C36   C37   S    
C7    C39   S    
C17   C28   A    
C10   C13   A    
C6    C8    A    
C24   H27   S    
C31   N3    T    
C25   C27   A    
C46   H2    S    
C3    C46   A    
C26   C28   A    
C12   O4    A    
C15   O8    A    
C11   C13   A    
C4    C42   A    
C17   C19   A    
C18   C20   A    
C9    N2    A    
C38   H8    S    
C16   C18   A    
C21   C24   A    
C2    C23   A    
C22   H26   S    
Cu2   O3    S    
C9    H6    S    
C41   H16   S    
C33   N5    T    
C36   H13   S    
C15   O6    A    
C5    C31   S    
C26   C30   A    
