data_mof_unit_60930.cif
_audit_creation_date              2012-10-26T17:35:56-0400
_audit_creation_method            fapswitch 2.2
_symmetry_space_group_name_H-M    P1
_symmetry_Int_Tables_number       1
_space_group_crystal_system       triclinic
_cell_length_a                    32.09609
_cell_length_b                    23.664179
_cell_length_c                    21.728708
_cell_angle_alpha                 90.167934
_cell_angle_beta                  132.573434
_cell_angle_gamma                 89.718047
_cell_volume                      12153.2472054

loop_
_atom_site_label
_atom_site_type_symbol
_atom_type_description
_atom_site_fract_x
_atom_site_fract_y
_atom_site_fract_z
_atom_type_partial_charge
C1    C     C_R   0.891676 0.000140 0.890339 0.547749
C2    C     C_1   0.280128 0.000061 0.280478 -0.043042
C3    C     C_R   0.148484 0.020173 0.489178 -0.064749
C4    C     C_R   0.002987 0.882120 0.311162 0.005246
C5    C     C_R   0.977312 0.832297 0.262854 -0.100799
C6    C     C_R   0.996225 0.778804 0.299637 -0.104292
C7    C     C_R   0.041105 0.773640 0.385597 -0.099848
C8    C     C_R   0.066369 0.821992 0.434837 -0.117002
C9    C     C_R   0.046793 0.875592 0.398406 -0.080379
C10   C     C_R   0.893690 0.051471 0.591485 0.037105
C11   C     C_R   0.859447 0.013724 0.523362 -0.050175
C12   C     C_R   0.803298 0.027069 0.452918 -0.120784
C13   C     C_1   0.219865 0.500646 0.718457 -0.046002
C14   C     C_R   0.779772 0.078236 0.448474 -0.101806
C15   C     C_R   0.812416 0.116321 0.514520 -0.105303
C16   C     C_R   0.868503 0.103150 0.585019 -0.105262
C17   C     C_R   0.439887 0.405773 0.638085 0.016544
C18   C     C_R   0.389999 0.405252 0.624345 -0.102569
C19   C     C_R   0.343637 0.372304 0.560701 -0.122553
C20   C     C_R   0.346288 0.338777 0.510527 -0.112632
C21   C     C_R   0.395506 0.337705 0.524346 -0.101827
C22   C     C_R   0.441987 0.370459 0.587977 -0.074295
C23   C     C_R   0.611727 0.491011 0.412653 0.041096
C24   C     C_1   0.780128 0.500061 0.280479 -0.043051
C25   C     C_R   0.630729 0.438739 0.407555 -0.101512
C26   C     C_R   0.682893 0.415954 0.477295 -0.118370
C27   C     C_R   0.717632 0.445287 0.552846 -0.106902
C28   C     C_R   0.700496 0.497729 0.558646 -0.111329
C29   C     C_R   0.648394 0.520734 0.489109 -0.064702
C30   C     C_R   0.503365 0.382104 0.311542 0.005190
C31   C     C_R   0.477811 0.332207 0.263382 -0.100794
C32   C     C_R   0.496831 0.278767 0.300326 -0.104263
C33   C     C_R   0.541700 0.273728 0.386308 -0.099842
C34   C     C_R   0.566858 0.322150 0.435403 -0.116991
C35   C     C_1   0.668780 0.000406 0.668577 -0.022120
C36   C     C_R   0.547188 0.375697 0.398806 -0.080397
C37   C     C_R   0.393667 0.551421 0.591469 0.037113
C38   C     C_R   0.359442 0.513662 0.523358 -0.050173
C39   C     C_R   0.303283 0.526979 0.452915 -0.120792
C40   C     C_R   0.279731 0.578129 0.448459 -0.101810
C41   C     C_R   0.312357 0.616226 0.514491 -0.105303
C42   C     C_R   0.368453 0.603084 0.584989 -0.105260
C43   C     C_R   0.124157 0.001575 0.934788 0.000738
C44   C     C_R   0.128706 0.954860 0.979681 -0.108803
C45   C     C_R   0.181428 0.932426 0.048644 -0.106727
C46   C     C_1   0.331222 0.000046 0.331033 -0.021226
C47   C     C_R   0.231053 0.956877 0.076653 -0.089464
C48   C     C_R   0.228195 0.004099 0.035955 -0.097982
C49   C     C_R   0.175709 0.026273 0.966390 -0.083912
C50   C     C_R   0.958166 0.109149 0.144234 0.044299
C51   C     C_R   0.002013 0.144835 0.210200 -0.076528
C52   C     C_R   0.012498 0.198018 0.195432 -0.104451
C53   C     C_R   0.980581 0.217556 0.114298 -0.108628
C54   C     C_R   0.938514 0.183600 0.047556 -0.109342
C55   C     C_R   0.927745 0.130439 0.061820 -0.051222
C56   C     C_R   0.882592 0.034261 0.074156 0.006483
C57   C     C_1   0.168780 0.500406 0.668581 -0.022142
C58   C     C_R   0.838794 0.072066 0.049090 -0.087365
C59   C     C_R   0.782046 0.061705 0.978818 -0.097189
C60   C     C_R   0.767077 0.013723 0.930667 -0.090167
C61   C     C_R   0.809042 0.977318 0.951036 -0.109876
C62   C     C_R   0.866102 0.988524 0.019632 -0.105535
C63   C     C_R   0.070599 0.092995 0.884959 0.030820
C64   C     C_R   0.099357 0.103329 0.970396 -0.041899
C65   C     C_R   0.102610 0.156959 0.000283 -0.099658
C66   C     C_R   0.077203 0.202897 0.946442 -0.112304
C67   C     C_R   0.048631 0.195154 0.862722 -0.110691
C68   C     C_1   0.831222 0.500047 0.331034 -0.021234
C69   C     C_R   0.045251 0.141532 0.832426 -0.090826
C70   C     C_R   0.624155 0.501603 0.934785 0.000741
C71   C     C_R   0.628715 0.454890 0.979690 -0.108811
C72   C     C_R   0.681442 0.432464 0.048652 -0.106735
C73   C     C_R   0.731061 0.456924 0.076652 -0.089466
C74   C     C_R   0.728193 0.504148 0.035946 -0.097982
C75   C     C_R   0.675702 0.526312 0.966380 -0.083914
C76   C     C_R   0.457780 0.608987 0.143825 0.044193
C77   C     C_R   0.427315 0.630148 0.061336 -0.051178
C78   C     C_R   0.437897 0.683344 0.046878 -0.109251
C79   C     C_R   0.000078 0.891503 0.499474 0.536239
C80   C     C_R   0.479816 0.717466 0.113496 -0.108660
C81   C     C_R   0.511775 0.698062 0.194703 -0.104473
C82   C     C_R   0.501477 0.644844 0.209665 -0.076550
C83   C     C_R   0.382468 0.533836 0.073995 0.006395
C84   C     C_R   0.366148 0.488045 0.019627 -0.105648
C85   C     C_R   0.309132 0.476658 0.951026 -0.109898
C86   C     C_R   0.267036 0.512919 0.930513 -0.090154
C87   C     C_R   0.281828 0.560941 0.978513 -0.097168
C88   C     C_R   0.338535 0.571491 0.048778 -0.087328
C89   C     C_R   0.570575 0.593011 0.884937 0.030838
C90   C     C_R   0.999906 0.108500 0.499975 0.572315
C91   C     C_R   0.599339 0.603354 0.970375 -0.041910
C92   C     C_R   0.602580 0.656986 0.000248 -0.099671
C93   C     C_R   0.577154 0.702915 0.946392 -0.112301
C94   C     C_R   0.548573 0.695162 0.862670 -0.110686
C95   C     C_R   0.545205 0.641539 0.832388 -0.090809
C96   C     C_1   0.106761 0.980028 0.797887 0.218725
C97   C     C_1   0.956148 0.098428 0.275229 0.168163
C98   C     C_1   0.892637 0.025280 0.207064 0.221699
C99   C     C_1   0.081362 0.074520 0.762491 0.176601
C100  C     C_1   0.606768 0.480063 0.797890 0.218730
C101  C     C_R   0.500078 0.391503 0.499457 0.536304
C102  C     C_1   0.455755 0.598259 0.274821 0.168269
C103  C     C_1   0.392527 0.524869 0.206912 0.221699
C104  C     C_1   0.581332 0.574547 0.762463 0.176597
C105  C     C_R   0.108333 0.999932 0.109253 0.542421
C106  C     C_R   0.499906 0.608500 0.499972 0.572250
C107  C     C_R   0.999914 0.000102 0.620804 0.542332
C108  C     C_R   0.999859 0.998463 0.379010 0.542258
C109  C     C_R   0.499914 0.500099 0.620804 0.542341
C110  C     C_R   0.499858 0.498455 0.379008 0.542275
C111  C     C_R   0.499983 0.106505 0.500057 0.540658
C112  C     C_R   0.499977 0.893500 0.499904 0.541854
C113  C     C_R   0.999982 0.606505 0.500057 0.540665
C114  C     C_R   0.999977 0.393500 0.499904 0.541850
C115  C     C_R   0.607906 0.000097 0.608267 0.545782
C116  C     C_R   0.391676 0.500140 0.890348 0.547725
C117  C     C_R   0.392095 0.000021 0.391686 0.545768
C118  C     C_R   0.107906 0.500097 0.608268 0.545785
C119  C     C_R   0.892095 0.500021 0.391686 0.545766
C120  C     C_1   0.000121 0.830333 0.499921 -0.029392
C121  C     C_1   0.999731 0.169649 0.499743 0.011694
C122  C     C_1   0.500125 0.330333 0.499891 -0.029328
C123  C     C_1   0.499731 0.669649 0.499739 0.011580
C124  C     C_1   0.000026 0.779088 0.500192 -0.043756
C125  C     C_1   0.999707 0.220900 0.499619 -0.019267
C126  C     C_1   0.500033 0.279088 0.500163 -0.043723
C127  C     C_R   0.608333 0.499932 0.109252 0.542423
C128  C     C_1   0.499707 0.720900 0.499616 -0.019340
C129  C     C_1   0.499981 0.218937 0.500241 -0.043620
C130  C     C_1   0.499774 0.781068 0.499581 -0.030069
C131  C     C_1   0.999974 0.718937 0.500256 -0.043636
C132  C     C_1   0.999774 0.281068 0.499584 -0.030049
C133  C     C_R   0.005192 0.000060 0.885571 0.540778
C134  C     C_R   0.995040 0.000467 0.114657 0.543087
C135  C     C_R   0.505192 0.500059 0.885571 0.540788
C136  C     C_R   0.495050 0.500461 0.114668 0.543100
C137  C     C_1   0.499975 0.167681 0.500200 -0.023602
C138  C     C_1   0.779733 0.000748 0.777020 -0.045074
C139  C     C_1   0.499867 0.832327 0.499662 -0.015501
C140  C     C_1   0.999971 0.667681 0.500204 -0.023616
C141  C     C_1   0.999867 0.332327 0.499663 -0.015497
C142  C     C_3   0.003990 0.939247 0.789942 -0.242117
C143  C     C_3   0.051726 0.019387 0.261308 -0.240373
C144  C     C_3   0.982465 0.941084 0.196013 -0.241887
C145  C     C_3   0.957341 0.035505 0.746577 -0.232831
C146  C     C_3   0.504009 0.439245 0.789961 -0.242116
C147  C     C_3   0.551657 0.519575 0.261253 -0.240363
C148  C     C_3   0.482683 0.441017 0.196225 -0.241832
C149  C     C_1   0.220261 0.000030 0.221306 -0.040678
C150  C     C_3   0.457330 0.535488 0.746568 -0.232841
C151  C     C_3   0.993104 0.938779 0.709213 -0.126261
C152  C     C_3   0.055993 0.018690 0.336483 -0.116173
C153  C     C_3   0.979552 0.938945 0.263781 -0.135127
C154  C     C_3   0.955601 0.041673 0.674232 -0.118942
C155  C     C_3   0.493125 0.438773 0.709234 -0.126265
C156  C     C_3   0.555913 0.518892 0.336417 -0.116180
C157  C     C_3   0.479768 0.438861 0.263989 -0.135168
C158  C     C_3   0.455585 0.541653 0.674216 -0.118938
C159  C     C_3   0.067147 0.029846 0.855072 -0.035072
C160  C     C_1   0.279733 0.500749 0.777041 -0.044989
C161  C     C_3   0.945178 0.047591 0.158150 -0.027475
C162  C     C_3   0.567138 0.529862 0.855064 -0.035068
C163  C     C_3   0.445005 0.547386 0.157958 -0.027570
C164  C     C_3   0.009887 0.000981 0.821919 0.003913
C165  C     C_3   0.991652 0.002544 0.179618 0.006947
C166  C     C_3   0.509887 0.500980 0.821920 0.003913
C167  C     C_3   0.491646 0.502514 0.179611 0.006936
C168  C     C_3   0.001252 0.000500 0.691399 0.000153
C169  C     C_3   0.997659 0.998836 0.307556 0.001691
C170  C     C_3   0.501251 0.500497 0.691398 0.000151
C171  C     C_1   0.720261 0.500030 0.221308 -0.040684
C172  C     C_3   0.497652 0.498819 0.307548 0.001685
C173  C     C_3   0.063773 0.022233 0.777038 -0.036419
C174  C     C_3   0.948398 0.043101 0.236531 -0.043436
C175  C     C_3   0.563765 0.522251 0.777029 -0.036422
C176  C     C_3   0.448227 0.542903 0.236342 -0.043368
C177  C     C_1   0.830836 0.000540 0.828183 -0.026295
C178  C     C_1   0.169175 0.999924 0.170433 -0.029441
C179  C     C_1   0.330835 0.500542 0.828201 -0.026292
C180  C     C_1   0.669175 0.499924 0.170434 -0.029441
C181  C     C_R   0.939852 0.905799 0.638053 0.016553
C182  C     C_1   0.719866 0.000645 0.718444 -0.046018
C183  C     C_R   0.889965 0.905296 0.624316 -0.102575
C184  C     C_R   0.843591 0.872364 0.560662 -0.122554
C185  C     C_R   0.846228 0.838836 0.510474 -0.112641
C186  C     C_R   0.895444 0.837747 0.524290 -0.101829
C187  C     C_R   0.941938 0.870483 0.587932 -0.074272
C188  C     C_R   0.111704 0.990597 0.412603 0.041005
C189  C     C_R   0.130513 0.938265 0.407291 -0.101446
C190  C     C_R   0.182591 0.915280 0.476938 -0.118340
C191  C     C_R   0.217439 0.944470 0.552608 -0.106883
C192  C     C_R   0.200499 0.996969 0.558622 -0.111332
Cu1   Cu    Cu3+1 0.000000 0.944180 0.000000 0.898892
Cu2   Cu    Cu3+1 0.500030 0.000000 0.562050 0.947639
Cu3   Cu    Cu3+1 0.999970 0.500000 0.437950 0.941697
Cu4   Cu    Cu3+1 0.000030 0.500000 0.562050 0.947614
Cu5   Cu    Cu3+1 1.000000 0.055820 0.000000 0.917067
Cu6   Cu    Cu3+1 0.500000 0.444180 0.000000 0.898826
Cu7   Cu    Cu3+1 0.500000 0.555820 0.000000 0.917085
Cu8   Cu    Cu3+1 0.944190 0.000000 0.444630 0.975074
Cu9   Cu    Cu3+1 0.055810 1.000000 0.555370 0.965375
Cu10  Cu    Cu3+1 0.444190 0.500000 0.444630 0.975143
Cu11  Cu    Cu3+1 0.555810 0.500000 0.555370 0.965327
Cu12  Cu    Cu3+1 0.499970 1.000000 0.437950 0.941689
H1    H     H_    0.042491 0.913838 0.836596 0.115642
H2    H     H_    0.082832 0.990162 0.270725 0.120306
H3    H     H_    0.619590 0.569711 0.015657 0.133089
H4    H     H_    0.624794 0.662743 0.065572 0.110965
H5    H     H_    0.579587 0.744505 0.969494 0.107607
H6    H     H_    0.528801 0.731017 0.820602 0.111503
H7    H     H_    0.522845 0.640791 0.767700 0.107940
H8    H     H_    0.017966 0.913769 0.215386 0.143619
H9    H     H_    0.918247 0.014409 0.723882 0.120658
H10   H     H_    0.470864 0.415720 0.781950 0.146262
H11   H     H_    0.582872 0.490461 0.270787 0.120252
H12   H     H_    0.518287 0.413834 0.215706 0.143574
H13   H     H_    0.418244 0.514378 0.723883 0.120662
H14   H     H_    0.027860 0.912563 0.724324 0.122645
H15   H     H_    0.060352 0.063153 0.355648 0.103928
H16   H     H_    0.934173 0.933823 0.229806 0.143057
H17   H     H_    0.065406 0.060578 0.256418 0.123825
H18   H     H_    0.973005 0.082651 0.678801 0.102997
H19   H     H_    0.527892 0.412569 0.724357 0.122650
H20   H     H_    0.560098 0.563372 0.355411 0.103824
H21   H     H_    0.434405 0.433587 0.230014 0.143004
H22   H     H_    0.472969 0.582639 0.678763 0.103008
H23   H     H_    0.885547 0.931224 0.660459 0.108145
H24   H     H_    0.805421 0.873083 0.550034 0.114112
H25   H     H_    0.810244 0.813442 0.461192 0.111386
H26   H     H_    0.897763 0.811161 0.486067 0.120273
H27   H     H_    0.980159 0.867860 0.599100 0.106235
H28   H     H_    0.944531 0.920071 0.139717 0.104777
H29   H     H_    0.104761 0.914322 0.349931 0.113256
H30   H     H_    0.195917 0.874709 0.472122 0.111276
H31   H     H_    0.257743 0.926570 0.606455 0.110488
H32   H     H_    0.227806 0.019886 0.617131 0.106128
H33   H     H_    0.136701 0.061213 0.495621 0.112038
H34   H     H_    0.942302 0.834775 0.195850 0.101758
H35   H     H_    0.976093 0.741324 0.261274 0.111085
H36   H     H_    0.055978 0.732226 0.414158 0.118234
H37   H     H_    0.100937 0.818020 0.501788 0.118497
H38   H     H_    0.067928 0.910690 0.439860 0.165938
H39   H     H_    0.955751 0.078255 0.766116 0.134172
H40   H     H_    0.874457 0.974077 0.521357 0.163295
H41   H     H_    0.777960 0.997508 0.401436 0.104977
H42   H     H_    0.736292 0.088386 0.393819 0.110639
H43   H     H_    0.794274 0.156146 0.511276 0.107839
H44   H     H_    0.892621 0.133724 0.635338 0.092946
H45   H     H_    0.385569 0.431180 0.660476 0.108150
H46   H     H_    0.305466 0.373010 0.550071 0.114109
H47   H     H_    0.310314 0.313370 0.461253 0.111383
H48   H     H_    0.397834 0.311120 0.486134 0.120269
H49   H     H_    0.480209 0.367850 0.599147 0.106231
H50   H     H_    0.542515 0.413845 0.836623 0.115637
H51   H     H_    0.605066 0.414694 0.350291 0.113231
H52   H     H_    0.696372 0.375429 0.472647 0.111292
H53   H     H_    0.758004 0.427543 0.606765 0.110501
H54   H     H_    0.727719 0.520756 0.617062 0.106149
H55   H     H_    0.636456 0.561734 0.495387 0.111983
H56   H     H_    0.442804 0.334585 0.196370 0.101752
H57   H     H_    0.476785 0.241231 0.262074 0.111098
H58   H     H_    0.556650 0.232354 0.414995 0.118189
H59   H     H_    0.601421 0.318273 0.502370 0.118471
H60   H     H_    0.568260 0.410849 0.440156 0.166047
H61   H     H_    0.565191 0.560820 0.256227 0.123914
H62   H     H_    0.374472 0.474027 0.521362 0.163299
H63   H     H_    0.277960 0.497409 0.401442 0.104983
H64   H     H_    0.236244 0.588256 0.393805 0.110638
H65   H     H_    0.294194 0.656038 0.511237 0.107832
H66   H     H_    0.392556 0.633667 0.635297 0.092946
H67   H     H_    0.092920 0.934883 0.964365 0.139353
H68   H     H_    0.183764 0.896394 0.081472 0.117591
H69   H     H_    0.271733 0.939659 0.130602 0.120029
H70   H     H_    0.266719 0.023618 0.058204 0.114441
H71   H     H_    0.175098 0.063038 0.936262 0.126823
H72   H     H_    0.444828 0.419870 0.139998 0.104860
H73   H     H_    0.029396 0.132954 0.274522 0.104003
H74   H     H_    0.045961 0.224069 0.247519 0.110117
H75   H     H_    0.989005 0.258676 0.103137 0.107134
H76   H     H_    0.914475 0.198136 0.984193 0.102534
H77   H     H_    0.896333 0.105542 0.006671 0.134330
H78   H     H_    0.848883 0.109327 0.086033 0.124149
H79   H     H_    0.749631 0.090703 0.962305 0.115404
H80   H     H_    0.723057 0.005317 0.876578 0.121604
H81   H     H_    0.797435 0.940924 0.911976 0.117190
H82   H     H_    0.895683 0.961511 0.026101 0.121629
H83   H     H_    0.455727 0.578237 0.766093 0.134156
H84   H     H_    0.119595 0.069680 0.015666 0.133085
H85   H     H_    0.124818 0.162708 0.065605 0.110981
H86   H     H_    0.079646 0.244485 0.969555 0.107606
H87   H     H_    0.028876 0.231016 0.820666 0.111502
H88   H     H_    0.022901 0.140794 0.767742 0.107948
H89   H     H_    0.592934 0.434908 0.964383 0.139343
H90   H     H_    0.683787 0.396432 0.081487 0.117584
H91   H     H_    0.771745 0.439713 0.130601 0.120027
H92   H     H_    0.766712 0.523674 0.058189 0.114433
H93   H     H_    0.675082 0.563078 0.936244 0.126813
H94   H     H_    0.970840 0.915731 0.781927 0.146260
H95   H     H_    0.396006 0.605130 0.006282 0.134335
H96   H     H_    0.413827 0.697780 0.983463 0.102616
H97   H     H_    0.488096 0.758614 0.102185 0.107147
H98   H     H_    0.545125 0.724244 0.246695 0.110133
H99   H     H_    0.528886 0.633073 0.274031 0.104008
H100  H     H_    0.395827 0.461126 0.026218 0.121893
H101  H     H_    0.297659 0.440243 0.912066 0.117176
H102  H     H_    0.223050 0.504373 0.876425 0.121619
H103  H     H_    0.249308 0.589827 0.961882 0.115411
H104  H     H_    0.348485 0.608782 0.085593 0.124160
N1    N     N_1   0.139889 0.947418 0.813792 -0.295137
N2    N     N_1   0.961724 0.141336 0.305810 -0.312233
N3    N     N_1   0.849659 0.011408 0.184689 -0.290644
N4    N     N_1   0.095459 0.114865 0.750820 -0.304755
N5    N     N_1   0.639908 0.447466 0.813804 -0.295147
N6    N     N_1   0.461158 0.641190 0.305231 -0.312153
N7    N     N_1   0.349595 0.510831 0.184564 -0.290693
N8    N     N_1   0.595412 0.614897 0.750775 -0.304752
O1    O     O_R   0.918590 0.952860 0.918660 -0.506902
O2    O     O_R   0.000010 0.047140 0.091100 -0.500437
O3    O     O_R   0.000010 0.952860 0.091100 -0.523595
O4    O     O_R   0.999990 0.047140 0.908900 -0.503156
O5    O     O_R   0.499990 0.452860 0.908900 -0.531050
O6    O     O_R   0.500010 0.547140 0.091100 -0.500416
O7    O     O_R   0.500010 0.452860 0.091100 -0.523681
O8    O     O_R   0.499990 0.547140 0.908900 -0.503139
O9    O     O_R   0.952840 0.918610 0.452640 -0.506332
O10   O     O_R   0.047160 0.081390 0.547360 -0.496597
O11   O     O_R   0.047160 0.918610 0.547360 -0.511303
O12   O     O_R   0.081410 0.047140 0.081340 -0.515487
O13   O     O_R   0.952840 0.081390 0.452640 -0.492414
O14   O     O_R   0.452840 0.418610 0.452640 -0.506330
O15   O     O_R   0.547160 0.581390 0.547360 -0.496655
O16   O     O_R   0.547160 0.418610 0.547360 -0.511312
O17   O     O_R   0.452840 0.581390 0.452640 -0.492360
O18   O     O_R   0.952870 0.000000 0.544470 -0.523751
O19   O     O_R   0.047130 0.000000 0.455530 -0.531184
O20   O     O_R   0.452870 0.500000 0.544470 -0.523749
O21   O     O_R   0.547130 0.500000 0.455530 -0.531203
O22   O     O_R   0.047100 0.000000 0.638690 -0.493365
O23   O     O_R   0.081410 0.952860 0.081340 -0.507270
O24   O     O_R   0.952900 1.000000 0.361310 -0.491331
O25   O     O_R   0.547100 0.500000 0.638690 -0.493357
O26   O     O_R   0.452900 0.500000 0.361310 -0.491316
O27   O     O_R   0.499940 0.080170 0.445900 -0.504089
O28   O     O_R   0.500060 0.919830 0.554100 -0.500212
O29   O     O_R   0.500060 0.080170 0.554100 -0.498420
O30   O     O_R   0.499940 0.919830 0.445900 -0.498304
O31   O     O_R   0.999940 0.580170 0.445900 -0.504108
O32   O     O_R   0.000060 0.419830 0.554100 -0.500231
O33   O     O_R   0.000060 0.580170 0.554100 -0.498405
O34   O     O_R   0.918590 0.047140 0.918660 -0.511107
O35   O     O_R   0.999940 0.419830 0.445900 -0.498283
O36   O     O_R   0.581370 1.000000 0.529060 -0.500425
O37   O     O_R   0.418630 0.000000 0.470940 -0.499151
O38   O     O_R   0.081370 0.500000 0.529060 -0.500416
O39   O     O_R   0.918630 0.500000 0.470940 -0.499154
O40   O     O_R   0.581380 0.000000 0.634570 -0.503983
O41   O     O_R   0.418620 0.000000 0.365430 -0.503982
O42   O     O_R   0.081380 0.500000 0.634570 -0.503994
O43   O     O_R   0.918620 0.500000 0.365430 -0.503985
O44   O     O_R   0.418590 0.452860 0.918660 -0.506926
O45   O     O_R   0.581410 0.547140 0.081340 -0.515496
O46   O     O_R   0.581410 0.452860 0.081340 -0.507269
O47   O     O_R   0.418590 0.547140 0.918660 -0.511160
O48   O     O_R   0.999990 0.952860 0.908900 -0.531062

loop_
_geom_bond_atom_site_label_1
_geom_bond_atom_site_label_2
_ccdc_geom_bond_type
C30   C157  S    
C19   C20   A    
C147  H61   S    
C10   C154  S    
C100  N5    T    
C181  C187  A    
Cu4   O39   S    
C127  C180  S    
C117  O41   A    
Cu1   O1    S    
C68   C119  S    
C5    C6    A    
C39   H63   S    
C9    H38   S    
C12   H41   S    
C67   H87   S    
C145  H39   S    
C73   C74   A    
C37   C42   A    
C24   C171  S    
C112  O30   A    
C153  H16   S    
C131  C140  T    
Cu4   O33   S    
C1    O1    A    
Cu5   O2    S    
Cu8   Cu9   S    
C169  C174  S    
C35   C115  S    
C111  O29   A    
C158  H22   S    
C13   C160  S    
C96   N1    T    
C187  H27   S    
C64   H84   S    
C83   C88   A    
C59   C60   A    
C21   C22   A    
C146  H50   S    
C70   C162  S    
Cu2   O37   S    
C80   H97   S    
C45   C47   A    
C27   H53   S    
Cu10  Cu11  S    
C51   C52   A    
C183  H23   S    
C72   C73   A    
C127  O46   A    
Cu8   O18   S    
C58   H78   S    
C126  C129  S    
C135  O8    A    
C33   H58   S    
C46   C117  S    
C142  C151  S    
C154  H18   S    
C183  C184  A    
C37   C38   A    
Cu1   O48   S    
C79   C120  S    
C100  C175  S    
C134  C165  S    
C115  O40   A    
C146  H10   S    
C147  C167  S    
Cu2   O29   S    
C104  N8    T    
C56   C62   A    
C184  H24   S    
C76   C82   A    
C17   C155  S    
C89   C162  S    
C91   C92   A    
C111  C137  S    
Cu1   O3    S    
C1    O34   A    
C134  O3    A    
Cu5   O12   S    
Cu11  O16   S    
C19   H46   S    
C6    C7    A    
C186  H26   S    
C101  C122  S    
C30   C36   A    
C144  C165  S    
C10   C16   A    
C32   C33   A    
C161  C174  S    
C102  N6    T    
Cu5   O4    S    
C103  C176  S    
C135  C166  S    
C111  O27   A    
C138  C182  S    
Cu3   Cu4   S    
C86   H102  S    
C129  C137  T    
C20   C21   A    
C49   H71   S    
C55   H77   S    
C148  C167  S    
C107  O18   A    
C96   C173  S    
C186  C187  A    
C161  C165  S    
C57   C118  S    
C48   H70   S    
C190  C191  A    
C155  H19   S    
C63   C159  S    
C90   O13   A    
Cu9   O10   S    
C7    C8    A    
C85   C86   A    
Cu12  O36   S    
C29   H55   S    
C34   H59   S    
C108  O19   A    
C23   C29   A    
Cu4   O32   S    
C147  H11   S    
C112  O28   A    
C38   C39   A    
C78   C80   A    
C143  H2    S    
C13   C57   T    
C150  C166  S    
C103  N7    T    
C184  C185  A    
C51   H73   S    
C71   H89   S    
Cu8   O9    S    
C84   H100  S    
C63   C69   A    
C148  H72   S    
C41   H65   S    
C31   H56   S    
Cu7   O47   S    
C89   C91   A    
C189  H29   S    
C77   H95   S    
C78   H96   S    
C66   C67   A    
Cu3   O43   S    
C97   N2    T    
C117  O37   A    
C99   N4    T    
C94   C95   A    
C148  H12   S    
C109  O25   A    
C101  O14   A    
Cu2   O28   S    
Cu6   O44   S    
C113  C140  S    
C114  C141  S    
Cu2   O40   S    
C39   C40   A    
C158  C170  S    
C162  C175  S    
Cu3   O38   S    
C25   C26   A    
C156  C172  S    
Cu10  O17   S    
C42   H66   S    
C62   H82   S    
C121  C125  T    
C90   O10   A    
C83   C84   A    
Cu2   Cu12  S    
C17   C18   A    
Cu3   O35   S    
C145  C154  S    
C94   H6    S    
C28   H54   S    
C90   C121  S    
C79   O11   A    
C52   C53   A    
Cu5   O34   S    
Cu6   O46   S    
C132  C141  T    
C59   H79   S    
C54   C55   A    
C91   H3    S    
C88   H104  S    
C136  C167  S    
C6    H35   S    
C156  H20   S    
C95   H7    S    
Cu9   O19   S    
C71   C72   A    
C3    C192  A    
Cu12  O27   S    
C8    H37   S    
C149  C178  T    
C150  H13   S    
C56   C58   A    
C4    C153  S    
C34   C36   A    
C148  C157  S    
Cu7   O45   S    
C61   C62   A    
C10   C11   A    
C63   C64   A    
C4    C5    A    
C7    H36   S    
C70   C75   A    
C159  C164  S    
C76   C163  S    
Cu10  O14   S    
C4    C9    A    
C138  C177  T    
C172  C176  S    
C101  O16   A    
C110  C172  S    
C45   H68   S    
C87   C88   A    
C41   C42   A    
C105  O23   A    
C152  C188  S    
C21   H48   S    
C25   H51   S    
C77   C78   A    
C109  C170  S    
C26   C27   A    
C118  O42   A    
C28   C29   A    
C142  C164  S    
C30   C31   A    
C127  O45   A    
C18   H45   S    
C191  H31   S    
C152  H15   S    
C115  O36   A    
C136  O7    A    
C18   C19   A    
C143  C165  S    
C22   H49   S    
C162  C166  S    
C146  C155  S    
C133  O48   A    
C192  H32   S    
C70   C71   A    
C79   O9    A    
C119  O43   A    
C157  H21   S    
C106  O17   A    
C181  C183  A    
C23   C156  S    
C81   H98   S    
C154  C168  S    
C130  C139  T    
Cu4   O42   S    
C151  C181  S    
C170  C175  S    
C84   C85   A    
C5    H34   S    
C16   H44   S    
Cu11  O15   S    
C86   C87   A    
C58   C59   A    
C53   C54   A    
C56   C161  S    
Cu11  O25   S    
C105  O12   A    
C116  O44   A    
C191  C192  A    
C60   C61   A    
C89   C95   A    
C99   C173  S    
C50   C51   A    
Cu10  O20   S    
C147  C156  S    
C44   H67   S    
C145  H9    S    
C40   H64   S    
C116  O47   A    
C143  C152  S    
C15   H43   S    
C133  C164  S    
C144  H8    S    
C44   C45   A    
C52   H74   S    
C65   H85   S    
C53   H75   S    
C83   C163  S    
C107  C168  S    
C97   C174  S    
C150  C158  S    
C144  H28   S    
Cu6   O7    S    
Cu7   O6    S    
C128  C130  S    
C109  O20   A    
C135  O5    A    
C185  H25   S    
C43   C159  S    
C17   C22   A    
C69   H88   S    
C64   C65   A    
Cu3   O31   S    
C106  O15   A    
C107  O22   A    
C26   H52   S    
C152  C169  S    
C155  C170  S    
C185  C186  A    
C48   C49   A    
C92   C93   A    
C189  C190  A    
C110  O21   A    
C24   C68   T    
Cu9   O22   S    
C116  C179  S    
C153  C169  S    
C87   H103  S    
C15   C16   A    
C75   H93   S    
C93   C94   A    
C105  C178  S    
C43   C44   A    
C3    C188  A    
C134  O2    A    
C81   C82   A    
Cu7   O8    S    
C2    C46   T    
C35   C182  T    
C36   H60   S    
C108  O24   A    
C157  C172  S    
C98   C174  S    
C102  C176  S    
C151  C168  S    
C142  H1    S    
C144  C153  S    
C1    C177  S    
C113  O31   A    
Cu12  O30   S    
C8    C9    A    
C106  C123  S    
C60   H80   S    
C136  O6    A    
Cu6   Cu7   S    
C190  H30   S    
C61   H81   S    
C2    C149  S    
C146  C166  S    
C108  C169  S    
C118  O38   A    
C50   C161  S    
C11   H40   S    
C112  C139  S    
C32   H57   S    
Cu6   O5    S    
C163  C176  S    
Cu9   O11   S    
C110  O26   A    
C104  C175  S    
C168  C173  S    
Cu1   O23   S    
C74   C75   A    
C76   C77   A    
C43   C49   A    
C20   H47   S    
C124  C131  S    
C188  C189  A    
C67   C69   A    
C37   C158  S    
C122  C126  T    
C163  C167  S    
C160  C179  T    
C92   H4    S    
C114  O35   A    
C47   C48   A    
C142  H94   S    
C33   C34   A    
C151  H14   S    
C3    H33   S    
C40   C41   A    
C12   C14   A    
C93   H5    S    
C171  C180  T    
C150  H83   S    
C98   N3    T    
C82   H99   S    
C85   H101  S    
Cu11  O21   S    
C54   H76   S    
C14   C15   A    
C31   C32   A    
C133  O4    A    
C80   C81   A    
C143  H17   S    
C11   C12   A    
C47   H69   S    
C145  C164  S    
C50   C55   A    
C73   H91   S    
C74   H92   S    
C38   H62   S    
C119  O39   A    
Cu10  O26   S    
C125  C132  S    
C113  O33   A    
C123  C128  T    
Cu8   O24   S    
Cu1   Cu5   S    
Cu12  O41   S    
C23   C25   A    
C66   H86   S    
C65   C66   A    
C159  C173  S    
C27   C28   A    
C72   H90   S    
C120  C124  T    
C114  O32   A    
Cu8   O13   S    
C14   H42   S    
