data_mof_unit_66800.cif
_audit_creation_date              2013-03-05T15:41:07-0500
_audit_creation_method            fapswitch 2.2
_symmetry_space_group_name_H-M    P1
_symmetry_Int_Tables_number       1
_space_group_crystal_system       triclinic
_cell_length_a                    8.686146
_cell_length_b                    14.919998
_cell_length_c                    15.410183
_cell_angle_alpha                 96.899542
_cell_angle_beta                  99.475741
_cell_angle_gamma                 91.415588
_cell_volume                      1953.58405218

loop_
_atom_site_label
_atom_site_type_symbol
_atom_site_description
_atom_site_fract_x
_atom_site_fract_y
_atom_site_fract_z
_atom_type_partial_charge
P1    P     P_3+3 0.947560 0.714050 0.560480 0.604885
O1    O     O_2   0.113690 0.728200 0.532750 -0.242541
O2    O     O_3   0.871900 0.612110 0.540440 -0.369026
O3    O     O_3   0.325660 0.668890 0.372600 -0.303539
O4    O     O_2   0.246171 0.831494 0.434906 -0.254725
O5    O     O_3   0.963017 0.752832 0.678268 -0.589952
O6    O     O_3   0.302293 0.815944 0.275172 -0.527297
C1    C     C_3   0.461768 0.882367 0.183039 -0.744826
H1    H     H_    0.537993 0.865884 0.132971 0.207542
P2    P     P_3+3 0.325150 0.423860 0.297970 0.525472
P3    P     P_3+3 0.858198 0.600218 0.214086 0.499241
O7    O     O_2   0.147570 0.451710 0.282630 -0.348559
O8    O     O_3   0.905540 0.621350 0.329600 -0.383695
O9    O     O_2   0.969303 0.528087 0.185252 -0.330487
O10   O     O_3   0.346173 0.305952 0.273271 -0.605615
O11   O     O_3   0.924975 0.693782 0.168480 -0.439412
C2    C     C_3   0.853276 0.775754 0.190076 0.334983
H2    H     H_    0.732733 0.770429 0.152402 -0.005259
C3    C     C_3   0.949007 0.853573 0.163292 -0.651485
H3    H     H_    0.015415 0.828287 0.110929 0.266968
C4    C     C_3   0.752969 0.334497 0.286270 0.408977
H4    H     H_    0.651793 0.356629 0.317502 0.093402
H5    H     H_    0.845397 0.389032 0.294542 0.073370
C5    C     C_3   0.696872 0.308762 0.187083 -0.920500
H6    H     H_    0.692491 0.234398 0.169028 0.333663
H7    H     H_    0.578553 0.333253 0.167408 0.200575
H8    H     H_    0.775712 0.340596 0.148620 0.241927
Ba1   Ba    Ba6+2 0.142880 0.544780 0.454020 1.668187
C6    C     C_3   0.031254 0.700712 0.745921 0.154838
C7    C     C_3   0.046637 0.757183 0.844187 -0.631873
C8    C     C_3   0.218724 0.243891 0.236001 0.180487
C9    C     C_3   0.292710 0.158160 0.196005 -0.627408
H9    H     H_    0.200700 0.104017 0.171040 0.219933
H10   H     H_    0.378668 0.132850 0.248315 0.212916
P4    P     P_3+3 0.862730 0.285940 0.439440 0.480232
O12   O     O_2   0.696600 0.271740 0.467230 -0.376745
O13   O     O_3   0.938380 0.387880 0.459490 -0.428571
O14   O     O_3   0.484630 0.331100 0.627330 -0.412773
O15   O     O_3   0.815539 0.259981 0.323745 -0.516738
P5    P     P_3+3 0.970989 0.381908 0.785338 0.499766
O16   O     O_3   0.389110 0.548970 0.605210 -0.376121
O17   O     O_3   0.904740 0.378630 0.670330 -0.351844
O18   O     O_2   0.839194 0.421522 0.832843 -0.320048
O19   O     O_3   0.968496 0.270264 0.806790 -0.530332
Ba2   Ba    Ba6+2 0.667290 0.455210 0.545900 1.660095
P6    P     P_3+3 0.364827 0.786290 0.381327 0.587642
C10   C     C_3   0.417395 0.796470 0.221349 0.275763
H11   H     H_    0.525557 0.771441 0.257224 -0.052485
H12   H     H_    0.528637 0.931017 0.236958 0.190688
O20   O     O_3   0.421180 0.451020 0.394720 -0.366135
C11   C     C_3   0.499868 0.761245 0.711913 0.364332
H13   H     H_    0.378836 0.782368 0.703136 0.109914
C12   C     C_3   0.601582 0.848060 0.755067 -0.692795
H14   H     H_    0.724765 0.839635 0.745803 0.167206
P7    P     P_3+3 0.488584 0.574928 0.720450 0.552180
O21   O     O_2   0.662730 0.548230 0.717350 -0.297808
O22   O     O_3   0.517627 0.691524 0.767205 -0.541277
H15   H     H_    0.040800 0.881879 0.219525 0.237878
C13   C     C_3   0.056221 0.221430 0.749810 0.180833
H16   H     H_    0.990701 0.213272 0.680800 0.112985
H17   H     H_    0.172402 0.255562 0.751194 0.070444
C14   C     C_3   0.083102 0.127894 0.778181 -0.534995
H18   H     H_    0.147034 0.089320 0.730244 0.145416
P8    P     P_3+3 0.453215 0.213522 0.623254 0.456259
C15   C     C_3   0.544747 0.270084 0.789899 0.495109
H19   H     H_    0.469799 0.328504 0.780261 0.058723
O23   O     O_2   0.590993 0.168320 0.585340 -0.371617
O24   O     O_3   0.479648 0.191949 0.734441 -0.556257
H20   H     H_    0.662941 0.285042 0.775934 0.176983
H21   H     H_    0.440673 0.259283 0.907036 0.228611
C16   C     C_3   0.557630 0.256375 0.887112 -0.853694
H22   H     H_    0.633926 0.311362 0.929014 0.222573
H23   H     H_    0.607579 0.190553 0.899287 0.310896
C17   C     C_R   0.019651 0.948488 0.541992 -0.043084
C18   C     C_R   0.830337 0.807711 0.504387 0.260072
C19   C     C_R   0.679706 0.778063 0.464905 -0.421528
C20   C     C_R   0.565862 0.833357 0.430192 0.245307
C21   C     C_R   0.605319 0.923704 0.428485 -0.234232
C22   C     C_R   0.759325 0.960491 0.460361 0.079417
C23   C     C_R   0.872540 0.904595 0.503902 -0.019045
H24   H     H_    0.648229 0.711035 0.468550 0.207196
C24   C     C_R   0.945351 0.096391 0.487811 0.049271
C25   C     C_R   0.059579 0.039663 0.528758 0.050532
C26   C     C_R   0.987821 0.193387 0.490435 0.149262
C27   C     C_R   0.141637 0.223589 0.530712 -0.424709
C28   C     C_R   0.255531 0.166246 0.562698 0.175415
C29   C     C_R   0.214992 0.075170 0.558055 -0.278861
C30   C     C_R   0.797586 0.052330 0.448605 -0.090086
H25   H     H_    0.513422 0.964481 0.400279 0.114048
H26   H     H_    0.307993 0.032381 0.578416 0.200947
C31   C     C_R   0.251288 0.475931 0.775524 -0.473168
C32   C     C_R   0.168022 0.437193 0.832414 0.312083
C33   C     C_R   0.235613 0.439104 0.922482 -0.293796
C34   C     C_R   0.381477 0.486175 0.957923 0.016643
C35   C     C_R   0.460272 0.527494 0.895989 -0.204815
C36   C     C_R   0.400265 0.515749 0.803602 0.183002
C37   C     C_R   0.606514 0.516646 0.090089 -0.216051
C38   C     C_R   0.660535 0.545668 0.179263 0.136856
C39   C     C_R   0.419607 0.484450 0.216078 0.324287
C40   C     C_R   0.354200 0.478408 0.123952 -0.284450
C41   C     C_R   0.447262 0.493263 0.058070 0.093289
C42   C     C_R   0.571115 0.524362 0.242526 -0.442641
H27   H     H_    0.692473 0.512748 0.047488 0.169630
H28   H     H_    0.171712 0.404936 0.964306 0.170098
H29   H     H_    0.231323 0.464795 0.103972 0.214251
H30   H     H_    0.193715 0.483150 0.710064 0.209126
C43   C     C_2   0.359784 0.721529 0.148620 1.043555
O25   O     O_2   0.445937 0.694628 0.097015 -0.705469
O26   O     O_R   0.211387 0.680982 0.141175 -0.699457
H31   H     H_    0.185697 0.632555 0.088320 0.324983
C44   C     C_2   0.183599 0.677406 0.730803 0.315068
H32   H     H_    0.275266 0.680817 0.785914 0.058642
O27   O     O_2   0.200554 0.642518 0.658585 -0.532162
C45   C     C_2   0.953660 0.609257 0.740652 0.626622
H33   H     H_    0.921427 0.566318 0.678635 0.113561
O28   O     O_2   0.943450 0.577072 0.808302 -0.578803
C46   C     C_2   0.097686 0.855373 0.844413 1.198456
O29   O     O_2   0.217960 0.874110 0.817836 -0.581786
O30   O     O_R   0.015268 0.924301 0.882950 -0.807864
H34   H     H_    0.080067 0.982496 0.900610 0.343461
C47   C     C_2   0.160179 0.716673 0.914512 0.491643
H35   H     H_    0.141509 0.647795 0.927506 0.061731
O31   O     O_2   0.273510 0.760435 0.957645 -0.482334
C48   C     C_2   0.897003 0.755910 0.880799 1.081448
O32   O     O_2   0.782757 0.714975 0.838377 -0.564044
O33   O     O_R   0.890365 0.797305 0.965734 -0.809683
H36   H     H_    0.787825 0.782792 0.985375 0.311367
C49   C     C_2   0.094692 0.269788 0.162630 0.873289
O34   O     O_2   0.102155 0.341162 0.132965 -0.657593
O35   O     O_R   0.974852 0.205907 0.123646 -0.751286
H37   H     H_    0.907443 0.225429 0.069562 0.343059
C50   C     C_2   0.140172 0.221717 0.310195 0.648764
H38   H     H_    0.108498 0.277460 0.353413 0.009126
O36   O     O_2   0.112362 0.143962 0.322545 -0.575062
C51   C     C_2   0.374242 0.174361 0.119948 0.691245
H39   H     H_    0.356783 0.235276 0.088167 -0.008874
O37   O     O_2   0.457487 0.117275 0.091267 -0.512684
C52   C     C_2   0.537463 0.728162 0.625547 0.924881
O38   O     O_2   0.663149 0.695906 0.622713 -0.624825
O39   O     O_R   0.418381 0.713118 0.553755 -0.712072
H40   H     H_    0.440501 0.658806 0.512994 0.370789
C53   C     C_2   0.603024 0.871034 0.853722 0.839663
H41   H     H_    0.681984 0.925044 0.890608 0.004265
O40   O     O_2   0.518166 0.830857 0.893171 -0.499231
C54   C     C_2   0.545278 0.928657 0.711526 1.053747
O41   O     O_2   0.578489 0.940533 0.639556 -0.599986
O42   O     O_R   0.450825 0.988400 0.753121 -0.724115
H42   H     H_    0.411870 0.036795 0.716242 0.355905
C55   C     C_2   0.321694 0.927707 0.141309 0.801879
H43   H     H_    0.241974 0.957016 0.182452 -0.000666
O43   O     O_2   0.298525 0.933655 0.061974 -0.491204
C56   C     C_2   0.928706 0.079186 0.776505 1.106431
O44   O     O_2   0.881674 0.017838 0.717538 -0.676929
O45   O     O_R   0.838869 0.104626 0.841942 -0.765630
H44   H     H_    0.737984 0.066755 0.833448 0.332171
C57   C     C_2   0.180393 0.135785 0.869305 0.573168
H45   H     H_    0.142018 0.175692 0.924851 0.058231
O46   O     O_2   0.302523 0.096904 0.881849 -0.502205
C58   C     C_2   0.851265 0.799907 0.287005 0.590109
H46   H     H_    0.753909 0.834130 0.307662 -0.119121
O47   O     O_2   0.967509 0.793044 0.341415 -0.489507
C59   C     C_2   0.188499 0.317829 0.540674 1.061376
O48   O     O_2   0.150310 0.368673 0.599880 -0.661877
O49   O     O_R   0.285063 0.348180 0.486645 -0.760386
H47   H     H_    0.325185 0.411298 0.511434 0.390327
C60   C     C_2   0.117890 0.908635 0.612719 0.574921
H48   H     H_    0.073289 0.900992 0.672582 0.080730
O50   O     O_2   0.248279 0.885077 0.604933 -0.570943
C61   C     C_2   0.688183 0.094280 0.383339 0.603271
H49   H     H_    0.581737 0.121993 0.401115 0.032587
O51   O     O_2   0.709009 0.089604 0.306613 -0.505674
C62   C     C_2   0.591166 0.593822 0.926522 0.642897
H50   H     H_    0.572340 0.659244 0.960801 0.098405
O52   O     O_2   0.722498 0.574333 0.915535 -0.501886
C63   C     C_2   0.641515 0.537126 0.336035 0.601050
H51   H     H_    0.747094 0.505471 0.360952 0.036295
O53   O     O_2   0.580409 0.584621 0.388001 -0.602273
C64   C     C_2   0.849953 0.929180 0.134145 0.606166
H52   H     H_    0.757205 0.916979 0.077175 0.064452
O54   O     O_2   0.874845 0.005507 0.173464 -0.453834

loop_
_geom_bond_atom_site_label_1
_geom_bond_atom_site_label_2
_geom_bond_distance
_ccdc_geom_bond_type
C25   C29   1.418921 A    
C6    C45   1.494214 S    
O33   H36   1.013306 S    
C46   O29   1.221189 D    
C43   O26   1.391682 S    
C61   H49   1.084427 S    
C3    H3    1.103204 S    
C5    H8    1.109543 S    
C17   C25   1.441872 A    
P7    O21   1.580535 D    
C49   O34   1.212631 D    
C46   O30   1.397286 S    
C64   H52   1.083685 S    
C51   H39   1.085428 S    
C63   O53   1.203068 D    
O3    P6    1.760931 S    
C20   C21   1.387035 A    
C40   H29   1.068311 S    
C8    C50   1.489566 S    
C14   C56   1.504421 S    
O7    Ba1   2.839479 S    
P3    C38   1.849570 S    
P8    O24   1.760320 S    
C32   C33   1.411853 A    
O49   H47   1.003853 S    
P4    O13   1.615979 S    
C5    H7    1.106469 S    
C12   C53   1.515671 S    
P2    O10   1.775065 S    
C55   O43   1.220229 D    
C58   H46   1.071487 S    
C54   O41   1.222578 D    
P3    O9    1.537733 D    
C24   C30   1.432527 A    
O19   C13   1.405883 S    
Ba1   O16   2.885182 S    
P1    O1    1.587188 D    
O16   P7    1.833931 S    
O14   Ba2   2.930786 S    
O42   H42   1.003081 S    
C54   O42   1.396620 S    
C31   C36   1.389455 A    
Ba1   O20   3.036922 S    
C26   C27   1.415410 A    
P5    O18   1.549588 D    
C35   C36   1.421450 A    
Ba2   O21   2.839800 S    
C15   C16   1.522537 S    
C50   H38   1.072145 S    
P1    Ba1   3.475734 S    
C43   O25   1.219678 D    
C58   O47   1.216559 D    
O8    Ba1   2.927889 S    
H21   C16   1.109007 S    
C11   O22   1.417571 S    
C6    C7    1.625448 S    
C18   C23   1.483664 A    
O14   P8    1.760707 S    
P5    O17   1.765380 S    
C13   H16   1.111689 S    
C3    H15   1.110381 S    
C17   C23   1.423238 A    
C4    H4    1.108351 S    
C60   O50   1.214476 D    
C27   C59   1.437200 S    
C61   O51   1.219358 D    
C31   H30   1.068611 S    
C34   C35   1.447419 A    
C8    C49   1.520800 S    
C33   H28   1.079864 S    
P8    C28   1.889773 S    
C22   C30   1.441454 A    
O3    Ba1   2.931318 S    
C62   O52   1.217670 D    
C37   C38   1.389529 A    
C59   O49   1.379693 S    
C21   H25   1.081449 S    
O39   H40   1.006602 S    
Ba1   Ba2   4.792066 S    
C13   H17   1.114953 S    
C11   H13   1.096650 S    
P1    C18   1.951271 S    
O6    P6    1.749307 S    
C5    H6    1.109111 S    
C34   C41   1.544953 S    
C45   H33   1.076137 S    
C31   C32   1.391254 A    
C16   H23   1.107438 S    
C21   C22   1.419370 A    
C1    H1    1.106714 S    
C42   C63   1.457691 S    
C27   C28   1.391490 A    
O2    Ba2   2.921782 S    
P5    C32   1.874406 S    
P1    O5    1.819650 S    
P1    O2    1.616010 S    
P4    O12   1.587699 D    
C9    H10   1.113011 S    
P4    O15   1.755659 S    
C18   C19   1.386512 A    
P8    O23   1.550427 D    
C14   H18   1.110872 S    
C9    C51   1.505517 S    
P3    O11   1.763242 S    
C45   O28   1.214036 D    
C10   H11   1.106200 S    
C4    O15   1.394882 S    
C7    C47   1.532106 S    
O30   H34   1.006684 S    
C15   O24   1.406455 S    
C39   C42   1.406775 A    
C12   C54   1.500090 S    
C2    H2    1.106502 S    
C47   H35   1.083688 S    
O12   Ba2   2.892489 S    
C44   O27   1.204067 D    
C33   C34   1.425772 A    
C19   C20   1.384476 A    
O10   C8    1.423037 S    
C3    C64   1.502332 S    
O45   H44   1.012074 S    
C37   H27   1.070602 S    
P2    O7    1.594683 D    
C7    C48   1.500275 S    
C15   H19   1.110351 S    
C24   C26   1.478761 A    
P7    O22   1.796202 S    
C60   H48   1.074645 S    
C53   O40   1.218790 D    
C29   H26   1.071787 S    
O13   Ba2   3.025712 S    
P4    Ba2   3.476343 S    
C17   C60   1.464295 S    
C62   H50   1.082131 S    
C48   O33   1.389337 S    
C59   O48   1.209848 D    
C35   C62   1.466215 S    
P2    Ba1   3.449159 S    
C51   O37   1.220175 D    
O2    Ba1   3.024972 S    
C13   C14   1.523916 S    
C30   C61   1.473857 S    
C44   H32   1.059626 S    
C28   C29   1.385753 A    
C6    C44   1.425150 S    
C8    C9    1.552614 S    
C56   O45   1.397014 S    
P7    C36   1.889992 S    
C49   O35   1.400151 S    
C19   H24   1.040714 S    
P6    C20   1.867848 S    
C64   O54   1.220521 D    
P4    C26   1.938742 S    
C12   H14   1.110716 S    
C52   O39   1.377076 S    
C7    C46   1.519545 S    
O4    P6    1.542586 D    
C10   C43   1.497774 S    
C39   C40   1.430919 A    
C9    H9    1.109722 S    
C4    H5    1.109948 S    
C1    C55   1.496362 S    
C1    C10   1.540076 S    
C16   H22   1.110928 S    
C63   H51   1.077277 S    
C38   C42   1.402242 A    
C55   H43   1.079638 S    
Ba2   O20   2.884443 S    
P3    O8    1.747844 S    
O11   C2    1.415092 S    
Ba1   O13   2.921249 S    
C15   H20   1.105942 S    
C57   O46   1.220281 D    
C40   C41   1.431333 A    
C2    C3    1.546062 S    
C14   C57   1.504831 S    
O35   H37   1.014083 S    
P2    C39   1.913459 S    
C2    C58   1.496955 S    
C47   O31   1.218906 D    
C52   O38   1.209128 D    
C22   C23   1.438907 A    
C11   C52   1.454259 S    
P5    O19   1.737035 S    
O5    C6    1.434229 S    
C57   H45   1.086105 S    
C56   O44   1.220597 D    
C50   O36   1.222609 D    
C24   C25   1.436196 A    
C4    C5    1.525011 S    
O16   Ba2   3.036085 S    
C53   H41   1.084967 S    
O1    Ba1   2.891927 S    
C11   C12   1.563203 S    
O26   H31   1.012938 S    
C1    H12   1.109054 S    
O17   Ba2   2.928632 S    
C37   C41   1.410219 A    
O6    C10   1.414716 S    
C48   O32   1.202371 D    
P2    O20   1.584782 S    
