data_mof_unit_55449.cif
_audit_creation_date              2012-10-26T20:37:55-0400
_audit_creation_method            fapswitch 2.2
_symmetry_space_group_name_H-M    P1
_symmetry_Int_Tables_number       1
_space_group_crystal_system       triclinic
_cell_length_a                    10.027957
_cell_length_b                    11.014342
_cell_length_c                    13.016314
_cell_angle_alpha                 86.691819
_cell_angle_beta                  74.30331
_cell_angle_gamma                 109.688981
_cell_volume                      1285.4439597

loop_
_atom_site_label
_atom_site_type_symbol
_atom_type_description
_atom_site_fract_x
_atom_site_fract_y
_atom_site_fract_z
_atom_type_partial_charge
C1    C     C_R   0.439254 0.254196 0.512753 0.556360
C2    C     C_R   0.700789 0.555904 0.989860 -0.115136
C3    C     C_R   0.306602 0.444064 0.901864 -0.006166
C4    C     C_R   0.695279 0.552615 0.099230 -0.011994
C5    C     C_R   0.578366 0.522693 0.852119 -0.154598
C6    C     C_R   0.423045 0.476235 0.147711 -0.150385
C7    C     C_R   0.570557 0.519589 0.960418 0.023673
C8    C     C_R   0.431459 0.479225 0.039663 0.025486
C9    C     C_2   0.403394 0.113705 0.536518 -0.018454
C10   C     C_2   0.596116 0.885811 0.453032 -0.021872
C11   C     C_2   0.504204 0.066755 0.482402 -0.150130
C12   C     C_R   0.561277 0.745759 0.483076 0.563582
C13   C     C_2   0.500524 0.934899 0.512169 -0.161009
C14   C     C_3   0.838985 0.589983 0.130237 -0.239281
C15   C     C_3   0.985588 0.645602 0.037109 -0.329524
C16   C     C_3   0.119804 0.683753 0.079207 -0.460227
C17   C     C_3   0.157575 0.399977 0.880121 -0.237690
C18   C     C_3   0.112968 0.260520 0.854290 -0.290056
C19   C     C_3   0.949884 0.207600 0.858023 -0.466492
C20   C     C_3   0.722000 0.967533 0.351398 -0.270510
C21   C     C_3   0.808384 0.893325 0.282702 -0.285284
C22   C     C_3   0.916793 0.979646 0.176500 -0.474633
C23   C     C_2   0.082776 0.515582 0.490840 0.115451
C24   C     C_3   0.263043 0.032176 0.627180 -0.259666
C25   C     C_3   0.294443 0.023750 0.735705 -0.304806
C26   C     C_3   0.154377 0.940166 0.825993 -0.468863
C27   C     C_3   0.812408 0.365175 0.592587 -0.192504
C28   C     C_3   0.820925 0.238600 0.551744 -0.311068
C29   C     C_3   0.734605 0.120395 0.641054 -0.461569
C30   C     C_3   0.188837 0.632508 0.403917 -0.196310
C31   C     C_3   0.185658 0.762379 0.439731 -0.316595
C32   C     C_3   0.272025 0.876458 0.346239 -0.459824
C33   C     C_2   0.917846 0.484764 0.508728 0.116595
C34   C     C_R   0.469789 0.492692 0.703623 0.536452
C35   C     C_R   0.530117 0.506378 0.296475 0.528539
C36   C     C_R   0.552084 0.512211 0.179368 -0.007150
C37   C     C_R   0.448719 0.485755 0.820693 0.001705
C38   C     C_R   0.301385 0.441568 0.010531 -0.128370
Cu1   Cu    Cu3+1 0.647370 0.522180 0.481340 0.872788
Cu2   Cu    Cu3+1 0.352630 0.477820 0.518660 0.879755
H1    H     H_    0.313922 0.444638 0.207597 0.124232
H2    H     H_    0.118514 0.597872 0.129096 0.146511
H3    H     H_    0.224035 0.720384 0.009867 0.154941
H4    H     H_    0.994176 0.572357 0.983359 0.151003
H5    H     H_    0.987649 0.733722 0.990389 0.160354
H6    H     H_    0.840978 0.666728 0.181869 0.164282
H7    H     H_    0.838496 0.501909 0.176848 0.168868
H8    H     H_    0.876498 0.196525 0.941743 0.149092
H9    H     H_    0.928637 0.275204 0.803537 0.141731
H10   H     H_    0.921930 0.110510 0.831926 0.132038
H11   H     H_    0.183101 0.258441 0.772862 0.189975
H12   H     H_    0.687320 0.554871 0.791996 0.124874
H13   H     H_    0.128657 0.195270 0.914683 0.158531
H14   H     H_    0.069463 0.399737 0.953503 0.123537
H15   H     H_    0.155308 0.470431 0.816851 0.167038
H16   H     H_    0.855571 0.010807 0.127292 0.151576
H17   H     H_    0.998237 0.067573 0.192791 0.152471
H18   H     H_    0.978645 0.924012 0.129168 0.138347
H19   H     H_    0.873770 0.861300 0.327535 0.182819
H20   H     H_    0.728559 0.806696 0.263572 0.163987
H21   H     H_    0.672633 0.009226 0.298250 0.135556
H22   H     H_    0.801895 0.049325 0.375553 0.137923
H23   H     H_    0.194695 0.408739 0.073454 0.093087
H24   H     H_    0.064280 0.978743 0.832151 0.151709
H25   H     H_    0.116003 0.838191 0.809797 0.147240
H26   H     H_    0.179399 0.940709 0.904053 0.142064
H27   H     H_    0.378689 0.978498 0.731506 0.158689
H28   H     H_    0.337980 0.123418 0.755764 0.150999
H29   H     H_    0.177052 0.076477 0.634386 0.156699
H30   H     H_    0.213264 0.933224 0.608612 0.132080
H31   H     H_    0.787260 0.128208 0.706151 0.141982
H32   H     H_    0.618747 0.114763 0.675730 0.155229
H33   H     H_    0.734438 0.029720 0.608034 0.159506
H34   H     H_    0.805748 0.585879 0.926061 0.095104
H35   H     H_    0.775918 0.225697 0.483021 0.176919
H36   H     H_    0.936461 0.241929 0.519587 0.157914
H37   H     H_    0.838944 0.374023 0.669899 0.079471
H38   H     H_    0.696439 0.355917 0.616518 0.216358
H39   H     H_    0.389416 0.883921 0.313666 0.158035
H40   H     H_    0.219656 0.862776 0.280591 0.139323
H41   H     H_    0.270530 0.969060 0.374986 0.157464
H42   H     H_    0.071410 0.761678 0.473324 0.155160
H43   H     H_    0.235137 0.778090 0.506027 0.180658
H44   H     H_    0.304459 0.641338 0.380684 0.217817
H45   H     H_    0.415426 0.873470 0.584583 0.135139
H46   H     H_    0.160410 0.620579 0.327398 0.086023
H47   H     H_    0.594847 0.131304 0.414214 0.124280
H48   H     H_    0.940859 0.627258 0.389528 0.199562
H49   H     H_    0.059225 0.373315 0.610804 0.203544
H50   H     H_    0.118658 0.762152 0.128998 0.139441
N1    N     N_2   0.131210 0.444490 0.546730 -0.365407
N2    N     N_2   0.868790 0.555510 0.453270 -0.366055
O1    O     O_R   0.578710 0.332530 0.490040 -0.512741
O2    O     O_R   0.421290 0.667470 0.509960 -0.514671
O3    O     O_R   0.329810 0.295070 0.521560 -0.496345
O4    O     O_R   0.670190 0.704930 0.478440 -0.493565
O5    O     O_R   0.604230 0.515670 0.637800 -0.518319
O6    O     O_R   0.395770 0.484330 0.362200 -0.518419
O7    O     O_R   0.355330 0.478200 0.669330 -0.501537
O8    O     O_R   0.644670 0.521800 0.330670 -0.514345

loop_
_geom_bond_atom_site_label_1
_geom_bond_atom_site_label_2
_ccdc_geom_bond_type
C4    C36   A    
C16   H50   S    
C5    C37   A    
C34   C37   S    
C35   C36   S    
C25   H27   S    
C27   H38   S    
C22   H17   S    
C24   H30   S    
C7    C8    A    
C14   H6    S    
C27   C33   S    
C32   H41   S    
C31   H42   S    
C28   C29   S    
C15   H4    S    
C21   H19   S    
Cu2   O6    S    
C30   C31   S    
Cu1   O5    S    
C29   H33   S    
C15   C16   S    
C34   O5    A    
C31   H43   S    
C18   C19   S    
C20   H21   S    
C26   H24   S    
Cu1   O1    S    
C18   H13   S    
H48   N2    S    
C3    C38   A    
C11   H47   S    
C23   C33   S    
C6    H1    S    
C24   H29   S    
C5    H12   S    
H49   N1    S    
C35   O6    A    
C17   H15   S    
C2    H34   S    
C29   H32   S    
C21   C22   S    
C20   H22   S    
C12   O2    A    
C25   H28   S    
C8    C38   A    
Cu2   O7    S    
C18   H11   S    
C17   C18   S    
C26   H26   S    
C23   C30   S    
C1    C9    S    
C24   C25   S    
C21   H20   S    
C33   N2    D    
C10   C20   S    
Cu1   Cu2   S    
C5    C7    A    
C19   H8    S    
C6    C8    A    
C25   C26   S    
C2    C4    A    
C32   H40   S    
C19   H9    S    
C31   C32   S    
C1    O3    A    
C34   O7    A    
C9    C11   D    
C16   H3    S    
C10   C12   S    
C2    C7    A    
C23   N1    D    
C30   H46   S    
C15   H5    S    
Cu2   O3    S    
C35   O8    A    
C28   H36   S    
C16   H2    S    
Cu1   N2    S    
C38   H23   S    
C26   H25   S    
Cu2   O2    S    
C27   H37   S    
C10   C13   D    
C22   H18   S    
C22   H16   S    
C9    C24   S    
C14   H7    S    
C4    C14   S    
C32   H39   S    
C11   C13   S    
C19   H10   S    
Cu1   O8    S    
C6    C36   A    
C3    C17   S    
Cu2   N1    S    
C30   H44   S    
Cu1   O4    S    
C20   C21   S    
C3    C37   A    
C1    O1    A    
C13   H45   S    
C27   C28   S    
C14   C15   S    
C12   O4    A    
C28   H35   S    
C17   H14   S    
C29   H31   S    
