data_mof_unit_24244.cif
_audit_creation_date              2013-03-05T15:47:14-0500
_audit_creation_method            fapswitch 2.2
_symmetry_space_group_name_H-M    P1
_symmetry_Int_Tables_number       1
_space_group_crystal_system       triclinic
_cell_length_a                    27.844472
_cell_length_b                    11.038771
_cell_length_c                    9.955729
_cell_angle_alpha                 110.224894
_cell_angle_beta                  99.340891
_cell_angle_gamma                 92.077333
_cell_volume                      2819.19856173

loop_
_atom_site_label
_atom_site_type_symbol
_atom_site_description
_atom_site_fract_x
_atom_site_fract_y
_atom_site_fract_z
_atom_type_partial_charge
O1    O     O_R   0.504520 0.332330 0.577400 -0.576244
O2    O     O_R   0.495480 0.667670 0.422600 -0.490501
O3    O     O_R   0.490210 0.295500 0.332650 -0.561013
O4    O     O_R   0.509790 0.704500 0.667350 -0.566311
C1    C     C_R   0.501439 0.256230 0.442662 0.852279
C2    C     C_R   0.506221 0.744757 0.557913 0.825197
O5    O     O_R   0.437420 0.518430 0.622370 -0.522031
O6    O     O_R   0.562580 0.481570 0.377630 -0.585372
O7    O     O_R   0.423110 0.481600 0.377610 -0.515584
O8    O     O_R   0.576890 0.518400 0.622390 -0.576259
C3    C     C_R   0.407649 0.495815 0.498506 0.951177
C4    C     C_R   0.592610 0.497960 0.500316 0.818137
Cu1   Cu    Cu3+1 0.508480 0.521810 0.644910 1.121647
Cu2   Cu    Cu3+1 0.491520 0.478190 0.355090 1.156256
C5    C     C_R   0.169776 0.371914 0.390770 0.648742
C6    C     C_R   0.827644 0.580842 0.545685 0.646163
O9    O     O_2   0.187470 0.284313 0.283091 -0.464942
O10   O     O_2   0.806248 0.691248 0.560137 -0.462097
N1    N     N_R   0.200958 0.472499 0.491926 -0.441237
N2    N     N_R   0.799098 0.466048 0.503704 -0.443099
C7    C     C_R   0.183432 0.574866 0.587654 0.690556
C8    C     C_R   0.819180 0.350371 0.469690 0.693469
C9    C     C_R   0.276596 0.576606 0.463873 0.275831
C10   C     C_R   0.713305 0.411336 0.373310 0.286487
C11   C     C_R   0.327484 0.585057 0.472489 0.206777
C12   C     C_R   0.662774 0.415021 0.373262 0.233567
C13   C     C_R   0.330014 0.376642 0.507545 -0.137486
C14   C     C_R   0.680786 0.548385 0.633804 -0.147296
C15   C     C_R   0.279863 0.376293 0.517846 -0.103666
C16   C     C_R   0.730947 0.531744 0.636155 -0.069435
C17   C     C_R   0.252899 0.475070 0.491849 0.173072
C18   C     C_R   0.747294 0.468883 0.504344 0.144750
C19   C     C_R   0.100837 0.473574 0.486975 -0.097122
C20   C     C_R   0.899634 0.465594 0.515768 -0.090934
C21   C     C_R   0.119518 0.362311 0.397798 -0.011310
C22   C     C_R   0.878843 0.583524 0.571483 -0.006140
C23   C     C_R   0.086688 0.250509 0.313580 -0.034465
C24   C     C_R   0.910048 0.698336 0.652921 -0.019755
C25   C     C_R   0.132818 0.585074 0.573245 -0.133467
C26   C     C_R   0.869818 0.346592 0.466325 -0.163855
C27   C     C_R   0.354336 0.485751 0.494019 -0.168252
C28   C     C_R   0.646118 0.488946 0.501893 -0.215902
C29   C     C_R   0.970670 0.350094 0.448461 -0.071476
C30   C     C_R   0.030724 0.591411 0.559875 0.006072
C31   C     C_R   0.980351 0.587313 0.571444 0.111096
C32   C     C_R   0.019322 0.356798 0.422471 0.074487
C33   C     C_R   0.950243 0.467579 0.510679 0.074552
C34   C     C_R   0.050230 0.473778 0.491085 0.076204
C35   C     C_R   0.942562 0.230644 0.422192 -0.147489
C36   C     C_R   0.062388 0.708934 0.608585 -0.127847
C37   C     C_R   0.891886 0.228945 0.424092 0.341266
C38   C     C_R   0.113383 0.704127 0.634414 0.285504
O11   O     O_2   0.790021 0.240493 0.439364 -0.407234
O12   O     O_2   0.215024 0.666496 0.694838 -0.412287
C39   C     C_R   0.037206 0.251762 0.322910 -0.277208
C40   C     C_R   0.960174 0.696872 0.655783 -0.179899
H1    H     H_    0.012596 0.168293 0.250958 0.153660
H2    H     H_    0.983397 0.781699 0.730342 0.125339
C41   C     C_2   0.508015 0.119390 0.415933 -0.228332
C42   C     C_2   0.526966 0.875090 0.582789 -0.164756
C43   C     C_2   0.523337 0.079379 0.529619 -0.039666
C44   C     C_2   0.501393 0.953292 0.524974 -0.100625
N3    N     N_2   0.478780 0.445430 0.137360 -0.105245
N4    N     N_2   0.521220 0.554570 0.862640 -0.104559
C45   C     C_2   0.507111 0.504498 0.079309 0.036299
C46   C     C_2   0.500352 0.477860 0.917864 0.065397
C47   C     C_2   0.356282 0.261705 0.507483 0.491299
H3    H     H_    0.348234 0.206850 0.574250 0.094987
O13   O     O_2   0.386477 0.224950 0.429678 -0.547667
C48   C     C_2   0.664861 0.629350 0.769557 0.487375
H4    H     H_    0.641869 0.706125 0.767884 0.081203
O14   O     O_2   0.675710 0.607496 0.882275 -0.464225
C49   C     C_2   0.580289 0.899468 0.642632 0.371691
H5    H     H_    0.594644 0.873569 0.735894 0.092402
O15   O     O_2   0.608722 0.940375 0.583216 -0.426140
C50   C     C_2   0.494338 0.026046 0.263836 0.541428
H6    H     H_    0.471413 0.052450 0.181233 0.105758
O16   O     O_2   0.510336 0.920407 0.228660 -0.385384
C51   C     C_2   0.476141 0.348432 0.825570 0.483297
H7    H     H_    0.488916 0.263560 0.845489 -0.002044
O17   O     O_2   0.438291 0.336508 0.739825 -0.510590
C52   C     C_2   0.554174 0.578669 0.163816 0.521421
H8    H     H_    0.587906 0.546088 0.129497 0.103060
O18   O     O_2   0.555687 0.683138 0.261300 -0.438695
N5    N     N_R   0.525730 0.685888 0.945882 0.255295
O19   O     O_R   0.567665 0.753615 0.972853 -0.297581
O20   O     O_R   0.486375 0.745814 0.957496 -0.247336
N6    N     N_R   0.430132 0.408448 0.067736 0.240469
O21   O     O_R   0.407193 0.308357 0.078226 -0.282810
O22   O     O_R   0.404828 0.487439 0.020573 -0.251522
C53   C     C_2   0.255470 0.271899 0.553457 0.526661
H9    H     H_    0.265543 0.173527 0.514024 0.098492
O23   O     O_2   0.224306 0.295378 0.629737 -0.476412
C54   C     C_2   0.766705 0.583170 0.776426 0.596417
H10   H     H_    0.762031 0.673233 0.860579 0.128438
O24   O     O_2   0.801245 0.523812 0.800514 -0.492041
C55   C     C_2   0.101725 0.125480 0.223233 0.532290
H11   H     H_    0.079686 0.070687 0.117171 0.059404
O25   O     O_2   0.136295 0.077689 0.270805 -0.430506
C56   C     C_2   0.893554 0.818381 0.749970 0.537624
H12   H     H_    0.912581 0.911986 0.768551 0.076856
O26   O     O_2   0.861084 0.813737 0.817557 -0.465042
N7    N     N_R   0.628611 0.338928 0.243776 0.141168
O27   O     O_R   0.632008 0.347776 0.118611 -0.319641
O28   O     O_R   0.598339 0.248101 0.247677 -0.318575
N8    N     N_R   0.352119 0.695558 0.460071 0.151299
O29   O     O_R   0.338724 0.727959 0.346697 -0.218608
O30   O     O_R   0.383684 0.772630 0.570566 -0.361100
N9    N     N_R   0.730335 0.345864 0.240458 0.175632
O31   O     O_R   0.715956 0.223997 0.166265 -0.201705
O32   O     O_R   0.762720 0.405524 0.198355 -0.283669
N10   N     N_R   0.248861 0.672994 0.429796 0.172782
O33   O     O_R   0.261664 0.795848 0.502721 -0.207127
O34   O     O_R   0.209958 0.638076 0.327932 -0.295825
N11   N     N_R   0.863639 0.107492 0.389962 0.198829
O35   O     O_R   0.843775 0.039957 0.255560 -0.214781
O36   O     O_R   0.859684 0.061745 0.492280 -0.263593
N12   N     N_R   0.144887 0.823096 0.701778 0.148693
O37   O     O_R   0.169328 0.866278 0.624011 -0.229305
O38   O     O_R   0.144072 0.896282 0.835476 -0.303317
C57   C     C_2   0.967277 0.112182 0.418907 0.433941
H13   H     H_    0.003961 0.122202 0.481139 0.090620
O39   O     O_2   0.947800 0.003344 0.345105 -0.423886
C58   C     C_2   0.044643 0.833145 0.602946 0.396980
H14   H     H_    0.063473 0.925664 0.676850 0.120639
O40   O     O_2   0.009983 0.832981 0.510303 -0.486076
C59   C     C_2   0.448268 0.921610 0.461994 0.485818
H15   H     H_    0.422975 0.992201 0.501939 0.103036
O41   O     O_2   0.433258 0.822683 0.357671 -0.396862
C60   C     C_2   0.556560 0.164334 0.666288 0.505750
H16   H     H_    0.555390 0.150033 0.768220 0.048715
O42   O     O_2   0.587392 0.244953 0.664197 -0.461289

loop_
_geom_bond_atom_site_label_1
_geom_bond_atom_site_label_2
_geom_bond_distance
_ccdc_geom_bond_type
N3    C45   1.323915 D    
N3    N6    1.393373 S    
C13   C15   1.416677 A    
C49   H5    1.083949 S    
N1    C17   1.445631 S    
C23   C55   1.481567 S    
C55   H11   1.085611 S    
N5    O19   1.300252 A    
C5    N1    1.368969 A    
C46   C51   1.470177 S    
C19   C25   1.409584 A    
O1    C1    1.300286 A    
C50   O16   1.219365 D    
N1    C7    1.367375 A    
C10   C12   1.409011 A    
N9    O32   1.301188 A    
C44   C59   1.487746 S    
N8    O29   1.301230 A    
N11   O35   1.300876 A    
C42   C49   1.484887 S    
C42   C44   1.355956 D    
C5    C21   1.414423 A    
O4    Cu1   1.949032 S    
N12   O37   1.300969 A    
C4    C28   1.494718 S    
C31   C40   1.408393 A    
C35   C37   1.413781 A    
C32   C39   1.407934 A    
C36   C38   1.407669 A    
C48   H4    1.083521 S    
O6    C4    1.314728 A    
C31   C33   1.420531 A    
C25   C38   1.412801 A    
C35   C57   1.492527 S    
Cu1   Cu2   2.713082 S    
C49   O15   1.221243 D    
O2    C2    1.298659 A    
C59   O41   1.219728 D    
N10   O34   1.301252 A    
N10   O33   1.301365 A    
C55   O25   1.220977 D    
C11   N8    1.429974 S    
O5    C3    1.307850 A    
C8    O11   1.348097 S    
N5    O20   1.300992 A    
C32   C34   1.411896 A    
C41   C43   1.364061 D    
C1    C41   1.464254 S    
C47   H3    1.084231 S    
C2    C42   1.453219 S    
C36   C58   1.490176 S    
C50   H6    1.085158 S    
C24   C56   1.484389 S    
C11   C27   1.405890 A    
C53   H9    1.083999 S    
C51   O17   1.215317 D    
C29   C35   1.428259 A    
N11   O36   1.301094 A    
C37   N11   1.432949 S    
C47   O13   1.220791 D    
N4    C46   1.321692 D    
C60   O42   1.221736 D    
O7    Cu2   1.953993 S    
C10   C18   1.408446 A    
C9    N10   1.437952 S    
C12   N7    1.437915 S    
C53   O23   1.221087 D    
C13   C27   1.417757 A    
C7    C25   1.405880 A    
C6    N2    1.365722 A    
C8    C26   1.417575 A    
C56   O26   1.220981 D    
C54   H10   1.084492 S    
N7    O28   1.301359 A    
C6    O10   1.349146 S    
C54   O24   1.221171 D    
O7    C3    1.304279 A    
C57   H13   1.085559 S    
O3    Cu2   1.949031 S    
O8    C4    1.307597 A    
C43   C60   1.494273 S    
O4    C2    1.302782 A    
N6    O22   1.302864 A    
C45   C46   1.508749 S    
C52   O18   1.217758 D    
C39   H1    1.081763 S    
C20   C26   1.413651 A    
O1    Cu1   1.956023 S    
C59   H15   1.085255 S    
N4    N5    1.387906 S    
C15   C53   1.489593 S    
C30   C31   1.426203 A    
C12   C28   1.420796 A    
C58   O40   1.221415 D    
N2    C18   1.444905 S    
C30   C36   1.427874 A    
C5    O9    1.347715 S    
O6    Cu2   1.952292 S    
C21   C23   1.419767 A    
C14   C48   1.486639 S    
C10   N9    1.436684 S    
N2    C8    1.368278 A    
O3    C1    1.308501 A    
O8    Cu1   1.953998 S    
C26   C37   1.416018 A    
C22   C24   1.414074 A    
C60   H16   1.084865 S    
C14   C16   1.412829 A    
C15   C17   1.418093 A    
N9    O31   1.301355 A    
C6    C22   1.404292 A    
C16   C18   1.413490 A    
C45   C52   1.477668 S    
C7    O12   1.349109 S    
Cu1   N4    2.038251 S    
N8    O30   1.300490 A    
Cu2   N3    2.038249 S    
C14   C28   1.426110 A    
C56   H12   1.085783 S    
C19   C21   1.417596 A    
C40   H2    1.079656 S    
C3    C27   1.476840 S    
C20   C22   1.413196 A    
C9    C11   1.403303 A    
C43   C44   1.482353 S    
O2    Cu2   1.956024 S    
C29   C32   1.423860 A    
N12   O38   1.300976 A    
C57   O39   1.220852 D    
C13   C47   1.487146 S    
C51   H7    1.083198 S    
C23   C39   1.396138 A    
O5    Cu1   1.952292 S    
C24   C40   1.392185 A    
N6    O21   1.299961 A    
C16   C54   1.491092 S    
C52   H8    1.082571 S    
N7    O27   1.301157 A    
C19   C34   1.416422 A    
C48   O14   1.221135 D    
C20   C33   1.417937 A    
C29   C33   1.414744 A    
C41   C50   1.485007 S    
C30   C34   1.416756 A    
C9    C17   1.411061 A    
C58   H14   1.084302 S    
C38   N12   1.435438 S    
