data_mof_unit_35277.cif
_audit_creation_date              2012-12-11T14:50:34-0500
_audit_creation_method            fapswitch 2.2
_symmetry_space_group_name_H-M    P1
_symmetry_Int_Tables_number       1
_space_group_crystal_system       triclinic
_cell_length_a                    10.881175
_cell_length_b                    10.914769
_cell_length_c                    18.838981
_cell_angle_alpha                 90.049406
_cell_angle_beta                  89.574699
_cell_angle_gamma                 60.332493
_cell_volume                      1944.042881

loop_
_atom_site_label
_atom_site_type_symbol
_atom_type_description
_atom_site_fract_x
_atom_site_fract_y
_atom_site_fract_z
_atom_type_partial_charge
C1    C     C_R   0.233785 0.647273 0.608654 0.550389
C2    C     C_3   0.621410 0.599168 0.798341 -0.240875
C3    C     C_3   0.707713 0.673890 0.810140 -0.004549
C4    C     C_3   0.677260 0.652757 0.673456 0.037528
C5    C     C_3   0.836905 0.604344 0.690715 -0.017229
C6    C     C_3   0.624871 0.566952 0.718832 -0.208983
C7    C     C_R   0.775258 0.178791 0.712407 -0.165445
C8    C     C_R   0.781679 0.168964 0.786449 -0.187482
C9    C     C_R   0.674008 0.163547 0.824787 0.021696
C10   C     C_R   0.552448 0.180685 0.787824 0.136806
C11   C     C_R   0.552967 0.179115 0.715337 -0.123736
C12   C     C_R   0.657146 0.625870 0.598787 0.553430
C13   C     C_R   0.660307 0.183112 0.676669 -0.024959
C14   C     C_R   0.219971 0.553687 0.725525 -0.112785
C15   C     C_R   0.186078 0.575931 0.797233 -0.113256
C16   C     C_R   0.109086 0.713216 0.823895 0.001785
C17   C     C_R   0.067670 0.827700 0.778779 -0.134136
C18   C     C_R   0.097357 0.806580 0.706838 -0.115312
C19   C     C_R   0.175209 0.669206 0.679930 0.024033
C20   C     C_R   0.597405 0.585930 0.268834 -0.089468
C21   C     C_R   0.604669 0.604096 0.195979 0.151063
C22   C     C_R   0.662243 0.686149 0.171920 0.057405
C23   C     C_R   0.627640 0.229355 0.603362 0.534235
C24   C     C_R   0.706681 0.753966 0.220445 -0.153631
C25   C     C_R   0.698064 0.736682 0.293072 -0.139335
C26   C     C_R   0.646277 0.650192 0.317122 0.021577
C27   C     C_R   0.558122 0.139402 0.290182 -0.143845
C28   C     C_R   0.557614 0.132822 0.217476 -0.157619
C29   C     C_R   0.654778 0.153471 0.177282 0.062588
C30   C     C_R   0.752166 0.183753 0.211401 0.170372
C31   C     C_R   0.750174 0.192099 0.284547 -0.112133
C32   C     C_R   0.651104 0.173620 0.323905 -0.015236
C33   C     C_R   0.228970 0.736256 0.283744 -0.148848
C34   C     C_R   0.224729 0.647926 0.400238 0.558796
C35   C     C_R   0.214338 0.737344 0.211933 -0.099706
C36   C     C_R   0.150362 0.666917 0.181889 0.030892
C37   C     C_R   0.111209 0.585220 0.223562 -0.111497
C38   C     C_R   0.128623 0.580761 0.296511 0.062876
C39   C     C_R   0.184549 0.660400 0.326939 0.031352
C40   C     C_R   0.698767 0.105780 0.896845 0.554935
C41   C     C_R   0.726157 0.688691 0.887154 0.543820
C42   C     C_R   0.060313 0.740414 0.897037 0.536607
C43   C     C_R   0.674971 0.107265 0.104199 0.591025
C44   C     C_R   0.694984 0.691080 0.097692 0.594066
C45   C     C_R   0.642059 0.622825 0.392059 0.545182
C46   C     C_R   0.094084 0.708157 0.112076 0.568966
C47   C     C_R   0.618662 0.227363 0.395422 0.542469
C48   C     C_3   0.626996 0.822893 0.774842 -0.234084
C49   C     C_3   0.590842 0.811590 0.696623 -0.053850
C50   C     C_3   0.856171 0.588086 0.772063 0.012679
Cr1   Cr    Cr6+3 0.392930 0.397900 0.502230 1.084564
Cr2   Cr    Cr6+3 0.398240 0.708600 0.501260 1.060683
Cr3   Cr    Cr6+3 0.708800 0.393470 0.496460 1.071547
Cr4   Cr    Cr6+3 0.937620 0.938540 0.007640 1.098216
Cr5   Cr    Cr6+3 0.625150 0.937450 0.994520 1.083872
Cr6   Cr    Cr6+3 0.937990 0.625080 0.001190 1.099652
H1    H     H_    0.693990 0.873596 0.776945 0.101059
H2    H     H_    0.697430 0.452794 0.709849 0.166262
H3    H     H_    0.857551 0.186545 0.683525 0.175816
H4    H     H_    0.871941 0.161586 0.813743 0.172053
H5    H     H_    0.461875 0.184501 0.689400 0.195831
H6    H     H_    0.284242 0.446842 0.706156 0.174955
H7    H     H_    0.218887 0.487217 0.832058 0.211469
H8    H     H_    0.012986 0.932855 0.799777 0.141387
H9    H     H_    0.528493 0.892125 0.804958 0.224839
H10   H     H_    0.064859 0.897264 0.672803 0.157869
H11   H     H_    0.554903 0.520623 0.287927 0.136844
H12   H     H_    0.752932 0.816292 0.201823 0.113253
H13   H     H_    0.735107 0.787086 0.330084 0.129756
H14   H     H_    0.480544 0.124798 0.319761 0.165504
H15   H     H_    0.484473 0.105398 0.193143 0.161873
H16   H     H_    0.820876 0.221303 0.310163 0.177111
H17   H     H_    0.278775 0.793140 0.304963 0.156374
H18   H     H_    0.246304 0.799822 0.180178 0.175118
H19   H     H_    0.059481 0.532023 0.200223 0.171067
H20   H     H_    0.622895 0.874746 0.662789 0.121390
H21   H     H_    0.921558 0.634903 0.787851 0.116678
H22   H     H_    0.853805 0.693663 0.675675 0.091014
H23   H     H_    0.663779 0.500053 0.829379 0.161109
H24   H     H_    0.510160 0.668389 0.816366 0.160608
H25   H     H_    0.517600 0.589320 0.702529 0.148102
O1    O     O_R   0.507430 0.255570 0.581420 -0.516019
O2    O     O_R   0.524460 0.695920 0.424060 -0.511713
O3    O     O_R   0.736530 0.504260 0.414810 -0.476528
O4    O     O_R   0.691460 0.277160 0.422180 -0.510610
O5    O     O_3   0.499990 0.499990 0.499980 -0.278099
O6    O     O_R   0.089490 0.825610 0.930610 -0.485205
O7    O     O_R   0.818370 0.054540 0.929880 -0.515836
O8    O     O_R   0.605870 0.077310 0.915530 -0.459583
O9    O     O_R   0.646440 0.806700 0.917570 -0.500719
O10   O     O_R   0.837200 0.593290 0.915250 -0.478333
O11   O     O_R   0.065330 0.635370 0.931590 -0.486752
O12   O     O_R   0.280190 0.527390 0.578910 -0.488084
O13   O     O_R   0.068300 0.828790 0.091860 -0.493141
O14   O     O_R   0.798730 0.057480 0.079370 -0.458046
O15   O     O_R   0.584680 0.080480 0.076790 -0.516206
O16   O     O_R   0.626790 0.809640 0.067050 -0.503500
O17   O     O_R   0.816010 0.596460 0.076500 -0.468499
O18   O     O_R   0.045680 0.638310 0.081070 -0.503534
O19   O     O_3   0.833590 0.833690 0.001120 -0.316440
O20   O     O_R   0.260310 0.739740 0.584580 -0.491890
O21   O     O_R   0.532250 0.695150 0.573830 -0.478233
O22   O     O_R   0.744930 0.503430 0.576380 -0.479323
O23   O     O_R   0.699250 0.276390 0.571950 -0.499183
O24   O     O_R   0.499020 0.256400 0.419850 -0.501735
O25   O     O_R   0.272400 0.528160 0.429140 -0.466020
O26   O     O_R   0.251910 0.740570 0.423020 -0.527444
I1    I     I_    0.974931 0.367397 0.805080 -0.281493
I2    I     I_    0.016100 0.442677 0.629290 -0.273751
Br1   Br    Br    0.379397 0.200350 0.828736 -0.478621
Br2   Br    Br    0.535627 0.517400 0.130829 -0.502652
Br3   Br    Br    0.888021 0.219335 0.162928 -0.426877
I3    I     I_    0.362784 0.917028 0.687144 -0.314283
I4    I     I_    0.061576 0.458277 0.355633 -0.306095

loop_
_geom_bond_atom_site_label_1
_geom_bond_atom_site_label_2
_ccdc_geom_bond_type
C49   I3    S    
C46   O18   A    
C35   H18   S    
C23   O1    A    
C1    O20   A    
C6    H2    S    
C20   H11   S    
C35   C36   A    
Cr6   O17   S    
C7    C8    A    
C45   O2    A    
Cr2   O21   S    
C29   C30   A    
C5    I2    S    
Cr3   O3    S    
C34   O26   A    
C47   O4    A    
C36   C37   A    
Cr5   O9    S    
C17   H8    S    
C30   C31   A    
C38   I4    S    
Cr3   O23   S    
C15   C16   A    
C14   H6    S    
C3    C48   S    
C13   C23   S    
C18   C19   A    
C2    H23   S    
C26   C45   S    
C44   O17   A    
Cr6   O10   S    
C22   C44   S    
C31   C32   A    
Cr2   O26   S    
C8    C9    A    
C47   O24   A    
Cr5   O19   S    
C43   O14   A    
C36   C46   S    
Cr3   O5    S    
C48   H9    S    
C4    C12   S    
C9    C10   A    
C41   O9    A    
C37   H19   S    
C6    H25   S    
C21   C22   A    
C29   C43   S    
C50   I1    S    
Cr4   O19   S    
C2    C6    S    
Cr1   O5    S    
C7    H3    S    
C21   Br2   S    
C3    C50   S    
C17   C18   A    
C38   C39   A    
Cr2   O20   S    
C1    C19   S    
C34   C39   S    
C34   O25   A    
C48   H1    S    
C2    H24   S    
C24   C25   A    
C12   O22   A    
C4    C6    S    
C16   C17   A    
C25   C26   A    
C9    C40   S    
C30   Br3   S    
Cr2   O2    S    
C12   O21   A    
C37   C38   A    
C44   O16   A    
C23   O23   A    
C46   O13   A    
C7    C13   A    
Cr1   O24   S    
Cr5   O16   S    
C43   O15   A    
C49   H20   S    
C33   C39   A    
Cr1   O1    S    
Cr4   O14   S    
C27   H14   S    
Cr1   O12   S    
C33   H17   S    
C31   H16   S    
C41   O10   A    
C40   O8    A    
C32   C47   S    
C22   C24   A    
C5    C50   S    
C28   H15   S    
C25   H13   S    
Cr6   O19   S    
C28   C29   A    
C50   H21   S    
C16   C42   S    
C48   C49   S    
C27   C32   A    
C14   C19   A    
Cr5   O15   S    
C11   H5    S    
C18   H10   S    
C4    C49   S    
C40   O7    A    
Cr2   O5    S    
C2    C3    S    
Cr5   O8    S    
C8    H4    S    
Cr4   O7    S    
C11   C13   A    
Cr4   O6    S    
C20   C26   A    
Cr3   O22   S    
Cr1   O25   S    
C4    C5    S    
C33   C35   A    
C10   Br1   S    
C42   O11   A    
Cr4   O13   S    
C3    C41   S    
C10   C11   A    
C24   H12   S    
C45   O3    A    
Cr6   O11   S    
C20   C21   A    
C1    O12   A    
C27   C28   A    
C15   H7    S    
C14   C15   A    
Cr3   O4    S    
C42   O6    A    
Cr6   O18   S    
C5    H22   S    
