data_mof_unit_61803.cif
_audit_creation_date              2012-10-26T17:59:04-0400
_audit_creation_method            fapswitch 2.2
_symmetry_space_group_name_H-M    P1
_symmetry_Int_Tables_number       1
_space_group_crystal_system       triclinic
_cell_length_a                    37.352731
_cell_length_b                    30.392421
_cell_length_c                    21.730897
_cell_angle_alpha                 90.06563
_cell_angle_beta                  54.534515
_cell_angle_gamma                 89.967748
_cell_volume                      20092.6425125

loop_
_atom_site_label
_atom_site_type_symbol
_atom_type_description
_atom_site_fract_x
_atom_site_fract_y
_atom_site_fract_z
_atom_type_partial_charge
C1    C     C_R   0.085047 0.499873 0.413992 0.548716
C2    C     C_R   0.029255 0.523716 0.189914 -0.011935
C3    C     C_R   0.527355 0.342633 0.931350 0.057135
C4    C     C_R   0.969540 0.843905 0.066422 0.072794
C5    C     C_R   0.031444 0.843083 0.933104 0.057073
C6    C     C_R   0.500025 0.585066 0.000005 0.540882
C7    C     C_R   0.000003 0.085066 0.000025 0.542167
C8    C     C_R   0.037607 0.297300 0.981359 -0.120098
C9    C     C_R   0.962587 0.297348 0.018534 -0.119945
C10   C     C_R   0.537610 0.797282 0.943600 -0.119840
C11   C     C_R   0.462713 0.797375 0.056419 -0.119449
C12   C     C_R   0.037726 0.343167 0.980737 -0.128583
C13   C     C_R   0.470723 0.023798 0.810180 -0.011376
C14   C     C_R   0.962443 0.343209 0.019103 -0.128566
C15   C     C_R   0.537696 0.843148 0.943917 -0.128258
C16   C     C_R   0.462537 0.843237 0.056086 -0.128302
C17   C     C_R   0.000075 0.366475 0.999914 0.016390
C18   C     C_R   0.500091 0.866478 0.999992 0.018066
C19   C     C_R   0.473103 0.297688 0.068648 -0.122456
C20   C     C_R   0.527266 0.296795 0.933068 -0.074377
C21   C     C_R   0.969623 0.797887 0.066560 -0.123857
C22   C     C_R   0.031114 0.797213 0.934464 -0.072150
C23   C     C_R   0.000101 0.274132 0.999960 0.030371
C24   C     C_R   0.526897 0.026315 0.192080 -0.012232
C25   C     C_R   0.500182 0.774135 0.000010 0.030996
C26   C     C_R   0.486629 0.702615 0.065959 -0.119529
C27   C     C_R   0.513748 0.702511 0.934005 -0.119813
C28   C     C_R   0.986489 0.202555 0.961106 -0.120328
C29   C     C_R   0.013683 0.202579 0.038856 -0.119570
C30   C     C_R   0.486905 0.656750 0.065824 -0.126750
C31   C     C_R   0.513372 0.656649 0.934152 -0.127698
C32   C     C_R   0.986776 0.156693 0.960636 -0.128484
C33   C     C_R   0.013309 0.156713 0.039419 -0.125910
C34   C     C_R   0.500099 0.633413 0.999998 0.019491
C35   C     C_3   0.954450 0.574005 0.832170 -0.000788
C36   C     C_R   0.000021 0.133415 0.000048 0.018822
C37   C     C_R   0.500217 0.274110 0.001283 -0.019956
C38   C     C_R   0.000286 0.774348 0.000794 -0.019269
C39   C     C_R   0.039801 0.702436 0.965780 -0.113915
C40   C     C_R   0.960365 0.702718 0.036560 -0.110287
C41   C     C_R   0.539898 0.202372 0.960669 -0.114517
C42   C     C_R   0.460242 0.202604 0.042888 -0.113184
C43   C     C_R   0.980216 0.532396 0.739147 -0.012175
C44   C     C_R   0.028362 0.524727 0.252997 -0.013830
C45   C     C_R   0.471637 0.024844 0.747080 -0.014679
C46   C     C_3   0.066702 0.555408 0.148214 0.005813
C47   C     C_R   0.525900 0.027293 0.255263 -0.011142
C48   C     C_R   0.000474 0.499541 0.684749 0.006234
C49   C     C_R   0.999202 0.499590 0.315994 0.010960
C50   C     C_R   0.500865 0.999701 0.683933 0.012068
C51   C     C_R   0.499174 0.999569 0.315889 0.010968
C52   C     C_R   0.021269 0.465163 0.696758 -0.147344
C53   C     C_R   0.969133 0.473092 0.313348 -0.152385
C54   C     C_R   0.530998 0.973178 0.686425 -0.149360
C55   C     C_R   0.471622 0.970446 0.310663 -0.150007
C56   C     C_R   0.021620 0.465348 0.761270 -0.150728
C57   C     C_3   0.433153 0.055455 0.852105 0.005756
C58   C     C_R   0.968895 0.473373 0.248695 -0.151150
C59   C     C_R   0.531212 0.973426 0.751102 -0.151530
C60   C     C_R   0.471357 0.970708 0.246036 -0.150725
C61   C     C_3   0.561135 0.061423 0.153418 0.003566
C62   C     C_3   0.955316 0.574840 0.760055 0.010736
C63   C     C_3   0.065751 0.556425 0.220432 0.005100
C64   C     C_3   0.434120 0.056502 0.779874 0.004607
C65   C     C_R   0.915113 0.499982 0.585115 0.557475
C66   C     C_3   0.560089 0.062458 0.225724 0.004749
C67   C     C_R   0.202908 0.463683 0.272509 -0.096208
C68   C     C_R   0.798145 0.481715 0.752964 -0.092410
C69   C     C_R   0.703256 0.962699 0.315808 -0.111843
C70   C     C_R   0.297186 0.963854 0.727458 -0.095778
C71   C     C_R   0.156922 0.463331 0.316548 0.099598
C72   C     C_R   0.844283 0.480839 0.706758 0.099374
C73   C     C_R   0.657373 0.962103 0.363180 0.093301
C74   C     C_R   0.343167 0.963491 0.683429 0.099562
C75   C     C_R   0.133375 0.499515 0.364476 0.041395
C76   C     C_R   0.585098 0.999850 0.415384 0.561122
C77   C     C_R   0.867093 0.499954 0.634491 0.055412
C78   C     C_R   0.633500 0.999419 0.367125 0.051515
C79   C     C_R   0.366623 0.999663 0.635694 0.041105
C80   C     C_R   0.156400 0.535636 0.365618 -0.152785
C81   C     C_R   0.843895 0.518976 0.608885 -0.153904
C82   C     C_R   0.656392 0.036728 0.323729 -0.158654
C83   C     C_R   0.343501 0.035811 0.634824 -0.153209
C84   C     C_R   0.202150 0.535762 0.320909 -0.125803
C85   C     C_R   0.798109 0.518283 0.653979 -0.124351
C86   C     C_R   0.702172 0.036985 0.276784 -0.124161
C87   C     C_R   0.414952 0.999928 0.586053 0.547813
C88   C     C_R   0.297745 0.035958 0.679569 -0.126181
C89   C     C_R   0.225697 0.499789 0.274107 0.013248
C90   C     C_R   0.774539 0.499896 0.726862 0.013790
C91   C     C_R   0.725880 0.000018 0.272757 0.013801
C92   C     C_R   0.274293 0.999973 0.726115 0.013160
C93   C     C_R   0.000009 0.499957 0.618769 0.549138
C94   C     C_R   0.999968 0.499924 0.381394 0.541989
C95   C     C_R   0.500046 0.999964 0.618589 0.547512
C96   C     C_R   0.499920 0.999925 0.381398 0.546409
C97   C     C_R   0.297682 0.514327 0.253579 -0.130069
C98   C     C_R   0.000025 0.499149 0.815386 0.014309
C99   C     C_R   0.701747 0.533080 0.769616 -0.124534
C100  C     C_R   0.797835 0.016753 0.151122 -0.129038
C101  C     C_R   0.202274 0.014575 0.746707 -0.129312
C102  C     C_R   0.343442 0.513600 0.207595 -0.155479
C103  C     C_R   0.655962 0.532308 0.814238 -0.152687
C104  C     C_R   0.843616 0.016004 0.105804 -0.159797
C105  C     C_R   0.156517 0.013771 0.792612 -0.154817
C106  C     C_R   0.366493 0.498571 0.132652 0.046372
C107  C     C_R   0.632998 0.498866 0.867351 0.055863
C108  C     C_R   0.866593 0.999097 0.133715 0.057116
C109  C     C_R   0.999761 0.498962 0.185244 0.008154
C110  C     C_R   0.133499 0.998559 0.867355 0.042793
C111  C     C_R   0.342841 0.483557 0.104177 0.099868
C112  C     C_R   0.656125 0.465201 0.874822 0.097904
C113  C     C_R   0.842898 0.982340 0.208050 0.092543
C114  C     C_R   0.157174 0.983404 0.895689 0.098641
C115  C     C_R   0.296863 0.484946 0.150794 -0.097605
C116  C     C_R   0.702261 0.465343 0.827748 -0.094384
C117  C     C_R   0.797001 0.983333 0.253067 -0.114260
C118  C     C_R   0.203143 0.984899 0.849185 -0.096689
C119  C     C_R   0.274108 0.499987 0.225489 0.011773
C120  C     C_R   0.500260 0.999002 0.814727 0.009354
C121  C     C_R   0.725590 0.499459 0.775321 0.013581
C122  C     C_R   0.774248 0.000341 0.224987 0.014030
C123  C     C_R   0.225877 0.000137 0.774686 0.012137
C124  C     C_R   0.999982 0.633417 0.000673 0.008278
C125  C     C_R   0.499975 0.133364 0.000914 0.009510
C126  C     C_R   0.000131 0.725856 0.001212 0.033008
C127  C     C_R   0.500108 0.225707 0.001877 0.032011
C128  C     C_R   0.500203 0.725758 0.999984 0.030767
C129  C     C_R   0.000104 0.225759 0.999961 0.030163
C130  C     C_R   0.000028 0.414820 0.999963 0.546279
C131  C     C_R   0.499799 0.998961 0.185073 0.010692
C132  C     C_R   0.500029 0.914821 0.999988 0.547081
C133  C     C_R   0.039740 0.656611 0.965495 -0.125150
C134  C     C_R   0.960280 0.656871 0.036289 -0.124132
C135  C     C_R   0.539851 0.156567 0.960287 -0.124928
C136  C     C_R   0.460158 0.156774 0.042301 -0.126750
C137  C     C_R   0.999950 0.500014 0.881496 0.552243
C138  C     C_R   0.000032 0.499796 0.118663 0.552483
C139  C     C_R   0.499970 0.999800 0.881333 0.552925
C140  C     C_R   0.500035 0.999824 0.118616 0.552463
C141  C     C_R   0.999979 0.585027 0.000225 0.533230
C142  C     C_R   0.979386 0.531753 0.802190 -0.015441
C143  C     C_R   0.499976 0.085010 0.000239 0.536055
C144  C     C_R   0.500174 0.366600 0.999578 0.064690
C145  C     C_R   0.000405 0.866805 0.999506 0.067380
C146  C     C_R   0.500234 0.414979 0.999667 0.570004
C147  C     C_R   0.000310 0.915053 0.999633 0.573899
C148  C     C_R   0.414906 0.499321 0.084911 0.562800
C149  C     C_R   0.584917 0.499700 0.915161 0.554944
C150  C     C_R   0.914936 0.999498 0.085106 0.577027
C151  C     C_R   0.085092 0.999300 0.915087 0.548207
C152  C     C_R   0.472957 0.343688 0.068362 0.071946
Cu1   Cu    Cu3+1 1.000000 0.544020 0.500000 0.920293
Cu2   Cu    Cu3+1 0.500020 0.499990 0.938180 0.945404
Cu3   Cu    Cu3+1 0.999980 0.999990 0.061820 0.991583
Cu4   Cu    Cu3+1 0.000020 0.999990 0.938180 0.919657
Cu5   Cu    Cu3+1 0.500000 0.044020 0.500000 0.919475
Cu6   Cu    Cu3+1 1.000000 0.455930 0.500000 0.974014
Cu7   Cu    Cu3+1 0.500000 0.955930 0.500000 0.974963
Cu8   Cu    Cu3+1 0.955930 0.499910 0.044070 0.923037
Cu9   Cu    Cu3+1 0.044070 0.499910 0.955930 0.922064
Cu10  Cu    Cu3+1 0.455930 0.999910 0.044070 0.921513
Cu11  Cu    Cu3+1 0.544070 0.999910 0.955930 0.922187
Cu12  Cu    Cu3+1 0.499980 0.499990 0.061820 0.969849
H1    H     H_    0.037743 0.438728 0.656038 0.137188
H2    H     H_    0.718289 0.560477 0.731467 0.112080
H3    H     H_    0.609183 0.015680 0.187117 0.233897
H4    H     H_    0.120154 0.438313 0.284500 0.224757
H5    H     H_    0.156340 0.402035 0.276951 0.217449
H6    H     H_    0.885176 0.485905 0.738745 0.216456
H7    H     H_    0.846436 0.447315 0.786575 0.221261
H8    H     H_    0.644886 0.896887 0.372045 0.228201
H9    H     H_    0.646233 0.918380 0.442484 0.217324
H10   H     H_    0.379995 0.938453 0.715338 0.224905
H11   H     H_    0.343902 0.902191 0.722682 0.218209
H12   H     H_    0.780845 0.029603 0.128127 0.118656
H13   H     H_    0.219232 0.026002 0.689025 0.115516
H14   H     H_    0.360838 0.525186 0.230606 0.130871
H15   H     H_    0.638335 0.558533 0.808724 0.113883
H16   H     H_    0.861088 0.029041 0.048998 0.129283
H17   H     H_    0.139093 0.025451 0.769712 0.133298
H18   H     H_    0.278736 0.474175 0.128689 0.102187
H19   H     H_    0.719741 0.438341 0.831628 0.099705
H20   H     H_    0.779142 0.970824 0.310285 0.101498
H21   H     H_    0.945611 0.452886 0.361251 0.127097
H22   H     H_    0.221280 0.974044 0.871222 0.102233
H23   H     H_    0.070835 0.639404 0.937959 0.134076
H24   H     H_    0.929147 0.639852 0.063601 0.132266
H25   H     H_    0.571055 0.139392 0.928124 0.134171
H26   H     H_    0.428922 0.139744 0.074089 0.132851
H27   H     H_    0.452204 0.280399 0.121776 0.112696
H28   H     H_    0.548021 0.278788 0.880540 0.139196
H29   H     H_    0.945899 0.780582 0.118390 0.110335
H30   H     H_    0.054809 0.779371 0.883125 0.139492
H31   H     H_    0.066944 0.279864 0.966439 0.110671
H32   H     H_    0.554568 0.952959 0.638402 0.130433
H33   H     H_    0.933257 0.279953 0.033471 0.110501
H34   H     H_    0.566913 0.779833 0.899876 0.109049
H35   H     H_    0.433438 0.780000 0.100137 0.110276
H36   H     H_    0.067101 0.360371 0.965988 0.128760
H37   H     H_    0.933052 0.360441 0.033844 0.129196
H38   H     H_    0.567010 0.860333 0.899904 0.126559
H39   H     H_    0.433187 0.860491 0.100095 0.127269
H40   H     H_    0.038179 0.439086 0.769231 0.124358
H41   H     H_    0.945221 0.453284 0.247905 0.131662
H42   H     H_    0.554928 0.953311 0.751783 0.128010
H43   H     H_    0.450003 0.948183 0.356607 0.131512
H44   H     H_    0.449599 0.948589 0.243264 0.127187
H45   H     H_    0.070840 0.719591 0.938971 0.110526
H46   H     H_    0.929397 0.720107 0.063460 0.108997
H47   H     H_    0.571038 0.219603 0.929284 0.111218
H48   H     H_    0.429157 0.220025 0.074424 0.109101
H49   H     H_    0.476320 0.720068 0.117279 0.110092
H50   H     H_    0.524079 0.719883 0.882687 0.109657
H51   H     H_    0.976148 0.219959 0.930412 0.110240
H52   H     H_    0.024047 0.220007 0.069526 0.111168
H53   H     H_    0.476389 0.639574 0.117382 0.127809
H54   H     H_    0.219145 0.564199 0.322259 0.116409
H55   H     H_    0.523851 0.639392 0.882596 0.127830
H56   H     H_    0.976240 0.139471 0.930066 0.127706
H57   H     H_    0.023816 0.139502 0.070013 0.131395
H58   H     H_    0.921385 0.570208 0.886350 0.169344
H59   H     H_    0.096853 0.540931 0.097327 0.171045
H60   H     H_    0.403050 0.040945 0.902866 0.171458
H61   H     H_    0.592512 0.049843 0.101328 0.171105
H62   H     H_    0.974581 0.602124 0.720032 0.173269
H63   H     H_    0.056418 0.588534 0.250669 0.172386
H64   H     H_    0.443327 0.088628 0.749894 0.172761
H65   H     H_    0.781353 0.531614 0.630947 0.111867
H66   H     H_    0.547735 0.093569 0.258864 0.171226
H67   H     H_    0.221001 0.435672 0.236761 0.099023
H68   H     H_    0.780881 0.468563 0.809586 0.099746
H69   H     H_    0.721216 0.933757 0.312671 0.101963
H70   H     H_    0.279180 0.935827 0.762984 0.100086
H71   H     H_    0.138970 0.563709 0.401772 0.132321
H72   H     H_    0.861335 0.533397 0.553011 0.113431
H73   H     H_    0.638875 0.065718 0.325690 0.134344
H74   H     H_    0.360858 0.063879 0.598838 0.132164
H75   H     H_    0.379012 0.435862 0.028134 0.230233
H76   H     H_    0.719068 0.066305 0.244485 0.119241
H77   H     H_    0.343237 0.459453 0.015282 0.217759
H78   H     H_    0.616946 0.411763 0.911513 0.216815
H79   H     H_    0.654467 0.409828 0.930496 0.223554
H80   H     H_    0.855574 0.980473 0.286617 0.225874
H81   H     H_    0.854529 0.930745 0.252724 0.222769
H82   H     H_    0.121132 0.935520 0.970974 0.226407
H83   H     H_    0.156814 0.958880 0.984244 0.218686
H84   H     H_    0.451984 0.357834 0.175244 0.234015
H85   H     H_    0.412016 0.357074 0.161066 0.221045
H86   H     H_    0.575537 0.386595 0.863636 0.230998
H87   H     H_    0.280672 0.064410 0.678420 0.116178
H88   H     H_    0.537007 0.380240 0.845929 0.258959
H89   H     H_    0.940945 0.858052 0.176496 0.231592
H90   H     H_    0.906247 0.857563 0.150350 0.220764
H91   H     H_    0.081601 0.886601 0.875336 0.229703
H92   H     H_    0.049095 0.882354 0.844351 0.257826
H93   H     H_    0.982740 0.603052 0.878864 0.238880
H94   H     H_    0.012502 0.608890 0.784521 0.234312
H95   H     H_    0.049848 0.592275 0.090076 0.244263
H96   H     H_    0.023415 0.607612 0.180951 0.232507
H97   H     H_    0.449867 0.092300 0.910532 0.245214
H98   H     H_    0.280701 0.525620 0.311404 0.115444
H99   H     H_    0.476225 0.107701 0.819788 0.233387
H100  H     H_    0.540863 0.096374 0.098564 0.243080
H101  H     H_    0.513060 0.109228 0.190735 0.232516
H102  H     H_    0.915735 0.564179 0.725069 0.246307
H103  H     H_    0.896190 0.541756 0.809843 0.224019
H104  H     H_    0.099118 0.533561 0.262182 0.238787
H105  H     H_    0.110002 0.505024 0.186781 0.226811
H106  H     H_    0.400866 0.033634 0.737903 0.238375
H107  H     H_    0.390087 0.005054 0.813076 0.227254
H108  H     H_    0.595381 0.042776 0.265536 0.237920
N1    N     N_3   0.365359 0.466074 0.028865 -0.593495
N2    N     N_3   0.053911 0.597428 0.133270 -0.630589
N3    N     N_3   0.445774 0.097475 0.867392 -0.629691
N4    N     N_3   0.544393 0.101983 0.142271 -0.630186
N5    N     N_3   0.911633 0.569639 0.776326 -0.630536
N6    N     N_3   0.104983 0.536789 0.209140 -0.630353
N7    N     N_3   0.394976 0.036833 0.790979 -0.630642
N8    N     N_3   0.601017 0.046738 0.212786 -0.634867
N9    N     N_3   0.134239 0.426905 0.311345 -0.596364
N10   N     N_3   0.868116 0.460954 0.732910 -0.607050
N11   N     N_3   0.635397 0.923886 0.408284 -0.604306
N12   N     N_3   0.632631 0.430769 0.929380 -0.604494
N13   N     N_3   0.365939 0.927051 0.688430 -0.595859
N14   N     N_3   0.865120 0.963293 0.237569 -0.590522
N15   N     N_3   0.134687 0.965671 0.970732 -0.594993
N16   N     N_3   0.444260 0.367072 0.137888 -0.608816
N17   N     N_3   0.556049 0.363782 0.859651 -0.635277
N18   N     N_3   0.937454 0.867383 0.133939 -0.601824
N19   N     N_3   0.064466 0.864662 0.864161 -0.635349
N20   N     N_3   0.980436 0.609370 0.833987 -0.627500
O1    O     O_R   0.064270 0.537170 0.435740 -0.525602
O2    O     O_R   0.564300 0.499990 0.987900 -0.478834
O3    O     O_R   0.935700 0.999990 0.012100 -0.524675
O4    O     O_R   0.064300 0.999990 0.987900 -0.474776
O5    O     O_R   0.500010 0.564260 0.052180 -0.518522
O6    O     O_R   0.499990 0.564260 0.947820 -0.513872
O7    O     O_R   0.000010 0.064260 0.052180 -0.516213
O8    O     O_R   0.999990 0.064260 0.947820 -0.516493
O9    O     O_R   0.064230 0.462780 0.435770 -0.471200
O10   O     O_R   0.935770 0.462780 0.564230 -0.480562
O11   O     O_R   0.564230 0.962780 0.435770 -0.466806
O12   O     O_R   0.935730 0.537170 0.564260 -0.520756
O13   O     O_R   0.435770 0.962780 0.564230 -0.471602
O14   O     O_R   0.000000 0.537170 0.590170 -0.517867
O15   O     O_R   0.000000 0.537170 0.409830 -0.514410
O16   O     O_R   0.500000 0.037170 0.590170 -0.512050
O17   O     O_R   0.500000 0.037170 0.409830 -0.516302
O18   O     O_R   0.999960 0.462780 0.590210 -0.505026
O19   O     O_R   0.000040 0.462780 0.409790 -0.512945
O20   O     O_R   0.499960 0.962780 0.590210 -0.507902
O21   O     O_R   0.500040 0.962780 0.409790 -0.511914
O22   O     O_R   0.962790 0.435650 0.037200 -0.512888
O23   O     O_R   0.564270 0.037170 0.435740 -0.528307
O24   O     O_R   0.037210 0.435650 0.962800 -0.512778
O25   O     O_R   0.462790 0.935650 0.037200 -0.512741
O26   O     O_R   0.537210 0.935650 0.962800 -0.512764
O27   O     O_R   0.962770 0.499920 0.947050 -0.511339
O28   O     O_R   0.037230 0.499920 0.052950 -0.514114
O29   O     O_R   0.462770 0.999920 0.947050 -0.512102
O30   O     O_R   0.537230 0.999920 0.052950 -0.511021
O31   O     O_R   0.037170 0.499970 0.872660 -0.506412
O32   O     O_R   0.962830 0.499970 0.127340 -0.508791
O33   O     O_R   0.537170 0.999970 0.872660 -0.510182
O34   O     O_R   0.435730 0.037170 0.564260 -0.525828
O35   O     O_R   0.462830 0.999970 0.127340 -0.509928
O36   O     O_R   0.962770 0.564180 0.037230 -0.514224
O37   O     O_R   0.037230 0.564180 0.962770 -0.517186
O38   O     O_R   0.462770 0.064180 0.037230 -0.516446
O39   O     O_R   0.537230 0.064180 0.962770 -0.515767
O40   O     O_R   0.499950 0.435720 0.052230 -0.468635
O41   O     O_R   0.500050 0.435720 0.947770 -0.530296
O42   O     O_R   0.999950 0.935720 0.052230 -0.478176
O43   O     O_R   0.000050 0.935720 0.947770 -0.524271
O44   O     O_R   0.435710 0.499990 0.116480 -0.519356
O45   O     O_R   0.564290 0.499990 0.883520 -0.524637
O46   O     O_R   0.935710 0.999990 0.116480 -0.462237
O47   O     O_R   0.064290 0.999990 0.883520 -0.527286
O48   O     O_R   0.435700 0.499990 0.012100 -0.468815

loop_
_geom_bond_atom_site_label_1
_geom_bond_atom_site_label_2
_ccdc_geom_bond_type
C99   C103  A    
C105  C110  A    
C24   C61   S    
C141  O36   A    
C138  O32   A    
C107  C112  A    
C18   C132  S    
C79   C87   S    
C118  H22   S    
C46   N2    S    
H86   N17   S    
C124  C133  A    
Cu9   O28   S    
C64   N7    S    
C22   C38   A    
C116  H19   S    
C29   C33   A    
C100  C104  A    
C33   C36   A    
Cu11  O33   S    
C42   C136  A    
H88   N17   S    
Cu6   O19   S    
C131  C140  S    
C19   C37   A    
C87   O34   A    
Cu10  O35   S    
C91   C122  S    
C70   C74   A    
C68   C90   A    
C96   O17   A    
C99   C121  A    
C125  C135  A    
H107  N7    S    
C83   C88   A    
C67   H67   S    
Cu6   O18   S    
C150  O46   A    
H78   N12   S    
C65   O12   A    
C54   H32   S    
C116  C121  A    
C27   C31   A    
C134  H24   S    
C28   C32   A    
C85   H65   S    
C92   C123  S    
C63   H63   S    
C58   H41   S    
C149  O2    A    
C108  C113  A    
C27   C128  A    
C78   C82   A    
H101  N4    S    
C68   C72   A    
C84   H54   S    
C59   H42   S    
C74   C79   A    
C106  C111  A    
Cu10  O25   S    
C147  O42   A    
C85   C90   A    
C152  N16   S    
C63   N6    S    
C93   O18   A    
Cu3   O4    S    
C13   C45   A    
C24   C131  A    
C76   O23   A    
C45   C50   A    
C49   C53   A    
Cu9   O37   S    
Cu2   O45   S    
H5    N9    S    
C148  O48   A    
C48   C52   A    
Cu3   Cu4   S    
C43   C142  A    
C103  C107  A    
H90   N18   S    
Cu6   O10   S    
Cu3   O46   S    
C138  O28   A    
C19   H27   S    
C15   C18   A    
C14   H37   S    
C2    C109  A    
H80   N14   S    
C59   C120  A    
C53   C58   A    
C40   H46   S    
C41   C127  A    
Cu1   O12   S    
Cu7   O21   S    
C39   H45   S    
H100  N4    S    
C26   H49   S    
C32   C36   A    
Cu2   Cu12  S    
C25   C128  S    
C76   C78   S    
C52   H1    S    
H4    N9    S    
C13   C57   S    
C11   C25   A    
H95   N2    S    
C112  N12   S    
Cu1   Cu6   S    
C69   H69   S    
H91   N19   S    
C29   C129  A    
C21   C38   A    
C2    C44   A    
C27   H50   S    
C110  C114  A    
C103  H15   S    
Cu3   O42   S    
H96   N2    S    
H108  N8    S    
C98   C142  A    
C14   C17   A    
C38   C126  S    
C9    H33   S    
C54   C59   A    
C130  O24   A    
C5    C145  A    
C94   O19   A    
C30   C34   A    
C132  O26   A    
Cu4   O43   S    
Cu1   O14   S    
C9    C23   A    
C40   C134  A    
C109  C138  S    
C97   C119  A    
C117  C122  A    
Cu7   O20   S    
C86   H76   S    
C8    C12   A    
C12   H36   S    
C31   C34   A    
Cu12  O5    S    
C32   H56   S    
C108  C150  S    
C10   C25   A    
C26   C30   A    
C115  C119  A    
H75   N1    S    
C102  H14   S    
C90   C121  S    
C113  C117  A    
C124  C141  S    
C41   C135  A    
C115  H18   S    
C42   H48   S    
H94   N20   S    
Cu4   O3    S    
C17   C130  S    
C97   C102  A    
C6    O5    A    
C137  O31   A    
H9    N11   S    
C55   H43   S    
C45   C64   S    
H99   N3    S    
C1    O1    A    
C46   C63   S    
C144  C152  A    
C147  O43   A    
C20   C37   A    
C125  C143  S    
C4    C145  A    
C61   N4    S    
C4    N18   S    
C133  H23   S    
C35   C142  S    
C107  C149  S    
Cu2   O6    S    
Cu8   O36   S    
C44   C63   S    
C3    N17   S    
Cu2   O48   S    
C21   H29   S    
C69   C91   A    
H92   N19   S    
C81   C85   A    
C68   H68   S    
C33   H57   S    
C93   O14   A    
C130  O22   A    
C7    C36   S    
H89   N18   S    
C112  C116  A    
C80   C84   A    
C13   C120  A    
Cu12  O2    S    
C117  H20   S    
C51   C55   A    
C7    O8    A    
C50   C54   A    
C150  O3    A    
H6    N10   S    
C86   C91   A    
Cu12  O44   S    
C82   H73   S    
H104  N6    S    
C23   C129  S    
H77   N1    S    
H8    N11   S    
C89   C119  S    
H85   N16   S    
C12   C17   A    
C100  H12   S    
C69   C73   A    
C62   N5    S    
H7    N10   S    
C47   C66   S    
C8    C23   A    
Cu8   O22   S    
C73   N11   S    
C28   H51   S    
C83   H74   S    
Cu5   Cu7   S    
C39   C126  A    
C55   C60   A    
Cu11  O39   S    
C151  O47   A    
C60   C131  A    
C145  C147  S    
C31   H55   S    
C57   N3    S    
H102  N5    S    
C48   C93   S    
C98   C137  S    
C151  O4    A    
C71   N9    S    
C65   C77   S    
C144  C146  S    
C110  C151  S    
C35   H58   S    
C60   H44   S    
C47   C51   A    
Cu12  O40   S    
C74   N13   S    
C82   C86   A    
C46   H59   S    
Cu5   O23   S    
C9    C14   A    
C113  N14   S    
C11   C16   A    
C77   C81   A    
C5    N19   S    
Cu7   O11   S    
C97   H98   S    
Cu7   O13   S    
C88   H87   S    
H97   N3    S    
C125  C136  A    
C94   O15   A    
C95   O16   A    
C104  C108  A    
Cu10  Cu11  S    
C39   C133  A    
H81   N14   S    
C70   C92   A    
C3    C144  A    
C20   H28   S    
H79   N12   S    
C124  C134  A    
C62   H62   S    
C79   C83   A    
Cu10  O38   S    
C149  O45   A    
Cu9   O24   S    
C67   C71   A    
C118  C123  A    
C114  N15   S    
C11   H35   S    
C101  H13   S    
C6    C34   S    
C146  O40   A    
H3    N8    S    
C76   O11   A    
C43   C62   S    
C57   H60   S    
C44   C49   A    
H106  N7    S    
C58   C109  A    
C56   C98   A    
C2    C46   S    
C101  C123  A    
Cu5   O17   S    
C8    H31   S    
C146  O41   A    
Cu11  O26   S    
C10   C15   A    
H11   N13   S    
C50   C95   S    
C67   C89   A    
C143  O38   A    
C106  C148  S    
C28   C129  A    
C70   H70   S    
C53   H21   S    
C135  H25   S    
C61   C66   S    
C5    C22   A    
C139  O29   A    
Cu5   O16   S    
C73   C78   A    
C66   N8    S    
C49   C94   S    
C16   H39   S    
C43   C48   A    
Cu6   O9    S    
C51   C96   S    
C99   H2    S    
C80   H71   S    
C1    O9    A    
H82   N15   S    
C10   H34   S    
C101  C105  A    
C1    C75   S    
C88   C92   A    
C3    C20   A    
H83   N15   S    
C6    O6    A    
H84   N16   S    
C29   H52   S    
Cu1   O1    S    
H10   N13   S    
H103  N5    S    
C61   H61   S    
C136  H26   S    
C72   C77   A    
H93   N20   S    
C35   N20   S    
Cu8   O32   S    
C40   C126  A    
C19   C152  A    
C81   H72   S    
C120  C139  S    
C26   C128  A    
Cu4   O47   S    
C114  C118  A    
C30   H53   S    
C42   C127  A    
Cu10  O29   S    
Cu5   O34   S    
Cu2   O41   S    
C72   N10   S    
C84   C89   A    
C148  O44   A    
C64   H64   S    
C15   H38   S    
C57   C64   S    
C75   C80   A    
Cu11  O30   S    
C24   C47   A    
C140  O30   A    
C132  O25   A    
Cu4   O8    S    
Cu1   O15   S    
C56   H40   S    
C7    O7    A    
C65   O10   A    
C87   O13   A    
C66   H66   S    
C105  H17   S    
Cu8   Cu9   S    
C143  O39   A    
C137  O27   A    
C71   C75   A    
C4    C21   A    
C104  H16   S    
C139  O33   A    
C140  O35   A    
C141  O37   A    
H105  N6    S    
C102  C106  A    
C35   C62   S    
C100  C122  A    
C111  N1    S    
C95   O20   A    
C41   H47   S    
Cu3   O7    S    
Cu9   O31   S    
C16   C18   A    
C22   H30   S    
C111  C115  A    
C96   O21   A    
C52   C56   A    
Cu8   O27   S    
C37   C127  S    
