data_mof_unit_20756.cif
_audit_creation_date              2012-12-11T15:24:45-0500
_audit_creation_method            fapswitch 2.2
_symmetry_space_group_name_H-M    P1
_symmetry_Int_Tables_number       1
_space_group_crystal_system       triclinic
_cell_length_a                    22.589648
_cell_length_b                    6.952064
_cell_length_c                    21.249428
_cell_angle_alpha                 90.00085
_cell_angle_beta                  92.930285
_cell_angle_gamma                 90.000054
_cell_volume                      3332.74623885

loop_
_atom_site_label
_atom_site_type_symbol
_atom_type_description
_atom_site_fract_x
_atom_site_fract_y
_atom_site_fract_z
_atom_type_partial_charge
O1    O     O_R   0.188030 0.379840 0.189340 -0.537693
O2    O     O_R   0.811970 0.620160 0.810660 -0.548476
O3    O     O_R   0.311970 0.879840 0.310660 -0.537693
O4    O     O_R   0.688030 0.120160 0.689340 -0.548474
O5    O     O_R   0.307090 0.708420 0.185790 -0.535896
O6    O     O_R   0.692910 0.291580 0.814210 -0.540546
O7    O     O_R   0.192910 0.208420 0.314210 -0.535897
O8    O     O_R   0.807090 0.791580 0.685790 -0.540546
C1    C     C_R   0.324474 0.540381 0.168521 0.742522
C2    C     C_R   0.676888 0.460179 0.832709 0.742795
C3    C     C_R   0.175526 0.040383 0.331479 0.742524
C4    C     C_R   0.823113 0.960178 0.667292 0.742795
O9    O     O_R   0.188180 0.709480 0.181650 -0.549795
O10   O     O_R   0.811820 0.290520 0.818350 -0.537645
O11   O     O_R   0.311820 0.209480 0.318350 -0.549796
O12   O     O_R   0.688180 0.790520 0.681650 -0.537645
O13   O     O_R   0.192210 0.880960 0.306500 -0.541878
O14   O     O_R   0.807790 0.119040 0.693500 -0.538871
O15   O     O_R   0.307790 0.380960 0.193500 -0.541878
O16   O     O_R   0.692210 0.619040 0.806500 -0.538870
C5    C     C_R   0.165169 0.541260 0.168811 0.826576
C6    C     C_R   0.835081 0.458814 0.831072 0.821388
C7    C     C_R   0.334830 0.041262 0.331189 0.826581
C8    C     C_R   0.664919 0.958812 0.668928 0.821389
O17   O     O_3   0.251460 0.546730 0.290970 -0.374417
O18   O     O_3   0.748540 0.453270 0.709030 -0.373677
O19   O     O_3   0.248540 0.046730 0.209030 -0.374414
O20   O     O_3   0.751460 0.953270 0.790970 -0.373680
V1    V     V_3+5 0.249730 0.821120 0.242400 1.475834
V2    V     V_3+5 0.750270 0.178880 0.757600 1.479660
V3    V     V_3+5 0.250270 0.321120 0.257600 1.475836
V4    V     V_3+5 0.749730 0.678880 0.742400 1.479666
C9    C     C_R   0.555365 0.986054 0.635880 0.312335
C10   C     C_R   0.443846 0.056973 0.365512 0.320610
C11   C     C_R   0.944633 0.486071 0.864121 0.312335
C12   C     C_R   0.056152 0.556951 0.134491 0.320613
C13   C     C_R   0.615194 0.968728 0.619738 -0.216375
C14   C     C_R   0.384147 0.030488 0.380421 -0.222849
C15   C     C_R   0.884805 0.468733 0.880263 -0.216375
C16   C     C_R   0.115852 0.530482 0.119581 -0.222848
C17   C     C_R   0.628523 0.960439 0.556125 0.312246
C18   C     C_R   0.370711 0.989195 0.442501 0.312580
C19   C     C_R   0.871476 0.460427 0.943875 0.312244
C20   C     C_R   0.129288 0.489204 0.057499 0.312585
C21   C     C_R   0.582911 0.985805 0.507970 -0.038865
C22   C     C_R   0.416274 0.990838 0.491322 -0.048169
C23   C     C_R   0.917088 0.485789 0.992031 -0.038867
C24   C     C_R   0.083724 0.490847 0.008679 -0.048170
C25   C     C_R   0.522649 0.983052 0.523819 -0.121339
C26   C     C_R   0.476564 0.996230 0.475611 -0.129020
C27   C     C_R   0.977350 0.483049 0.976182 -0.121339
C28   C     C_R   0.023435 0.496224 0.024390 -0.129015
C29   C     C_R   0.508477 0.974433 0.588015 -0.095629
C30   C     C_R   0.490666 0.021062 0.411863 -0.082197
C31   C     C_R   0.991521 0.474447 0.911986 -0.095630
C32   C     C_R   0.009332 0.521039 0.088139 -0.082197
C33   C     C_R   0.596496 0.021091 0.444926 0.243501
C34   C     C_R   0.402552 0.993276 0.555209 0.264432
C35   C     C_R   0.903503 0.521059 0.055077 0.243504
C36   C     C_R   0.097446 0.493301 0.944791 0.264433
C37   C     C_R   0.551084 0.017791 0.396448 0.309061
C38   C     C_R   0.447731 0.966222 0.602682 0.315234
C39   C     C_R   0.948915 0.517755 0.103554 0.309056
C40   C     C_R   0.052268 0.466249 0.897318 0.315237
C41   C     C_3   0.046917 0.065071 0.529766 0.219700
C42   C     C_3   0.949413 0.938271 0.466514 0.218542
C43   C     C_3   0.453083 0.565063 0.970235 0.219698
C44   C     C_3   0.550588 0.438279 0.033488 0.218532
C45   C     C_3   0.012620 0.880216 0.544912 0.268223
C46   C     C_3   0.983736 0.123146 0.451386 0.271184
C47   C     C_3   0.487383 0.380211 0.955088 0.268226
C48   C     C_3   0.516263 0.623151 0.048615 0.271186
C49   C     C_1   0.866528 0.970187 0.619623 -0.156066
C50   C     C_1   0.130805 0.031661 0.377758 -0.154025
C51   C     C_1   0.633474 0.470192 0.880378 -0.156069
C52   C     C_1   0.369194 0.531657 0.122242 -0.154022
C53   C     C_3   0.987709 0.174961 0.522053 0.248000
C54   C     C_3   0.008637 0.828324 0.474256 0.248774
C55   C     C_3   0.512290 0.674960 0.977948 0.247997
C56   C     C_3   0.491366 0.328325 0.025745 0.248774
C57   C     C_3   0.952930 0.990061 0.537496 -0.126869
C58   C     C_3   0.043408 0.013241 0.458784 -0.126285
C59   C     C_3   0.547071 0.490063 0.962506 -0.126865
C60   C     C_3   0.456592 0.513239 0.041217 -0.126277
C61   C     C_1   0.904709 0.978709 0.581711 0.145531
C62   C     C_1   0.091953 0.024011 0.414924 0.143987
C63   C     C_1   0.595293 0.478713 0.918291 0.145528
C64   C     C_1   0.408047 0.524007 0.085076 0.143989
O21   O     O_3   0.543598 0.015296 0.698568 -0.565216
C65   C     C_3   0.520511 0.203374 0.706962 0.146407
H1    H     H_    0.481159 0.191592 0.736052 0.186906
H2    H     H_    0.505521 0.278517 0.662458 0.092976
C66   C     C_3   0.566313 0.327584 0.742525 -0.352221
H3    H     H_    0.577177 0.258475 0.788699 0.217563
H4    H     H_    0.606665 0.337946 0.715262 0.206134
C67   C     C_3   0.543089 0.530399 0.752466 -0.818897
H5    H     H_    0.534711 0.600655 0.706190 0.235586
H6    H     H_    0.576308 0.620179 0.778680 0.239207
H7    H     H_    0.502450 0.525316 0.779652 0.230458
O22   O     O_3   0.455676 0.116321 0.305231 -0.556218
C68   C     C_3   0.476270 0.309588 0.306460 0.139851
H8    H     H_    0.518986 0.314684 0.282815 0.170383
H9    H     H_    0.484459 0.372201 0.354605 0.090075
C69   C     C_3   0.432055 0.435447 0.269290 -0.391131
H10   H     H_    0.423969 0.369107 0.222257 0.203893
H11   H     H_    0.390100 0.442270 0.293964 0.214210
C70   C     C_3   0.454966 0.639500 0.261668 -0.776898
H12   H     H_    0.464720 0.704387 0.308659 0.237212
H13   H     H_    0.420967 0.729402 0.236310 0.246115
H14   H     H_    0.495256 0.637904 0.234055 0.247094
O23   O     O_3   0.956400 0.515331 0.801434 -0.565213
C71   C     C_3   0.979485 0.703415 0.793046 0.146409
H15   H     H_    0.018838 0.691647 0.763959 0.186906
H16   H     H_    0.994471 0.778554 0.837554 0.092972
C72   C     C_3   0.933682 0.827621 0.757485 -0.352221
H17   H     H_    0.922819 0.758507 0.711311 0.217560
H18   H     H_    0.893330 0.837983 0.784748 0.206135
C73   C     C_3   0.956905 0.030436 0.747543 -0.818900
H19   H     H_    0.965287 0.100694 0.793819 0.235587
H20   H     H_    0.923685 0.120212 0.721332 0.239213
H21   H     H_    0.997543 0.025351 0.720354 0.230454
O24   O     O_3   0.044321 0.616276 0.194775 -0.556224
C74   C     C_3   0.023720 0.809534 0.193555 0.139868
H22   H     H_    0.981016 0.814613 0.217225 0.170368
H23   H     H_    0.015502 0.872133 0.145412 0.090096
C75   C     C_3   0.067948 0.935420 0.230698 -0.391155
H24   H     H_    0.076057 0.869095 0.277729 0.203896
H25   H     H_    0.109890 0.942252 0.206002 0.214208
C76   C     C_3   0.045035 0.139469 0.238328 -0.776904
H26   H     H_    0.035268 0.204352 0.191341 0.237222
H27   H     H_    0.079038 0.229378 0.263677 0.246117
H28   H     H_    0.004752 0.137867 0.265953 0.247095
O25   O     O_3   0.686709 0.926152 0.542630 -0.615709
H29   H     H_    0.686412 0.835852 0.506508 0.329758
O26   O     O_3   0.312551 0.946063 0.453762 -0.614171
H30   H     H_    0.312962 0.837271 0.483951 0.325640
O27   O     O_3   0.813290 0.426128 0.957369 -0.615709
H31   H     H_    0.813589 0.335820 0.993489 0.329757
O28   O     O_3   0.187449 0.446086 0.046236 -0.614172
H32   H     H_    0.187040 0.337302 0.016043 0.325642
O29   O     O_3   0.653793 0.072868 0.432020 -0.630004
H33   H     H_    0.653777 0.137331 0.390428 0.314848
O30   O     O_3   0.345003 0.033725 0.570511 -0.630235
H34   H     H_    0.343800 0.064253 0.615914 0.320439
O31   O     O_3   0.846205 0.572829 0.067984 -0.630003
H35   H     H_    0.846221 0.637286 0.109577 0.314847
O32   O     O_3   0.154995 0.533769 0.929490 -0.630235
H36   H     H_    0.156196 0.564315 0.884089 0.320436
O33   O     O_3   0.565890 0.022807 0.333921 -0.567816
C77   C     C_3   0.594276 0.849314 0.317944 0.069605
H37   H     H_    0.565619 0.723287 0.326936 0.115921
H38   H     H_    0.636990 0.829619 0.345530 0.143628
C78   C     C_3   0.607647 0.855695 0.248191 -0.282787
H39   H     H_    0.566239 0.885637 0.219414 0.237209
H40   H     H_    0.639326 0.974573 0.240257 0.196363
C79   C     C_3   0.634431 0.666542 0.226716 -0.800866
H41   H     H_    0.676398 0.635900 0.254431 0.232973
H42   H     H_    0.644221 0.676774 0.176160 0.255064
H43   H     H_    0.602943 0.545984 0.232666 0.222006
O34   O     O_3   0.431397 0.938097 0.663886 -0.574624
C80   C     C_3   0.422847 0.739487 0.675017 0.095377
H44   H     H_    0.435512 0.714671 0.725369 0.165849
H45   H     H_    0.450992 0.644762 0.646421 0.096057
C81   C     C_3   0.357764 0.680426 0.664498 -0.336241
H46   H     H_    0.329149 0.780523 0.690155 0.215541
H47   H     H_    0.344696 0.685828 0.613470 0.217871
C82   C     C_3   0.348027 0.475626 0.687796 -0.793750
H48   H     H_    0.377150 0.373752 0.663572 0.232621
H49   H     H_    0.301128 0.433156 0.677620 0.249282
H50   H     H_    0.357981 0.466564 0.739456 0.233711
O35   O     O_3   0.934108 0.522762 0.166081 -0.567817
C83   C     C_3   0.905722 0.349266 0.182054 0.069607
H51   H     H_    0.934379 0.223239 0.173056 0.115918
H52   H     H_    0.863008 0.329577 0.154470 0.143630
C84   C     C_3   0.892355 0.355633 0.251808 -0.282774
H53   H     H_    0.933765 0.385571 0.280584 0.237210
H54   H     H_    0.860677 0.474510 0.259748 0.196361
C85   C     C_3   0.865572 0.166476 0.273278 -0.800866
H55   H     H_    0.823602 0.135843 0.245567 0.232974
H56   H     H_    0.855788 0.176695 0.323837 0.255065
H57   H     H_    0.897059 0.045916 0.267321 0.221997
O36   O     O_3   0.068601 0.438140 0.836113 -0.574623
C86   C     C_3   0.077157 0.239535 0.824975 0.095382
H58   H     H_    0.064487 0.214721 0.774624 0.165849
H59   H     H_    0.049019 0.144793 0.853572 0.096052
C87   C     C_3   0.142243 0.180499 0.835485 -0.336236
H60   H     H_    0.170852 0.280615 0.809828 0.215541
H61   H     H_    0.155316 0.185896 0.886511 0.217874
C88   C     C_3   0.151986 0.975708 0.812178 -0.793750
H62   H     H_    0.122870 0.873816 0.836404 0.232619
H63   H     H_    0.198887 0.933258 0.822347 0.249276
H64   H     H_    0.142026 0.966653 0.760519 0.233715
O37   O     O_3   0.027954 0.753001 0.594020 -0.615563
H65   H     H_    0.067849 0.704094 0.584995 0.333487
O38   O     O_3   0.968455 0.250661 0.402383 -0.622239
H66   H     H_    0.929572 0.305080 0.412681 0.329393
O39   O     O_3   0.472050 0.252990 0.905980 -0.615565
H67   H     H_    0.432155 0.204080 0.915005 0.333488
O40   O     O_3   0.531542 0.750671 0.097618 -0.622239
H68   H     H_    0.570425 0.805096 0.087321 0.329392
O41   O     O_3   0.097731 0.131320 0.563297 -0.600634
H69   H     H_    0.086002 0.147170 0.607318 0.297630
O42   O     O_3   0.898590 0.872162 0.432963 -0.605694
H70   H     H_    0.910377 0.855705 0.388988 0.295544
O43   O     O_3   0.402269 0.631304 0.936703 -0.600635
H71   H     H_    0.413999 0.647154 0.892683 0.297631
O44   O     O_3   0.601412 0.372178 0.067039 -0.605694
H72   H     H_    0.589624 0.355727 0.111014 0.295543
O45   O     O_3   0.019336 0.644959 0.450396 -0.569077
H73   H     H_    0.013654 0.657361 0.404012 0.304747
O46   O     O_3   0.977008 0.358313 0.545922 -0.568977
H74   H     H_    0.982414 0.345670 0.592321 0.308181
O47   O     O_3   0.480667 0.144961 0.049604 -0.569077
H75   H     H_    0.486357 0.157362 0.095988 0.304748
O48   O     O_3   0.522990 0.858311 0.954079 -0.568978
H76   H     H_    0.517586 0.845663 0.907680 0.308180

loop_
_geom_bond_atom_site_label_1
_geom_bond_atom_site_label_2
_ccdc_geom_bond_type
C34   C38   A    
C59   C63   S    
O35   C83   S    
O1    C5    A    
C66   H3    S    
O19   V1    S    
O13   V1    S    
O41   H69   S    
O3    C7    A    
O23   C71   S    
C56   C60   S    
O15   V3    S    
C69   H11   S    
C80   H44   S    
C65   H1    S    
C74   H22   S    
C82   H49   S    
C27   C31   A    
O47   H75   S    
C83   H51   S    
O7    C3    A    
O37   H65   S    
C21   C33   A    
C68   H8    S    
O9    V1    S    
C81   H46   S    
C14   C18   A    
C24   C28   A    
C86   H59   S    
O31   H35   S    
C11   C15   A    
O4    C8    A    
C25   C29   A    
C20   O28   S    
C74   H23   S    
C72   H17   S    
C67   H7    S    
O1    V3    S    
O2    V4    S    
C18   C22   A    
O3    V1    S    
C73   H19   S    
C69   H10   S    
C12   C16   A    
O36   C86   S    
C28   C32   A    
C39   O35   S    
C34   O30   S    
C1    O15   A    
O32   H36   S    
C2    O16   A    
C46   O38   S    
C72   H18   S    
C77   C78   S    
C67   H6    S    
O2    C6    A    
C10   O22   S    
C70   H12   S    
C47   O39   S    
O14   V2    S    
C36   O32   S    
C21   C25   A    
C78   H40   S    
C19   C23   A    
C52   C64   T    
O5    V1    S    
C43   O43   S    
C83   C84   S    
C44   C48   S    
C76   H28   S    
C40   O36   S    
O11   C7    A    
C55   O48   S    
O40   H68   S    
O12   C8    A    
C4    C49   S    
C22   C34   A    
C46   C53   S    
C9    C29   A    
C70   H13   S    
C45   C54   S    
O39   H67   S    
O10   V2    S    
O20   V4    S    
C71   H16   S    
C71   H15   S    
C80   H45   S    
C83   H52   S    
C57   C61   S    
C24   C36   A    
C82   H50   S    
C47   C59   S    
C79   H43   S    
O17   V1    S    
C42   C54   S    
O45   H73   S    
O7    V3    S    
C11   C31   A    
O44   H72   S    
O8    V4    S    
C85   H55   S    
O26   H30   S    
C47   C56   S    
C84   H54   S    
C86   C87   S    
C82   H48   S    
C84   C85   S    
C74   C75   S    
C23   C27   A    
O38   H66   S    
C75   C76   S    
C58   C62   S    
O19   V3    S    
C9    C13   A    
C27   C28   A    
C18   O26   S    
C73   H21   S    
C79   H41   S    
C88   H64   S    
C12   O24   S    
O48   H76   S    
C86   H58   S    
O5    C1    A    
C12   C32   A    
C77   H38   S    
C9    O21   S    
C41   C53   S    
C2    C51   S    
C54   C58   S    
C65   H2    S    
C84   H53   S    
C53   C57   S    
O8    C4    A    
C72   C73   S    
C31   C40   A    
C44   O44   S    
C45   O37   S    
C8    C13   S    
C32   C39   A    
C43   C55   S    
C26   C30   A    
C50   C62   T    
C78   C79   S    
C33   C37   A    
C54   O45   S    
C49   C61   T    
C48   C60   S    
C87   H60   S    
C17   O25   S    
C35   O31   S    
C51   C63   T    
C1    C52   S    
C10   C30   A    
C66   C67   S    
O25   H29   S    
C70   H14   S    
C38   O34   S    
O12   V4    S    
C42   O42   S    
C87   H61   S    
C44   C56   S    
C80   C81   S    
C11   O23   S    
C67   H5    S    
C65   C66   S    
C76   H26   S    
O16   V4    S    
O43   H71   S    
C3    O13   A    
C75   H25   S    
O6    V2    S    
C10   C14   A    
C44   C59   S    
O17   V3    S    
C81   C82   S    
C60   C64   S    
C3    C50   S    
O6    C2    A    
C85   H56   S    
O28   H32   S    
O11   V3    S    
C56   O47   S    
O18   V4    S    
C30   C37   A    
C48   C55   S    
C7    C14   S    
O27   H31   S    
C22   C26   A    
C35   C39   A    
C68   H9    S    
C33   O29   S    
C36   C40   A    
O34   C80   S    
O10   C6    A    
C87   C88   S    
C81   H47   S    
O21   C65   S    
O20   V2    S    
O29   H33   S    
O9    C5    A    
C42   C57   S    
C55   C59   S    
C41   C58   S    
C42   C46   S    
C5    C16   S    
C43   C60   S    
C75   H24   S    
C41   C45   S    
C6    C15   S    
C79   H42   S    
O22   C68   S    
C19   O27   S    
C43   C47   S    
C69   C70   S    
C13   C17   A    
C88   H62   S    
C46   C58   S    
C73   H20   S    
C85   H57   S    
C45   C57   S    
C53   O46   S    
C23   C35   A    
O46   H74   S    
C20   C24   A    
C76   H27   S    
C16   C20   A    
C41   O41   S    
C15   C19   A    
C29   C38   A    
C66   H4    S    
C25   C26   A    
C4    O14   A    
O24   C74   S    
C17   C21   A    
C77   H37   S    
C68   C69   S    
O42   H70   S    
C88   H63   S    
C78   H39   S    
O33   C77   S    
C37   O33   S    
C71   C72   S    
O4    V2    S    
O30   H34   S    
C48   O40   S    
O18   V2    S    
