data_mof_unit_21031.cif
_audit_creation_date              2012-12-11T14:56:47-0500
_audit_creation_method            fapswitch 2.2
_symmetry_space_group_name_H-M    P1
_symmetry_Int_Tables_number       1
_space_group_crystal_system       triclinic
_cell_length_a                    10.560757
_cell_length_b                    10.673875
_cell_length_c                    17.162991
_cell_angle_alpha                 80.379162
_cell_angle_beta                  89.591699
_cell_angle_gamma                 119.159883
_cell_volume                      1656.8921743

loop_
_atom_site_label
_atom_site_type_symbol
_atom_type_description
_atom_site_fract_x
_atom_site_fract_y
_atom_site_fract_z
_atom_type_partial_charge
C1    C     C_R   0.222795 0.854481 0.128787 0.572642
C2    C     C_1   0.653922 0.348891 0.707950 -0.053807
C3    C     C_R   0.622917 0.713056 0.804457 -0.136185
C4    C     C_R   0.637709 0.284197 0.084641 0.548295
C5    C     C_R   0.610870 0.697572 0.726478 -0.128648
C6    C     C_R   0.670078 0.821787 0.665496 0.039322
C7    C     C_R   0.748216 0.961840 0.682867 -0.135475
C8    C     C_R   0.757053 0.977669 0.761524 -0.130909
C9    C     C_R   0.688832 0.852953 0.822406 0.030379
C10   C     C_R   0.231000 0.970061 0.756945 0.095200
C11   C     C_R   0.237112 0.960992 0.677629 0.062036
C12   C     C_R   0.801124 0.399185 0.262725 0.029901
C13   C     C_R   0.175952 0.822443 0.657254 0.034065
C14   C     C_R   0.146951 0.698367 0.715385 0.068608
C15   C     C_R   0.157143 0.710324 0.795562 0.051075
C16   C     C_R   0.640135 0.858408 0.125473 0.548846
C17   C     C_R   0.194486 0.845103 0.816713 0.053173
C18   C     C_R   0.686911 0.809703 0.357071 0.547790
C19   C     C_R   0.691972 0.398388 0.393167 0.534968
C20   C     C_R   0.103950 0.810371 0.359167 0.545392
C21   C     C_R   0.677885 0.799640 0.585707 0.541506
C22   C     C_R   0.679667 0.383963 0.624843 0.563844
C23   C     C_R   0.796039 0.415839 0.180761 0.074974
C24   C     C_R   0.104351 0.803536 0.584322 0.561592
C25   C     C_R   0.226875 0.865866 0.897655 0.590078
C26   C     C_R   0.638018 0.285664 0.861133 0.539375
C27   C     C_R   0.646978 0.867073 0.899215 0.542617
C28   C     C_R   0.536997 0.337949 0.198602 0.071942
C29   C     C_R   0.548892 0.347519 0.278514 -0.134080
C30   C     C_R   0.676559 0.369899 0.312217 -0.060249
C31   C     C_2   0.932313 0.399689 0.294850 0.282187
C32   C     C_R   0.658975 0.359837 0.151262 0.023762
C33   C     C_1   0.668700 0.848426 0.205445 -0.024333
C34   C     C_1   0.680685 0.839034 0.274715 -0.029909
C35   C     C_1   0.181021 0.826422 0.211251 0.038481
C36   C     C_1   0.151679 0.820261 0.279777 0.005799
C37   C     C_1   0.646525 0.326780 0.778451 -0.062314
Cr1   Cr    Cr6+3 0.402240 0.783890 0.019450 1.055713
Cr2   Cr    Cr6+3 0.382360 0.097900 0.991800 1.050205
Cr3   Cr    Cr6+3 0.715380 0.118170 0.988700 1.016533
Cr4   Cr    Cr6+3 0.936650 0.882420 0.465510 1.015835
Cr5   Cr    Cr6+3 0.605770 0.565620 0.493360 1.033948
Cr6   Cr    Cr6+3 0.921340 0.550490 0.496380 1.049589
H1    H     H_    0.456971 0.333333 0.315043 0.143110
H2    H     H_    0.180533 0.527672 0.710676 0.223263
H3    H     H_    0.002131 0.482475 0.721840 0.240402
H4    H     H_    0.194800 0.546222 0.844817 0.235383
H5    H     H_    0.016958 0.503374 0.854151 0.241764
H6    H     H_    0.919109 0.316855 0.345476 0.114586
H7    H     H_    0.956778 0.397972 0.125724 0.268393
H8    H     H_    0.915676 0.520935 0.071939 0.233275
H9    H     H_    0.361721 0.189124 0.749367 0.254947
H10   H     H_    0.181447 0.131983 0.753040 0.226696
H11   H     H_    0.571154 0.615748 0.850840 0.129362
H12   H     H_    0.557582 0.588025 0.713940 0.136181
H13   H     H_    0.800101 0.057983 0.635814 0.126811
H14   H     H_    0.807842 0.086873 0.774416 0.139381
H15   H     H_    0.321162 0.283353 0.209981 0.233697
H16   H     H_    0.418465 0.395714 0.125017 0.237310
H17   H     H_    0.221710 0.124064 0.605211 0.253381
H18   H     H_    0.341732 0.079860 0.567216 0.243471
N1    N     N_3   0.401276 0.303238 0.165977 -0.576271
N2    N     N_3   0.300896 0.094186 0.618690 -0.628982
N3    N     N_3   0.105014 0.560581 0.692967 -0.589619
N4    N     N_3   0.124136 0.585076 0.856067 -0.611894
N5    N     N_3   0.928903 0.478623 0.128862 -0.557044
N6    N     N_3   0.259390 0.106780 0.776295 -0.572295
O1    O     O_R   0.521780 0.757110 0.108900 -0.507714
O2    O     O_R   0.805020 0.410040 0.421340 -0.535418
O3    O     O_R   0.049240 0.685450 0.403290 -0.482011
O4    O     O_R   0.275160 0.783810 0.101120 -0.467984
O5    O     O_R   0.077520 0.903010 0.551800 -0.534055
O6    O     O_R   0.802980 0.872780 0.546830 -0.503100
O7    O     O_R   0.578090 0.681300 0.569920 -0.519001
O8    O     O_R   0.608530 0.436370 0.586530 -0.493876
O9    O     O_R   0.798770 0.401880 0.597100 -0.511301
O10   O     O_R   0.043450 0.677890 0.566230 -0.461235
O11   O     O_3   0.821250 0.666180 0.485090 -0.262073
O12   O     O_R   0.513330 0.228330 0.898660 -0.493596
O13   O     O_R   0.237900 0.972600 0.090980 -0.510032
O14   O     O_R   0.511190 0.220540 0.061620 -0.466942
O15   O     O_R   0.736920 0.257720 0.063840 -0.533154
O16   O     O_R   0.710450 0.984050 0.081720 -0.496475
O17   O     O_R   0.524090 0.765520 0.933110 -0.518871
O18   O     O_R   0.277300 0.791600 0.938160 -0.471992
O19   O     O_R   0.240210 0.981010 0.915190 -0.486784
O20   O     O_2   0.055459 0.490288 0.264890 -0.493097
O21   O     O_R   0.739230 0.266130 0.888050 -0.529994
O22   O     O_R   0.712580 0.991850 0.918770 -0.505141
O23   O     O_3   0.499990 0.999980 0.999980 -0.268030
O24   O     O_R   0.083770 0.911170 0.376030 -0.518360
O25   O     O_R   0.808770 0.880340 0.383890 -0.501761
O26   O     O_R   0.584340 0.689460 0.394160 -0.501557
O27   O     O_R   0.614320 0.443940 0.423590 -0.495522

loop_
_geom_bond_atom_site_label_1
_geom_bond_atom_site_label_2
_ccdc_geom_bond_type
H15   N1    S    
Cr5   O26   S    
C35   C36   T    
C22   O9    A    
C7    C8    A    
C10   N6    S    
Cr6   O11   S    
C12   C23   A    
C9    C27   S    
Cr5   O8    S    
C1    O4    A    
H17   N2    S    
C7    H13   S    
C23   N5    S    
C28   C29   A    
C11   N2    S    
C5    C6    A    
C16   C33   S    
C3    H11   S    
C10   C17   A    
C15   N4    S    
C21   O6    A    
H18   N2    S    
C4    O14   A    
C8    C9    A    
C2    C22   S    
C16   O1    A    
Cr3   O22   S    
Cr2   O23   S    
C12   C30   A    
Cr6   O2    S    
C13   C14   A    
Cr3   O16   S    
C20   O3    A    
C22   O8    A    
C31   H6    S    
C20   O24   A    
Cr5   O7    S    
C31   O20   D    
Cr1   O18   S    
Cr3   O15   S    
C28   C32   A    
Cr2   O14   S    
Cr4   O11   S    
C1    C35   S    
C6    C21   S    
C21   O7    A    
C16   O16   A    
C13   C24   S    
H3    N3    S    
H8    N5    S    
Cr2   O12   S    
C29   C30   A    
C3    C9    A    
C8    H14   S    
C18   C34   S    
C14   N3    S    
C25   O18   A    
C33   C34   T    
H7    N5    S    
C4    C32   S    
C19   O27   A    
Cr4   O5    S    
Cr4   O24   S    
Cr1   O1    S    
Cr5   O11   S    
Cr6   O3    S    
C29   H1    S    
H5    N4    S    
C19   O2    A    
C24   O5    A    
Cr6   O9    S    
C15   C17   A    
Cr1   O4    S    
C27   O17   A    
H16   N1    S    
Cr1   O17   S    
Cr5   O27   S    
C5    H12   S    
H9    N6    S    
C3    C5    A    
C26   C37   S    
C6    C7    A    
Cr6   O10   S    
Cr1   O23   S    
H2    N3    S    
C26   O12   A    
C17   C25   S    
C23   C32   A    
Cr3   O21   S    
C18   O25   A    
C12   C31   S    
Cr2   O13   S    
C11   C13   A    
C2    C37   T    
C25   O19   A    
C27   O22   A    
H10   N6    S    
C10   C11   A    
Cr4   O6    S    
C20   C36   S    
C24   O10   A    
Cr4   O25   S    
C4    O15   A    
C26   O21   A    
C18   O26   A    
C14   C15   A    
C1    O13   A    
Cr2   O19   S    
Cr3   O23   S    
C19   C30   S    
H4    N4    S    
C28   N1    S    
