data_mof_unit_5020.cif
_audit_creation_date              2012-12-11T14:01:09-0500
_audit_creation_method            fapswitch 2.2
_symmetry_space_group_name_H-M    P1
_symmetry_Int_Tables_number       1
_space_group_crystal_system       triclinic
_cell_length_a                    19.046054
_cell_length_b                    10.945585
_cell_length_c                    18.739324
_cell_angle_alpha                 89.950612
_cell_angle_beta                  90.17661
_cell_angle_gamma                 90.142191
_cell_volume                      3906.55866324

loop_
_atom_site_label
_atom_site_type_symbol
_atom_type_description
_atom_site_fract_x
_atom_site_fract_y
_atom_site_fract_z
_atom_type_partial_charge
C1    C     C_R   0.272082 0.044422 0.852874 0.550234
C2    C     C_R   0.727915 0.044408 0.147123 0.552443
C3    C     C_R   0.772081 0.544425 0.852873 0.547897
C4    C     C_R   0.227916 0.544409 0.147124 0.551522
C5    C     C_R   0.485610 0.055637 0.072800 -0.088057
C6    C     C_R   0.514538 0.055906 0.927051 -0.088115
C7    C     C_R   0.985620 0.555643 0.072795 -0.087996
C8    C     C_R   0.014543 0.555905 0.927045 -0.088078
C9    C     C_R   0.991263 0.666667 0.036230 0.019742
C10   C     C_R   0.008856 0.666806 0.963555 0.020388
C11   C     C_R   0.491254 0.166667 0.036237 0.019834
C12   C     C_R   0.508851 0.166805 0.963563 0.020393
C13   C     C_2   0.251063 0.580222 0.921112 -0.040890
C14   C     C_2   0.748839 0.580259 0.078911 -0.040885
C15   C     C_2   0.751062 0.080217 0.921110 -0.041012
C16   C     C_2   0.248844 0.080239 0.078919 -0.040527
C17   C     C_2   0.253765 0.600660 0.081262 0.049302
C18   C     C_2   0.746280 0.600583 0.918673 0.049703
C19   C     C_2   0.753762 0.100657 0.081259 0.049215
C20   C     C_2   0.246286 0.100570 0.918681 0.049140
C21   C     C_2   0.297974 0.535818 0.039909 -0.141982
C22   C     C_2   0.701979 0.535556 0.960102 -0.141688
C23   C     C_2   0.797972 0.035815 0.039907 -0.142031
C24   C     C_2   0.201987 0.035536 0.960109 -0.142062
C25   C     C_2   0.306972 0.561485 0.963791 -0.107374
C26   C     C_2   0.692944 0.561266 0.036198 -0.108490
C27   C     C_2   0.806970 0.061484 0.963790 -0.107383
C28   C     C_2   0.192950 0.061244 0.036205 -0.108105
C29   C     C_2   0.518308 0.838119 0.587815 -0.110433
C30   C     C_2   0.546040 0.829281 0.434597 -0.107837
C31   C     C_2   0.018458 0.338217 0.587860 -0.108250
C32   C     C_2   0.046123 0.329160 0.434615 -0.106826
C33   C     C_2   0.568064 0.743462 0.480346 -0.159606
C34   C     C_2   0.543919 0.739605 0.554419 -0.147796
C35   C     C_2   0.068989 0.244247 0.480546 -0.164119
C36   C     C_2   0.044434 0.239909 0.554525 -0.152907
C37   C     C_2   0.245964 0.565638 0.583297 -0.104372
C38   C     C_2   0.745009 0.613111 0.431027 -0.105820
C39   C     C_2   0.745877 0.064929 0.583513 -0.103987
C40   C     C_2   0.253517 0.065555 0.416887 -0.106410
C41   C     C_2   0.238146 0.569630 0.427958 -0.089179
C42   C     C_2   0.742798 0.605604 0.586497 -0.103739
C43   C     C_2   0.738004 0.068867 0.428152 -0.100400
C44   C     C_2   0.261923 0.069993 0.572135 -0.088522
C45   C     C_R   0.471948 0.822297 0.852965 0.538193
C46   C     C_R   0.528079 0.822193 0.147012 0.549639
C47   C     C_R   0.971948 0.322297 0.852965 0.537699
C48   C     C_R   0.028081 0.322194 0.147010 0.549915
C49   C     C_2   0.182191 0.563006 0.471571 -0.152470
C50   C     C_2   0.782002 0.683574 0.549577 -0.159791
C51   C     C_2   0.682075 0.061759 0.471769 -0.155058
C52   C     C_2   0.317488 0.059564 0.528288 -0.147104
C53   C     C_2   0.186804 0.585988 0.547353 -0.162284
C54   C     C_2   0.769745 0.702178 0.474101 -0.152765
C55   C     C_2   0.686653 0.084800 0.547583 -0.159945
C56   C     C_2   0.312954 0.084463 0.452667 -0.159341
C57   C     C_R   0.261192 0.635981 0.851444 0.555300
C58   C     C_R   0.738769 0.635938 0.148549 0.561532
C59   C     C_R   0.761191 0.135978 0.851443 0.555168
C60   C     C_R   0.238770 0.135933 0.148551 0.559017
C61   C     C_R   0.273755 0.042893 0.646401 0.548652
C62   C     C_R   0.726065 0.042247 0.353809 0.541465
C63   C     C_R   0.770888 0.548826 0.649885 0.554336
C64   C     C_R   0.226139 0.542490 0.353706 0.543462
C65   C     C_R   0.472981 0.824376 0.649644 0.547447
C66   C     C_R   0.563162 0.819624 0.359728 0.559723
C67   C     C_R   0.973004 0.324377 0.649639 0.552449
C68   C     C_R   0.063237 0.319601 0.359724 0.561871
C69   C     C_R   0.259852 0.633870 0.647588 0.553683
C70   C     C_R   0.738287 0.641976 0.356204 0.542891
C71   C     C_R   0.759823 0.133719 0.647640 0.554312
C72   C     C_R   0.239997 0.133943 0.352557 0.544725
C73   C     C_R   0.499800 0.830337 0.074552 0.013257
C74   C     C_R   0.500342 0.830506 0.925373 0.014667
C75   C     C_R   0.999805 0.330340 0.074549 0.013383
C76   C     C_R   0.000345 0.330506 0.925371 0.014989
C77   C     C_R   0.496316 0.943299 0.037441 0.014397
C78   C     C_R   0.503845 0.943410 0.962453 0.015503
C79   C     C_R   0.996324 0.443302 0.037438 0.014259
C80   C     C_R   0.003851 0.443410 0.962449 0.015621
C81   C     C_R   0.501340 0.720633 0.963540 -0.139367
C82   C     C_R   0.498868 0.720540 0.036401 -0.139830
C83   C     C_R   0.001343 0.220634 0.963538 -0.139279
C84   C     C_R   0.998872 0.220542 0.036399 -0.139805
Cr1   Cr    Cr6+3 0.230530 0.836340 0.748870 1.045577
Cr2   Cr    Cr6+3 0.769470 0.836340 0.251130 1.045190
Cr3   Cr    Cr6+3 0.730530 0.336340 0.748870 1.044550
Cr4   Cr    Cr6+3 0.269470 0.336340 0.251130 1.046531
Cr5   Cr    Cr6+3 0.387420 0.989430 0.750820 1.047744
Cr6   Cr    Cr6+3 0.612580 0.989430 0.249180 1.047366
Cr7   Cr    Cr6+3 0.887420 0.489430 0.750820 1.050210
Cr8   Cr    Cr6+3 0.112580 0.489430 0.249180 1.050677
Cr9   Cr    Cr6+3 0.385640 0.677860 0.749230 1.048138
Cr10  Cr    Cr6+3 0.614360 0.677860 0.250770 1.046482
Cr11  Cr    Cr6+3 0.885640 0.177860 0.749230 1.046658
Cr12  Cr    Cr6+3 0.114360 0.177860 0.250770 1.045736
H1    H     H_    0.500015 0.632613 0.937129 0.162493
H2    H     H_    0.500208 0.632467 0.062825 0.162626
H3    H     H_    0.000017 0.132613 0.937129 0.162522
H4    H     H_    0.000212 0.132469 0.062823 0.162641
H5    H     H_    0.129602 0.548512 0.450554 0.149374
H6    H     H_    0.828505 0.725761 0.572674 0.155030
H7    H     H_    0.629521 0.047249 0.450688 0.149105
H8    H     H_    0.369706 0.040359 0.549045 0.153533
H9    H     H_    0.142420 0.631733 0.571870 0.154658
H10   H     H_    0.787288 0.789295 0.452554 0.159056
H11   H     H_    0.642254 0.130539 0.572073 0.153456
H12   H     H_    0.357635 0.129818 0.428176 0.158305
H13   H     H_    0.291312 0.584097 0.447210 0.100411
H14   H     H_    0.694096 0.569474 0.564538 0.101431
H15   H     H_    0.791157 0.083303 0.447449 0.098319
H16   H     H_    0.209125 0.088695 0.553145 0.085401
H17   H     H_    0.288552 0.513041 0.560234 0.111269
H18   H     H_    0.726836 0.525376 0.450812 0.096246
H19   H     H_    0.788465 0.012229 0.560511 0.102147
H20   H     H_    0.210600 0.013447 0.440073 0.104597
H21   H     H_    0.471150 0.057731 0.128619 0.133391
H22   H     H_    0.528999 0.058224 0.871229 0.130260
H23   H     H_    0.971162 0.557741 0.128614 0.134259
H24   H     H_    0.029001 0.558221 0.871223 0.129982
H25   H     H_    0.323012 0.453558 0.059971 0.172032
H26   H     H_    0.676874 0.453146 0.940120 0.171818
H27   H     H_    0.823010 0.953556 0.059969 0.171979
H28   H     H_    0.176881 0.953129 0.940124 0.171736
H29   H     H_    0.360263 0.567272 0.943569 0.149792
H30   H     H_    0.639650 0.566789 0.056387 0.149166
H31   H     H_    0.860262 0.067277 0.943569 0.149813
H32   H     H_    0.139655 0.066772 0.056391 0.149294
H33   H     H_    0.198009 0.572884 0.941980 0.127229
H34   H     H_    0.801896 0.573160 0.058082 0.128007
H35   H     H_    0.698007 0.072874 0.941977 0.127232
H36   H     H_    0.301902 0.073137 0.058093 0.127894
H37   H     H_    0.598007 0.665994 0.460972 0.140780
H38   H     H_    0.541020 0.649937 0.579157 0.154103
H39   H     H_    0.100008 0.167853 0.461377 0.134603
H40   H     H_    0.041644 0.150200 0.579223 0.155033
H41   H     H_    0.514306 0.906198 0.451330 0.099252
H42   H     H_    0.525058 0.929349 0.566137 0.091694
H43   H     H_    0.013501 0.405031 0.451216 0.106701
H44   H     H_    0.025165 0.429461 0.566172 0.097820
O1    O     O_R   0.215090 0.709860 0.828130 -0.506448
O2    O     O_R   0.784910 0.709860 0.171870 -0.501171
O3    O     O_R   0.715090 0.209860 0.828130 -0.506219
O4    O     O_R   0.284910 0.209860 0.171870 -0.503457
O5    O     O_R   0.445660 0.919250 0.676780 -0.510809
O6    O     O_R   0.554340 0.919250 0.323220 -0.507814
O7    O     O_R   0.945660 0.419250 0.676780 -0.501942
O8    O     O_R   0.054340 0.419250 0.323220 -0.505429
O9    O     O_R   0.456260 0.718170 0.670000 -0.508888
O10   O     O_R   0.543740 0.718170 0.330000 -0.495478
O11   O     O_R   0.956260 0.218170 0.670000 -0.510610
O12   O     O_R   0.043740 0.218170 0.330000 -0.494941
O13   O     O_R   0.320940 0.626760 0.674370 -0.497135
O14   O     O_R   0.679060 0.626760 0.325630 -0.515974
O15   O     O_R   0.820940 0.126760 0.674370 -0.498289
O16   O     O_R   0.179060 0.126760 0.325630 -0.520820
O17   O     O_3   0.334530 0.834540 0.749640 -0.254241
O18   O     O_3   0.665470 0.834540 0.250360 -0.280227
O19   O     O_3   0.834530 0.334540 0.749640 -0.252413
O20   O     O_3   0.165470 0.334540 0.250360 -0.279014
O21   O     O_R   0.236990 0.958390 0.823710 -0.506312
O22   O     O_R   0.763010 0.958390 0.176290 -0.502643
O23   O     O_R   0.736990 0.458390 0.823710 -0.507581
O24   O     O_R   0.263010 0.458390 0.176290 -0.503546
O25   O     O_R   0.332380 0.074750 0.830850 -0.456974
O26   O     O_R   0.667620 0.074750 0.169150 -0.455624
O27   O     O_R   0.832380 0.574750 0.830850 -0.459242
O28   O     O_R   0.167620 0.574750 0.169150 -0.456021
O29   O     O_R   0.445800 0.917770 0.825070 -0.504506
O30   O     O_R   0.554200 0.917770 0.174930 -0.499162
O31   O     O_R   0.945800 0.417770 0.825070 -0.505440
O32   O     O_R   0.054200 0.417770 0.174930 -0.499123
O33   O     O_R   0.456410 0.716580 0.829970 -0.515389
O34   O     O_R   0.543590 0.716580 0.170030 -0.509932
O35   O     O_R   0.956410 0.216580 0.829970 -0.515736
O36   O     O_R   0.043590 0.216580 0.170030 -0.509895
O37   O     O_R   0.321080 0.625290 0.822650 -0.495231
O38   O     O_R   0.678920 0.625290 0.177350 -0.492633
O39   O     O_R   0.821080 0.125290 0.822650 -0.495797
O40   O     O_R   0.178920 0.125290 0.177350 -0.493900
O41   O     O_R   0.214930 0.711450 0.668160 -0.514666
O42   O     O_R   0.785070 0.711450 0.331840 -0.508815
O43   O     O_R   0.714930 0.211450 0.668160 -0.514562
O44   O     O_R   0.285070 0.211450 0.331840 -0.510210
O45   O     O_R   0.236850 0.959870 0.675420 -0.495787
O46   O     O_R   0.763150 0.959870 0.324580 -0.503824
O47   O     O_R   0.736850 0.459870 0.675420 -0.500272
O48   O     O_R   0.263150 0.459870 0.324580 -0.495043
O49   O     O_R   0.332230 0.076350 0.670880 -0.515039
O50   O     O_R   0.667770 0.076350 0.329120 -0.517845
O51   O     O_R   0.832230 0.576350 0.670880 -0.513238
O52   O     O_R   0.167770 0.576350 0.329120 -0.520116
C85   C     C_1   0.979842 0.779341 0.074548 0.207627
N1    N     N_1   0.970681 0.869625 0.105194 -0.320310
C86   C     C_1   0.020224 0.779655 0.925177 0.206054
N2    N     N_1   0.029340 0.870072 0.894480 -0.324739
C87   C     C_1   0.479832 0.279334 0.074557 0.207231
N3    N     N_1   0.470670 0.369616 0.105205 -0.320907
C88   C     C_1   0.520226 0.279656 0.925188 0.206404
N4    N     N_1   0.529348 0.370074 0.894494 -0.324385
C89   C     C_2   0.224704 0.720868 0.058278 0.553044
O53   O     O_2   0.261552 0.792683 0.025130 -0.543388
O54   O     O_R   0.155358 0.751466 0.074537 -0.678096
H45   H     H_    0.140442 0.832462 0.053452 0.327685
C90   C     C_2   0.775443 0.720994 0.941487 0.551543
O55   O     O_2   0.738700 0.792521 0.974662 -0.544894
O56   O     O_R   0.844748 0.752157 0.925003 -0.678607
H46   H     H_    0.859726 0.833284 0.945967 0.327751
C91   C     C_2   0.724701 0.220863 0.058274 0.553297
O57   O     O_2   0.761550 0.292681 0.025129 -0.543105
O58   O     O_R   0.655352 0.251457 0.074528 -0.678050
H47   H     H_    0.640439 0.332456 0.053445 0.327704
C92   C     C_2   0.275451 0.220976 0.941502 0.551890
O59   O     O_2   0.238709 0.292500 0.974679 -0.544686
O60   O     O_R   0.344758 0.252138 0.925022 -0.678234
H48   H     H_    0.359736 0.333260 0.945991 0.327796

loop_
_geom_bond_atom_site_label_1
_geom_bond_atom_site_label_2
_ccdc_geom_bond_type
C16   C28   D    
Cr3   O23   S    
O54   H45   S    
C38   C70   S    
C72   O16   A    
C37   C69   S    
Cr8   O8    S    
Cr1   O21   S    
C89   O53   D    
Cr9   O9    S    
C35   C36   S    
C53   H9    S    
C2    O22   A    
Cr7   O7    S    
C81   C82   A    
C3    O27   A    
C62   O50   A    
Cr12  O16   S    
C92   O59   D    
Cr5   O5    S    
C29   H42   S    
Cr2   O2    S    
Cr1   O1    S    
C50   C54   S    
C75   C79   A    
Cr1   O17   S    
C18   C90   S    
Cr11  O19   S    
Cr5   O49   S    
Cr7   O27   S    
C47   C76   S    
C66   O10   A    
C16   C60   S    
C38   H18   S    
C9    C85   S    
C75   C84   A    
Cr4   O44   S    
C37   H17   S    
C34   H38   S    
C51   H7    S    
Cr12  O12   S    
C24   H28   S    
C3    C18   S    
C26   H30   S    
Cr9   O33   S    
C25   H29   S    
C56   H12   S    
Cr11  O35   S    
C48   O32   A    
Cr11  O11   S    
C27   H31   S    
C70   O42   A    
C39   C55   D    
O58   H47   S    
C4    O28   A    
C40   C56   D    
C4    O24   A    
Cr2   O22   S    
C23   C27   S    
C18   C22   D    
Cr12  O36   S    
C9    C10   A    
C2    O26   A    
Cr7   O19   S    
C68   O8    A    
C3    O23   A    
C32   C68   S    
C37   C53   D    
C44   C52   D    
C92   O60   S    
C59   O3    A    
C88   N4    T    
Cr10  O18   S    
C30   H41   S    
Cr10  O38   S    
Cr6   O26   S    
C61   O49   A    
C47   O31   A    
C89   O54   S    
C48   C75   S    
C13   C25   D    
C43   H15   S    
C36   H40   S    
C76   C83   A    
C41   C49   D    
C69   O41   A    
C64   O52   A    
C61   O45   A    
C22   H26   S    
C90   O56   S    
Cr1   O45   S    
C14   C58   S    
C54   H10   S    
C67   O11   A    
O56   H46   S    
C84   H4    S    
C32   C35   D    
C7    H23   S    
C79   C80   A    
C72   O44   A    
C32   H43   S    
C91   O57   D    
C21   C25   S    
C35   H39   S    
Cr9   O37   S    
Cr3   O47   S    
C41   H13   S    
C51   C55   S    
C77   C78   A    
Cr7   O51   S    
C29   C34   D    
C69   O13   A    
C46   O30   A    
C55   H11   S    
C45   C74   S    
Cr6   O18   S    
C19   C23   D    
O60   H48   S    
C11   C87   S    
C68   O12   A    
C45   O33   A    
Cr2   O46   S    
Cr8   O28   S    
C15   C27   D    
C83   C84   A    
C38   C54   D    
C1    O25   A    
Cr10  O14   S    
C71   O15   A    
Cr6   O30   S    
C46   O34   A    
C33   C34   S    
C15   H35   S    
C58   O38   A    
C64   O48   A    
C14   C26   D    
C17   C89   S    
Cr2   O18   S    
Cr5   O25   S    
C30   C66   S    
C22   C26   S    
C42   C50   D    
C29   C65   S    
C4    C17   S    
C44   H16   S    
Cr11  O39   S    
Cr12  O20   S    
Cr10  O34   S    
C50   H6    S    
C39   H19   S    
Cr7   O31   S    
C5    C11   A    
C67   O7    A    
C82   H2    S    
C76   C80   A    
C74   C81   A    
C5    C77   A    
C6    C12   A    
C73   C82   A    
C8    H24   S    
C7    C79   A    
Cr6   O50   S    
C7    C9    A    
C14   H34   S    
C90   O55   D    
C52   H8    S    
C1    C20   S    
Cr1   O41   S    
C58   O2    A    
C40   C72   S    
C30   C33   D    
C19   C91   S    
C2    C19   S    
C70   O14   A    
C15   C59   S    
C33   H37   S    
C24   C28   S    
Cr2   O42   S    
C45   O29   A    
C23   H27   S    
C11   C12   A    
Cr5   O17   S    
C13   H33   S    
C57   O1    A    
C44   C61   S    
C60   O40   A    
C63   O47   A    
C62   O46   A    
Cr8   O20   S    
Cr3   O3    S    
C20   C92   S    
Cr12  O40   S    
C59   O39   A    
C42   H14   S    
Cr5   O29   S    
Cr6   O6    S    
Cr4   O24   S    
C10   C86   S    
C60   O4    A    
C20   C24   D    
C57   O37   A    
Cr9   O17   S    
C43   C51   D    
C40   H20   S    
C81   H1    S    
Cr8   O32   S    
C63   O51   A    
C52   C56   S    
Cr9   O13   S    
C91   O58   S    
C12   C88   S    
Cr3   O19   S    
Cr11  O15   S    
Cr4   O20   S    
C21   H25   S    
C87   N3    T    
C16   H36   S    
C17   C21   D    
C66   O6    A    
C49   C53   S    
C6    C78   A    
C31   C67   S    
C1    O21   A    
C86   N2    T    
Cr8   O52   S    
Cr10  O10   S    
Cr4   O48   S    
C13   C57   S    
C43   C62   S    
C73   C77   A    
C8    C10   A    
C85   N1    T    
C74   C78   A    
C5    H21   S    
C8    C80   A    
C65   O9    A    
C39   C71   S    
C31   C36   D    
C83   H3    S    
C41   C64   S    
Cr3   O43   S    
C31   H44   S    
C65   O5    A    
C42   C63   S    
Cr4   O4    S    
C46   C73   S    
C47   O35   A    
C28   H32   S    
C49   H5    S    
C6    H22   S    
C48   O36   A    
C71   O43   A    
