data_mof_unit_66186.cif
_audit_creation_date              2013-03-05T16:02:37-0500
_audit_creation_method            fapswitch 2.2
_symmetry_space_group_name_H-M    P1
_symmetry_Int_Tables_number       1
_space_group_crystal_system       triclinic
_cell_length_a                    18.32236
_cell_length_b                    18.322388
_cell_length_c                    51.374182
_cell_angle_alpha                 90.000408
_cell_angle_beta                  89.993978
_cell_angle_gamma                 89.995615
_cell_volume                      17246.7951032

loop_
_atom_site_label
_atom_site_type_symbol
_atom_site_description
_atom_site_fract_x
_atom_site_fract_y
_atom_site_fract_z
_atom_type_partial_charge
Zn1   Zn    Zn3+2 0.913060 0.500000 0.727930 1.065752
Zn2   Zn    Zn3+2 0.086940 0.500000 0.272070 1.063611
Zn3   Zn    Zn3+2 0.500000 0.913060 0.727930 1.065766
Zn4   Zn    Zn3+2 0.500000 0.086940 0.272070 1.066880
Zn5   Zn    Zn3+2 0.086940 0.500000 0.727930 1.065771
Zn6   Zn    Zn3+2 0.913060 0.500000 0.272070 1.066894
Zn7   Zn    Zn3+2 0.500000 0.086940 0.727930 1.065755
Zn8   Zn    Zn3+2 0.500000 0.913060 0.272070 1.063625
Zn9   Zn    Zn3+2 0.413060 0.000000 0.227930 1.063465
Zn10  Zn    Zn3+2 0.586940 0.000000 0.772070 1.065767
Zn11  Zn    Zn3+2 0.000000 0.413060 0.227930 1.066774
Zn12  Zn    Zn3+2 0.000000 0.586940 0.772070 1.065780
Zn13  Zn    Zn3+2 0.586940 0.000000 0.227930 1.066685
Zn14  Zn    Zn3+2 0.413060 0.000000 0.772070 1.065758
Zn15  Zn    Zn3+2 1.000000 0.586940 0.227930 1.063327
Zn16  Zn    Zn3+2 0.000000 0.413060 0.772070 1.065739
O1    O     O_3   1.000000 0.500000 0.750000 -0.529941
O2    O     O_3   0.000000 0.500000 0.250000 -0.529542
O3    O     O_3   0.500000 1.000000 0.750000 -0.529943
O4    O     O_3   0.500000 0.000000 0.250000 -0.529549
O5    O     O_R   0.000000 0.439150 0.807730 -0.624230
O6    O     O_R   0.000000 0.560850 0.192270 -0.635260
O7    O     O_R   0.560850 0.000000 0.807730 -0.624150
O8    O     O_R   0.439150 0.000000 0.192270 -0.635418
O9    O     O_R   1.000000 0.560850 0.807730 -0.624148
O10   O     O_R   0.000000 0.439150 0.192270 -0.622792
O11   O     O_R   0.439150 0.000000 0.807730 -0.624212
O12   O     O_R   0.560850 0.000000 0.192270 -0.622593
O13   O     O_R   0.500000 0.939150 0.307730 -0.635235
O14   O     O_R   0.500000 0.060850 0.692270 -0.624187
O15   O     O_R   0.060850 0.500000 0.307730 -0.635193
O16   O     O_R   0.939150 0.500000 0.692270 -0.624177
O17   O     O_R   0.500000 0.060850 0.307730 -0.622570
O18   O     O_R   0.500000 0.939150 0.692270 -0.624167
O19   O     O_R   0.939150 0.500000 0.307730 -0.622607
O20   O     O_R   0.060850 0.500000 0.692270 -0.624179
O21   O     O_R   0.914360 0.646040 0.764890 -0.614229
O22   O     O_R   0.085640 0.353960 0.235110 -0.616665
O23   O     O_R   0.353960 0.914360 0.764890 -0.614289
O24   O     O_R   0.646040 0.085640 0.235110 -0.613540
O25   O     O_R   0.085640 0.353960 0.764890 -0.614224
O26   O     O_R   0.914360 0.646040 0.235110 -0.603391
O27   O     O_R   0.646040 0.085640 0.764890 -0.614273
O28   O     O_R   0.353960 0.914360 0.235110 -0.615715
O29   O     O_R   0.914360 0.353960 0.235110 -0.613488
O30   O     O_R   0.085640 0.646040 0.764890 -0.614218
O31   O     O_R   0.353960 0.085640 0.235110 -0.603344
O32   O     O_R   0.646040 0.914360 0.764890 -0.614154
O33   O     O_R   0.085640 0.646040 0.235110 -0.615686
O34   O     O_R   0.914360 0.353960 0.764890 -0.614232
O35   O     O_R   0.646040 0.914360 0.235110 -0.616599
O36   O     O_R   0.353960 0.085640 0.764890 -0.614180
O37   O     O_R   0.414360 0.146040 0.264890 -0.616695
O38   O     O_R   0.585640 0.853960 0.735110 -0.614267
O39   O     O_R   0.853960 0.414360 0.264890 -0.613506
O40   O     O_R   0.146040 0.585640 0.735110 -0.614238
O41   O     O_R   0.585640 0.853960 0.264890 -0.603437
O42   O     O_R   0.414360 0.146040 0.735110 -0.614254
O43   O     O_R   0.146040 0.585640 0.264890 -0.615496
O44   O     O_R   0.853960 0.414360 0.735110 -0.614228
O45   O     O_R   0.414360 0.853960 0.735110 -0.614187
O46   O     O_R   0.585640 0.146040 0.264890 -0.613464
O47   O     O_R   0.853960 0.585640 0.735110 -0.614209
O48   O     O_R   0.146040 0.414360 0.264890 -0.603395
O49   O     O_R   0.585640 0.146040 0.735110 -0.614197
O50   O     O_R   0.414360 0.853960 0.264890 -0.615452
O51   O     O_R   0.146040 0.414360 0.735110 -0.614228
O52   O     O_R   0.853960 0.585640 0.264890 -0.616647
C1    C     C_R   0.999993 0.499996 0.820256 0.866443
C2    C     C_R   0.999938 0.499999 0.179743 0.856739
C3    C     C_R   0.499995 0.000006 0.820256 0.866430
C4    C     C_R   0.500015 0.000064 0.179743 0.856705
C5    C     C_R   0.500061 0.000007 0.320258 0.856815
C6    C     C_R   0.500006 0.000001 0.679743 0.866423
C7    C     C_R   0.999990 0.499939 0.320258 0.856800
C8    C     C_R   0.000002 0.499993 0.679743 0.866426
C9    C     C_R   0.859736 0.640267 0.750000 0.944116
C10   C     C_R   0.140272 0.359742 0.249998 0.952182
C11   C     C_R   0.359732 0.859733 0.750000 0.944218
C12   C     C_R   0.640268 0.140267 0.250000 0.945160
C13   C     C_R   0.140267 0.359735 0.750000 0.944163
C14   C     C_R   0.859742 0.640273 0.250001 0.952372
C15   C     C_R   0.640265 0.140267 0.750000 0.944157
C16   C     C_R   0.359735 0.859734 0.250000 0.940390
C17   C     C_R   0.859731 0.359734 0.250000 0.945102
C18   C     C_R   0.140268 0.640266 0.750000 0.944209
C19   C     C_R   0.359728 0.140257 0.250002 0.952206
C20   C     C_R   0.640264 0.859733 0.750000 0.944110
C21   C     C_R   0.140265 0.640266 0.250000 0.940373
C22   C     C_R   0.859734 0.359733 0.750000 0.944156
C23   C     C_R   0.640258 0.859727 0.249998 0.952333
C24   C     C_R   0.359733 0.140265 0.750000 0.944158
C25   C     C_R   0.786079 0.267884 0.726603 0.213730
C26   C     C_R   0.269044 0.676995 0.244561 0.209169
C27   C     C_R   0.732145 0.786097 0.726605 0.213742
C28   C     C_R   0.267265 0.213306 0.273332 0.223271
C29   C     C_R   0.213933 0.732118 0.726603 0.213725
C30   C     C_R   0.786110 0.267840 0.273392 0.215043
C31   C     C_R   0.267865 0.213899 0.726605 0.213748
C32   C     C_R   0.732674 0.786642 0.273337 0.213604
C33   C     C_R   0.786675 0.732716 0.273333 0.223224
C34   C     C_R   0.213909 0.267860 0.726605 0.213750
C35   C     C_R   0.732156 0.213880 0.273392 0.215020
C36   C     C_R   0.267886 0.786077 0.726604 0.213739
C37   C     C_R   0.213338 0.267305 0.273336 0.213662
C38   C     C_R   0.786108 0.732141 0.726605 0.213756
C39   C     C_R   0.323007 0.730956 0.244562 0.209190
C40   C     C_R   0.732120 0.213930 0.726603 0.213738
C41   C     C_R   0.230956 0.823005 0.255439 0.209245
C42   C     C_R   0.713923 0.232114 0.773397 0.213794
C43   C     C_R   0.232737 0.286696 0.226669 0.223229
C44   C     C_R   0.767854 0.713902 0.773395 0.213668
C45   C     C_R   0.713893 0.232157 0.226607 0.215248
C46   C     C_R   0.286066 0.767884 0.773397 0.213783
C47   C     C_R   0.767327 0.713359 0.226662 0.213804
C48   C     C_R   0.232135 0.286102 0.773394 0.213674
C49   C     C_R   0.286092 0.232141 0.773395 0.213690
C50   C     C_R   0.713326 0.767284 0.226667 0.223430
C51   C     C_R   0.232113 0.713924 0.773397 0.213815
C52   C     C_R   0.767845 0.286118 0.226607 0.215259
C53   C     C_R   0.713891 0.767857 0.773394 0.213698
C54   C     C_R   0.286664 0.232696 0.226665 0.213638
C55   C     C_R   0.767881 0.286068 0.773398 0.213810
C56   C     C_R   0.176993 0.769044 0.255437 0.209224
C57   C     C_R   0.696275 0.196279 0.750000 -0.255010
C58   C     C_R   0.303724 0.803722 0.250001 -0.259508
C59   C     C_R   0.803727 0.696279 0.750000 -0.255034
C60   C     C_R   0.196293 0.303742 0.250002 -0.251691
C61   C     C_R   0.303720 0.803725 0.750001 -0.255024
C62   C     C_R   0.696280 0.196274 0.249999 -0.254563
C63   C     C_R   0.196279 0.303726 0.749999 -0.255052
C64   C     C_R   0.803742 0.696293 0.249998 -0.251592
C65   C     C_R   0.696258 0.803706 0.250001 -0.251595
C66   C     C_R   0.303721 0.196274 0.750000 -0.255069
C67   C     C_R   0.803720 0.303725 0.250000 -0.254671
C68   C     C_R   0.196280 0.696275 0.750000 -0.255045
C69   C     C_R   0.303707 0.196258 0.249999 -0.251723
C70   C     C_R   0.696273 0.803721 0.749999 -0.255051
C71   C     C_R   0.196276 0.696278 0.249999 -0.259521
C72   C     C_R   0.803725 0.303721 0.750001 -0.255028
C73   C     C_R   0.498235 0.065512 0.945103 0.506831
C74   C     C_R   0.501863 0.935450 0.054870 0.507935
C75   C     C_R   0.934506 0.499880 0.945112 0.506853
C76   C     C_R   0.064702 0.499800 0.054862 0.507671
C77   C     C_R   0.501582 0.935164 0.945147 0.506755
C78   C     C_R   0.498599 0.065813 0.054830 0.509477
C79   C     C_R   0.064897 0.499679 0.945139 0.506738
C80   C     C_R   0.934298 0.499905 0.054839 0.509516
C81   C     C_R   0.999485 0.564675 0.445124 0.505858
C82   C     C_R   0.000317 0.434503 0.554884 0.506926
C83   C     C_R   0.435323 0.999422 0.445126 0.505862
C84   C     C_R   0.565489 0.000767 0.554882 0.506925
C85   C     C_R   0.000127 0.434286 0.445154 0.507489
C86   C     C_R   0.999571 0.564891 0.554851 0.506828
C87   C     C_R   0.565705 0.000922 0.445151 0.507495
C88   C     C_R   0.435106 0.999371 0.554853 0.506832
N1    N     N_R   0.499906 0.000304 0.932061 -0.349108
N2    N     N_R   0.500240 0.000664 0.067911 -0.353848
N3    N     N_R   0.999727 0.499812 0.932061 -0.349108
N4    N     N_R   0.999478 0.499863 0.067911 -0.353962
N5    N     N_R   0.999805 0.499457 0.432074 -0.348660
N6    N     N_R   0.999963 0.499724 0.567932 -0.349091
N7    N     N_R   0.500538 0.000172 0.432074 -0.348656
N8    N     N_R   0.500271 0.000054 0.567932 -0.349092
C89   C     C_R   0.501652 0.933878 0.972508 -0.025845
C90   C     C_R   0.498387 0.067096 0.027468 -0.028662
C91   C     C_R   0.066206 0.499633 0.972500 -0.025815
C92   C     C_R   0.932988 0.499816 0.027477 -0.028818
C93   C     C_R   0.498218 0.066945 0.972465 -0.025979
C94   C     C_R   0.501784 0.934021 0.027510 -0.027229
C95   C     C_R   0.933094 0.499826 0.972473 -0.026013
C96   C     C_R   0.066108 0.499668 0.027501 -0.027041
C97   C     C_R   0.000180 0.432979 0.472517 -0.026274
C98   C     C_R   0.999527 0.566195 0.527489 -0.025727
C99   C     C_R   0.567013 0.000909 0.472515 -0.026280
C100  C     C_R   0.433802 0.999374 0.527491 -0.025726
C101  C     C_R   0.999474 0.566087 0.472486 -0.024667
C102  C     C_R   0.000280 0.433087 0.527522 -0.025896
C103  C     C_R   0.433911 0.999408 0.472488 -0.024645
C104  C     C_R   0.566904 0.000828 0.527520 -0.025894
C105  C     C_R   0.499954 0.000448 0.986221 -0.013342
C106  C     C_R   0.500022 0.000522 0.013755 -0.015939
C107  C     C_R   0.999624 0.499711 0.986221 -0.013338
C108  C     C_R   0.999573 0.499709 0.013755 -0.015966
C109  C     C_R   0.999844 0.499559 0.486236 -0.014427
C110  C     C_R   0.999883 0.499614 0.513771 -0.014398
C111  C     C_R   0.500435 0.000146 0.486236 -0.014428
C112  C     C_R   0.500381 0.000117 0.513770 -0.014397
C113  C     C_R   0.503393 0.867878 0.986435 -0.143676
C114  C     C_R   0.496638 0.133094 0.013540 -0.141562
C115  C     C_R   0.132239 0.499538 0.986418 -0.143765
C116  C     C_R   0.866957 0.499900 0.013558 -0.141402
C117  C     C_R   0.496544 0.133020 0.986349 -0.143346
C118  C     C_R   0.503458 0.867948 0.013625 -0.142663
C119  C     C_R   0.867009 0.499907 0.986366 -0.143281
C120  C     C_R   0.132191 0.499565 0.013609 -0.142791
C121  C     C_R   0.000568 0.366949 0.486440 -0.143403
C122  C     C_R   0.999138 0.632225 0.513567 -0.143606
C123  C     C_R   0.633039 0.001628 0.486435 -0.143399
C124  C     C_R   0.367775 0.998656 0.513571 -0.143606
C125  C     C_R   0.999118 0.632172 0.486375 -0.144668
C126  C     C_R   0.000624 0.367002 0.513632 -0.143204
C127  C     C_R   0.367829 0.998666 0.486379 -0.144681
C128  C     C_R   0.632986 0.001581 0.513627 -0.143204
O53   O     O_2   0.496602 0.128675 0.931616 -0.528381
O54   O     O_2   0.503620 0.872294 0.068359 -0.528925
O55   O     O_2   0.871315 0.500007 0.931632 -0.528365
O56   O     O_2   0.127891 0.499940 0.068342 -0.529198
O57   O     O_2   0.503191 0.871930 0.931701 -0.528526
O58   O     O_2   0.497232 0.129044 0.068279 -0.523320
O59   O     O_2   0.128141 0.499596 0.931685 -0.528542
O60   O     O_2   0.871065 0.500121 0.068297 -0.523102
O61   O     O_2   0.999182 0.627869 0.431644 -0.534003
O62   O     O_2   0.000705 0.371313 0.568366 -0.528423
O63   O     O_2   0.372133 0.998689 0.431648 -0.534104
O64   O     O_2   0.628676 0.001417 0.568362 -0.528429
O65   O     O_2   0.000409 0.371045 0.431702 -0.528082
O66   O     O_2   0.999221 0.628135 0.568301 -0.528585
O67   O     O_2   0.628942 0.001670 0.431698 -0.528071
O68   O     O_2   0.371864 0.998692 0.568305 -0.528584
H1    H     H_    0.504731 0.815943 0.976378 0.201643
H2    H     H_    0.495336 0.185030 0.023597 0.201520
H3    H     H_    0.184182 0.499467 0.976354 0.201620
H4    H     H_    0.815013 0.499987 0.023621 0.201559
H5    H     H_    0.495174 0.184900 0.976258 0.201727
H6    H     H_    0.504844 0.816066 0.023716 0.200978
H7    H     H_    0.815103 0.499994 0.976281 0.201750
H8    H     H_    0.184098 0.499517 0.023692 0.200927
H9    H     H_    0.000842 0.315004 0.476378 0.201732
H10   H     H_    0.998852 0.684170 0.523628 0.201677
H11   H     H_    0.684981 0.002220 0.476372 0.201735
H12   H     H_    0.315833 0.998076 0.523633 0.201674
H13   H     H_    0.998818 0.684077 0.476289 0.201136
H14   H     H_    0.000937 0.315098 0.523719 0.201786
H15   H     H_    0.315927 0.998093 0.476295 0.201118
H16   H     H_    0.684888 0.002141 0.523712 0.201785
C129  C     C_R   0.066626 0.500183 0.609748 0.177582
C130  C     C_R   0.933231 0.499540 0.390240 0.176444
C131  C     C_R   0.500699 0.933389 0.609750 0.177573
C132  C     C_R   0.499567 0.066747 0.390239 0.176457
C133  C     C_R   0.933342 0.499468 0.609760 0.177444
C134  C     C_R   0.066515 0.499375 0.390265 0.181536
C135  C     C_R   0.499641 0.066671 0.609758 0.177450
C136  C     C_R   0.501510 0.933476 0.390265 0.181410
C137  C     C_R   0.567140 0.001561 0.109826 0.175784
C138  C     C_R   0.433313 0.998740 0.890238 0.177586
C139  C     C_R   0.999799 0.433537 0.109733 0.174250
C140  C     C_R   0.999950 0.566537 0.890257 0.177564
C141  C     C_R   0.433782 0.999751 0.109706 0.179359
C142  C     C_R   0.566569 0.001624 0.890246 0.177430
C143  C     C_R   0.999148 0.566907 0.109798 0.180957
C144  C     C_R   0.999702 0.433250 0.890227 0.177451
C145  C     C_R   0.066069 0.500249 0.637059 -0.148411
C146  C     C_R   0.933849 0.499703 0.362929 -0.147962
C147  C     C_R   0.500606 0.933943 0.637061 -0.148402
C148  C     C_R   0.499433 0.066133 0.362928 -0.148034
C149  C     C_R   0.933921 0.499556 0.637070 -0.148355
C150  C     C_R   0.065996 0.499505 0.362953 -0.165158
C151  C     C_R   0.499582 0.066088 0.637069 -0.148361
C152  C     C_R   0.501353 0.934000 0.362953 -0.165070
C153  C     C_R   0.566226 0.001298 0.137112 -0.164831
C154  C     C_R   0.433904 0.998701 0.862928 -0.148398
C155  C     C_R   0.999947 0.434013 0.137044 -0.147476
C156  C     C_R   0.000023 0.566018 0.862946 -0.148439
C157  C     C_R   0.434161 0.999607 0.137018 -0.164754
C158  C     C_R   0.566025 0.001496 0.862935 -0.148399
C159  C     C_R   0.999272 0.566087 0.137085 -0.182142
C160  C     C_R   0.999782 0.433867 0.862918 -0.148339
H17   H     H_    0.117398 0.500555 0.647527 0.192721
H18   H     H_    0.882539 0.499822 0.352448 0.192566
H19   H     H_    0.500991 0.882613 0.647530 0.192724
H20   H     H_    0.498622 0.117439 0.352447 0.192563
H21   H     H_    0.882598 0.499303 0.647546 0.192745
H22   H     H_    0.117341 0.499454 0.352491 0.188023
H23   H     H_    0.499145 0.117409 0.647544 0.192741
H24   H     H_    0.502095 0.882663 0.352491 0.188246
H25   H     H_    0.617612 0.001926 0.147560 0.197945
H26   H     H_    0.382598 0.997548 0.852453 0.192744
H27   H     H_    0.000253 0.382660 0.147499 0.192196
H28   H     H_    0.000147 0.617361 0.852484 0.192714
H29   H     H_    0.382779 0.998873 0.147453 0.187380
H30   H     H_    0.617347 0.002593 0.852466 0.192736
H31   H     H_    0.999026 0.617510 0.147514 0.193457
H32   H     H_    0.999711 0.382557 0.852436 0.192766
C161  C     C_R   1.000000 0.499941 0.650911 -0.101745
C162  C     C_R   0.999948 0.499729 0.349094 -0.100547
C163  C     C_R   0.500057 0.000009 0.650910 -0.101745
C164  C     C_R   0.500269 0.000042 0.349093 -0.100662
C165  C     C_R   0.500113 0.000305 0.150911 -0.095582
C166  C     C_R   0.499976 0.000059 0.849087 -0.101721
C167  C     C_R   0.999732 0.500019 0.150911 -0.095766
C168  C     C_R   0.999941 0.499966 0.849087 -0.101737
C169  C     C_R   0.999978 0.499785 0.595991 0.300480
C170  C     C_R   0.999849 0.499423 0.404015 0.301771
C171  C     C_R   0.500209 0.000037 0.595991 0.300479
C172  C     C_R   0.500573 0.000133 0.404015 0.301769
C173  C     C_R   0.500501 0.000720 0.095963 0.309962
C174  C     C_R   0.499929 0.000226 0.904004 0.300504
C175  C     C_R   0.999447 0.500213 0.095963 0.309643
C176  C     C_R   0.999786 0.499867 0.904004 0.300509
Br1   Br    Br    0.838227 0.289954 0.694841 -0.365207
Br2   Br    Br    0.294274 0.577491 0.235836 -0.345243
Br3   Br    Br    0.710109 0.838269 0.694847 -0.365356
Br4   Br    Br    0.288511 0.160277 0.304972 -0.357427
Br5   Br    Br    0.161800 0.710051 0.694841 -0.365226
Br6   Br    Br    0.838299 0.289853 0.305147 -0.360410
Br7   Br    Br    0.289916 0.161721 0.694848 -0.365344
Br8   Br    Br    0.711244 0.839487 0.305003 -0.359681
Br9   Br    Br    0.839679 0.711448 0.304975 -0.357064
Br10  Br    Br    0.161743 0.289902 0.694847 -0.364968
Br11  Br    Br    0.710139 0.161676 0.305145 -0.360023
Br12  Br    Br    0.289956 0.838225 0.694843 -0.364838
Br13  Br    Br    0.160465 0.288708 0.304999 -0.359280
Br14  Br    Br    0.838296 0.710101 0.694848 -0.364950
Br15  Br    Br    0.422514 0.705726 0.235840 -0.345184
Br16  Br    Br    0.710059 0.161793 0.694840 -0.364813
Br17  Br    Br    0.205725 0.922509 0.264163 -0.344937
Br18  Br    Br    0.661778 0.210040 0.805160 -0.365849
Br19  Br    Br    0.211494 0.339727 0.195029 -0.357310
Br20  Br    Br    0.789887 0.661728 0.805152 -0.364875
Br21  Br    Br    0.661710 0.210136 0.194851 -0.362865
Br22  Br    Br    0.338195 0.789955 0.805160 -0.365882
Br23  Br    Br    0.788758 0.660516 0.194996 -0.361533
Br24  Br    Br    0.210087 0.338282 0.805152 -0.364887
Br25  Br    Br    0.338261 0.210103 0.805152 -0.364328
Br26  Br    Br    0.660323 0.788553 0.195024 -0.358727
Br27  Br    Br    0.210041 0.661779 0.805158 -0.365279
Br28  Br    Br    0.789864 0.338320 0.194853 -0.361197
Br29  Br    Br    0.661699 0.789893 0.805151 -0.364290
Br30  Br    Br    0.339541 0.211298 0.195002 -0.358953
Br31  Br    Br    0.789946 0.338203 0.805161 -0.365267
Br32  Br    Br    0.077486 0.794274 0.264160 -0.344991
C177  C     C_3   0.138193 0.500540 0.595366 -0.805933
H33   H     H_    0.185401 0.500842 0.608927 0.247072
H34   H     H_    0.142342 0.451149 0.582938 0.253388
H35   H     H_    0.141785 0.549905 0.582904 0.253366
C178  C     C_3   0.861631 0.499489 0.404602 -0.806663
H36   H     H_    0.814451 0.499489 0.391028 0.247120
H37   H     H_    0.857762 0.450085 0.417035 0.253710
H38   H     H_    0.857705 0.548843 0.417057 0.253336
C179  C     C_3   0.501334 0.861825 0.595369 -0.805930
H39   H     H_    0.501712 0.814616 0.608932 0.247076
H40   H     H_    0.452014 0.857538 0.582914 0.253391
H41   H     H_    0.550768 0.858375 0.582934 0.253360
C180  C     C_3   0.498621 0.138337 0.404601 -0.806706
H42   H     H_    0.547975 0.142901 0.417027 0.253739
H43   H     H_    0.497940 0.185515 0.391027 0.247122
H44   H     H_    0.449227 0.141559 0.417064 0.253302
C181  C     C_3   0.861762 0.499032 0.595391 -0.805658
H45   H     H_    0.814565 0.498805 0.608961 0.247058
H46   H     H_    0.857602 0.548354 0.582930 0.253354
H47   H     H_    0.858159 0.449597 0.582964 0.253474
C182  C     C_3   0.138064 0.499234 0.404655 -0.817244
H48   H     H_    0.185293 0.499290 0.391099 0.244812
H49   H     H_    0.141943 0.548531 0.417141 0.251102
H50   H     H_    0.141891 0.449773 0.417059 0.256486
C183  C     C_3   0.499083 0.138250 0.595387 -0.805656
H51   H     H_    0.498635 0.185445 0.608956 0.247058
H52   H     H_    0.548469 0.142549 0.582963 0.253497
H53   H     H_    0.449715 0.141715 0.582923 0.253335
C184  C     C_3   0.502645 0.861934 0.404655 -0.817018
H54   H     H_    0.503267 0.814712 0.391100 0.244920
H55   H     H_    0.552147 0.858804 0.417063 0.256430
H56   H     H_    0.453400 0.857358 0.417139 0.251119
C185  C     C_3   0.640028 0.002757 0.096273 -0.794504
H57   H     H_    0.671951 0.953778 0.101968 0.253207
H58   H     H_    0.635191 0.003083 0.074768 0.235343
H59   H     H_    0.670629 0.052375 0.102180 0.254253
C186  C     C_3   0.361744 0.997171 0.904609 -0.805905
H60   H     H_    0.314565 0.996040 0.891040 0.247077
H61   H     H_    0.358986 0.947764 0.917077 0.253292
H62   H     H_    0.356728 0.046496 0.917029 0.253459
C187  C     C_3   0.000017 0.361949 0.095357 -0.808150
H63   H     H_    0.049388 0.358219 0.082901 0.253389
H64   H     H_    0.000193 0.314739 0.108919 0.247324
H65   H     H_    0.950628 0.357906 0.082926 0.253536
C188  C     C_3   0.000046 0.638085 0.904649 -0.805872
H66   H     H_    0.049401 0.641843 0.917109 0.253308
H67   H     H_    0.000169 0.685313 0.891094 0.247072
H68   H     H_    0.950643 0.642033 0.917080 0.253456
C189  C     C_3   0.362251 0.998781 0.095301 -0.818971
H69   H     H_    0.315000 0.997922 0.108843 0.244909
H70   H     H_    0.357632 0.048210 0.082915 0.256683
H71   H     H_    0.359178 0.949462 0.082797 0.250831
C190  C     C_3   0.638114 0.003279 0.904625 -0.805583
H72   H     H_    0.685316 0.004327 0.891062 0.247063
H73   H     H_    0.640852 0.052761 0.917056 0.253394
H74   H     H_    0.643109 0.954029 0.917083 0.253447
C191  C     C_3   0.998733 0.639754 0.096214 -0.803429
H75   H     H_    0.949268 0.670771 0.102013 0.255784
H76   H     H_    0.047871 0.671303 0.101991 0.247166
H77   H     H_    0.998738 0.634847 0.074711 0.236459
C192  C     C_3   0.999527 0.361648 0.904586 -0.805634
H78   H     H_    0.999480 0.314469 0.891010 0.247055
H79   H     H_    0.048862 0.357654 0.917046 0.253410
H80   H     H_    0.950104 0.357845 0.917013 0.253422

loop_
_geom_bond_atom_site_label_1
_geom_bond_atom_site_label_2
_geom_bond_distance
_ccdc_geom_bond_type
C120  H8    1.083050 S    
C183  H51   1.110727 S    
C143  C159  1.401925 A    
C144  C176  1.410953 A    
Zn5   O51   1.941810 S    
N7    C172  1.441508 S    
C157  H29   1.083420 S    
C177  H33   1.110727 S    
C130  C146  1.403143 A    
C95   C107  1.408884 A    
C80   O60   1.349146 S    
Zn3   O38   1.941817 S    
C138  C174  1.410971 A    
Zn5   O20   1.893392 S    
C85   C97   1.405967 A    
Zn6   O19   1.893392 S    
C156  C168  1.404117 A    
C123  H11   1.083049 S    
C115  C120  1.396905 A    
C188  H68   1.110111 S    
Zn13  O35   1.941810 S    
C113  C118  1.396901 A    
O34   C22   1.264206 A    
Zn14  O36   1.941809 S    
C142  C174  1.411001 A    
Zn3   O3    1.955257 S    
C76   N4    1.370189 A    
C74   C94   1.405863 A    
C186  H62   1.110101 S    
C139  C187  1.505295 S    
C83   O63   1.349170 S    
C157  C165  1.403568 A    
C26   C71   1.407250 A    
C134  C150  1.403157 A    
C26   Br2   1.933474 S    
C182  H49   1.110130 S    
C100  C112  1.408892 A    
C113  H1    1.083056 S    
C146  C162  1.404205 A    
C16   C58   1.451397 S    
C184  H56   1.110116 S    
C135  C183  1.505069 S    
C53   Br29  1.933593 S    
C116  C119  1.396946 A    
Zn15  O26   1.941753 S    
C95   C119  1.405463 A    
C187  H65   1.110120 S    
C47   Br23  1.933397 S    
Zn2   O43   1.941899 S    
C136  C172  1.410995 A    
C93   C117  1.405464 A    
O22   C10   1.264285 A    
Zn3   O18   1.893347 S    
O28   C16   1.264191 A    
C38   C59   1.407336 A    
C85   N5    1.370179 A    
C84   C104  1.405958 A    
C107  C108  1.414511 A    
N2    C173  1.441152 S    
C42   C55   1.398161 A    
C126  H14   1.083055 S    
C45   C52   1.398163 A    
C77   N1    1.370158 A    
O40   C18   1.264148 A    
C47   C50   1.398229 A    
C73   C93   1.405909 A    
C88   O68   1.349169 S    
C180  H44   1.110105 S    
C141  C189  1.505314 S    
C133  C181  1.505072 S    
C79   C91   1.405877 A    
C73   N1    1.370172 A    
C183  H53   1.110119 S    
Zn7   O3    1.955269 S    
C36   C61   1.407352 A    
C131  C147  1.403133 A    
C123  C128  1.396978 A    
C96   C120  1.405442 A    
O9    C1    1.287368 A    
C115  H3    1.083053 S    
C178  H38   1.110100 S    
O11   C3    1.287279 A    
C177  H35   1.110111 S    
Zn13  O4    1.955163 S    
C155  C167  1.403628 A    
Zn14  O3    1.955162 S    
C54   C69   1.407256 A    
Zn16  O34   1.941949 S    
C22   C72   1.451386 S    
C43   Br19  1.933363 S    
O44   C22   1.264200 A    
C91   C115  1.405441 A    
C192  H78   1.110731 S    
C142  C158  1.403093 A    
C51   C68   1.407352 A    
C92   C116  1.405446 A    
C119  H7    1.083052 S    
C52   C67   1.407348 A    
C117  H5    1.083054 S    
C128  H16   1.083052 S    
C185  H57   1.110418 S    
C134  C182  1.505084 S    
O38   C20   1.264198 A    
C130  C170  1.410985 A    
C143  C191  1.506199 S    
C35   Br11  1.933589 S    
C7    C162  1.481385 S    
C74   N2    1.370201 A    
Zn15  O33   1.941948 S    
C35   C62   1.407344 A    
C81   O61   1.349180 S    
Zn4   O4    1.955253 S    
C33   C64   1.407165 A    
C39   Br15  1.933465 S    
C103  C111  1.408874 A    
C140  C188  1.505064 S    
C41   Br17  1.933474 S    
C27   Br3   1.933605 S    
C124  H12   1.083050 S    
N8    C171  1.441493 S    
C139  C155  1.403090 A    
C190  H73   1.110126 S    
Zn15  O2    1.955269 S    
Zn11  O2    1.955257 S    
Zn16  O5    1.893341 S    
C147  C163  1.404142 A    
C150  H22   1.083410 S    
O27   C15   1.264199 A    
C56   C71   1.407248 A    
O29   C17   1.264134 A    
N5    C170  1.441508 S    
C90   C106  1.408946 A    
C137  C153  1.401898 A    
C84   O64   1.349163 S    
C97   C109  1.408896 A    
Zn8   O13   1.893341 S    
O46   C12   1.264137 A    
C56   Br32  1.933465 S    
C114  H2    1.083056 S    
C80   N4    1.370188 A    
O14   C6    1.287312 A    
C155  H27   1.083441 S    
C13   C63   1.451263 S    
C34   Br10  1.933597 S    
O43   C21   1.264191 A    
C141  C157  1.403106 A    
C44   C59   1.407327 A    
C191  H77   1.108367 S    
C85   O65   1.349171 S    
C46   C51   1.398156 A    
C9    C59   1.451276 S    
C138  C186  1.505068 S    
C158  H30   1.083436 S    
C74   O54   1.349171 S    
C137  C185  1.506175 S    
C94   C106  1.408919 A    
C43   C54   1.398237 A    
C77   O57   1.349196 S    
C47   C64   1.407255 A    
C179  H40   1.110107 S    
C192  H80   1.110111 S    
C26   C39   1.398301 A    
C132  C148  1.403138 A    
C45   C62   1.407341 A    
C86   C98   1.405925 A    
C97   C121  1.405466 A    
Zn12  O30   1.941888 S    
C185  H59   1.110443 S    
C87   N7    1.370182 A    
C30   C67   1.407340 A    
C31   C66   1.407330 A    
O5    C1    1.287247 A    
O31   C19   1.264094 A    
C27   C38   1.398125 A    
C121  C126  1.396973 A    
O37   C19   1.264284 A    
C31   Br7   1.933606 S    
C99   C123  1.405466 A    
C152  C164  1.404142 A    
C103  C127  1.405463 A    
O51   C13   1.264149 A    
C181  H47   1.110116 S    
C101  C125  1.405461 A    
C130  C178  1.505066 S    
C160  C168  1.404159 A    
O8    C4    1.287511 A    
C189  H70   1.110073 S    
Zn4   O17   1.893347 S    
O48   C10   1.264093 A    
C86   N6    1.370172 A    
C24   C66   1.451264 S    
O16   C8    1.287305 A    
C78   N2    1.370181 A    
C121  H9    1.083055 S    
C44   Br20  1.933602 S    
Zn1   O1    1.955359 S    
O52   C14   1.264237 A    
C44   C53   1.398121 A    
C5    C164  1.481380 S    
C6    C163  1.481246 S    
O45   C11   1.264137 A    
C32   C33   1.398229 A    
C36   Br12  1.933600 S    
C73   O53   1.349191 S    
C188  H67   1.110730 S    
C99   C111  1.408898 A    
C152  H24   1.083420 S    
C41   C58   1.407252 A    
C153  H25   1.083904 S    
C43   C60   1.407162 A    
C140  C176  1.411022 A    
C28   Br4   1.933367 S    
C140  C156  1.403123 A    
O42   C24   1.264136 A    
Zn16  O25   1.941751 S    
O6    C2    1.287347 A    
C186  H61   1.110124 S    
C28   C37   1.398238 A    
Zn4   O37   1.941818 S    
Zn5   O40   1.941938 S    
Zn6   O39   1.941940 S    
C10   C60   1.451280 S    
C54   Br30  1.933372 S    
C182  H48   1.110721 S    
C77   C89   1.405878 A    
C105  C106  1.414502 A    
C184  H55   1.110110 S    
C181  H45   1.110727 S    
C129  C145  1.403137 A    
N4    C175  1.441147 S    
C15   C57   1.451386 S    
C187  H64   1.110736 S    
C25   C40   1.398157 A    
C133  C169  1.410989 A    
Zn5   O1    1.955163 S    
C30   C35   1.398160 A    
C11   C61   1.451371 S    
Zn4   O46   1.941888 S    
C101  C109  1.408868 A    
C148  C164  1.404203 A    
Zn12  O21   1.941818 S    
Zn13  O24   1.941938 S    
C104  C112  1.408882 A    
C114  C117  1.396933 A    
O35   C23   1.264234 A    
Zn14  O23   1.941940 S    
C144  C160  1.403039 A    
Zn15  O6    1.893341 S    
C75   O55   1.349178 S    
C145  H17   1.083435 S    
Zn16  O1    1.955267 S    
C27   C70   1.407330 A    
C136  C152  1.403157 A    
Zn12  O1    1.955253 S    
C89   C113  1.405446 A    
O32   C20   1.264198 A    
Zn13  O12   1.893392 S    
C151  H23   1.083440 S    
C3    C166  1.481154 S    
Zn14  O11   1.893392 S    
C180  H43   1.110726 S    
N6    C169  1.441493 S    
C138  C154  1.403080 A    
C183  H52   1.110104 S    
Zn7   O14   1.893341 S    
O12   C4    1.287154 A    
C100  C124  1.405451 A    
C79   O59   1.349184 S    
C49   C66   1.407327 A    
C178  H37   1.110130 S    
C177  H34   1.110110 S    
C178  H36   1.110726 S    
C82   N6    1.370189 A    
O7    C3    1.287323 A    
C34   C63   1.407331 A    
C116  H4    1.083050 S    
C37   Br13  1.933377 S    
C94   C118  1.405445 A    
O21   C9    1.264203 A    
C40   Br16  1.933597 S    
C143  C175  1.413667 A    
C87   O67   1.349159 S    
O23   C11   1.264144 A    
O39   C17   1.264146 A    
Zn11  O22   1.941817 S    
C127  H15   1.083052 S    
Zn7   O49   1.941948 S    
C148  H20   1.083436 S    
Zn9   O4    1.955359 S    
O15   C7    1.287460 A    
C159  H31   1.083879 S    
Zn10  O3    1.955355 S    
O25   C13   1.264138 A    
C149  C161  1.404155 A    
C41   C56   1.398302 A    
C135  C151  1.403106 A    
C151  C163  1.404152 A    
C93   C105  1.408879 A    
O18   C6    1.287344 A    
Zn9   O31   1.941761 S    
Zn10  O32   1.941763 S    
O10   C2    1.287315 A    
C46   C61   1.407347 A    
Zn1   O44   1.941901 S    
C81   N5    1.370189 A    
C14   C64   1.451266 S    
C182  H50   1.110096 S    
C190  H72   1.110733 S    
C87   C99   1.405974 A    
C88   C100  1.405927 A    
O41   C23   1.264034 A    
C29   Br5   1.933600 S    
C42   Br18  1.933612 S    
C104  C128  1.405471 A    
C75   N3    1.370171 A    
C76   C96   1.405864 A    
C1    C168  1.481159 S    
C2    C167  1.481215 S    
C118  H6    1.083056 S    
C159  C167  1.403559 A    
C75   C95   1.405911 A    
C111  C112  1.414552 A    
C25   C72   1.407355 A    
C83   C103  1.405910 A    
C109  C110  1.414553 A    
C51   Br27  1.933602 S    
C158  C166  1.404118 A    
C145  C161  1.404145 A    
C29   C36   1.398153 A    
C137  C173  1.413664 A    
C31   C34   1.398120 A    
O13   C5    1.287465 A    
C191  H76   1.110386 S    
C76   O56   1.349159 S    
C154  H26   1.083435 S    
C141  C173  1.411751 A    
Zn8   O50   1.941949 S    
C30   Br6   1.933590 S    
C142  C190  1.505069 S    
C102  C110  1.408878 A    
O26   C14   1.264031 A    
C79   N3    1.370156 A    
C147  H19   1.083437 S    
C179  H39   1.110727 S    
C192  H79   1.110111 S    
O19   C7    1.287271 A    
Zn8   O4    1.955267 S    
C133  C149  1.403097 A    
C160  H32   1.083435 S    
C25   Br1   1.933608 S    
C189  H69   1.110733 S    
C185  H58   1.108355 S    
Zn8   O41   1.941751 S    
C153  C165  1.403613 A    
O49   C15   1.264206 A    
C131  C171  1.411006 A    
C135  C171  1.410992 A    
C132  C172  1.410984 A    
C144  C192  1.505081 S    
C48   C49   1.398119 A    
O20   C8    1.287348 A    
C125  H13   1.083054 S    
C91   C107  1.408895 A    
C131  C179  1.505065 S    
C21   C71   1.451396 S    
C132  C180  1.505068 S    
O24   C12   1.264142 A    
C55   Br31  1.933600 S    
N1    C174  1.441432 S    
C86   O66   1.349177 S    
Zn7   O42   1.941753 S    
C82   C102  1.405950 A    
C190  H74   1.110096 S    
Zn6   O52   1.941809 S    
C78   C90   1.405918 A    
C181  H46   1.110106 S    
C19   C69   1.451278 S    
Zn1   O47   1.941761 S    
C78   O58   1.349163 S    
Zn2   O48   1.941763 S    
C134  C170  1.410990 A    
Zn3   O45   1.941890 S    
Zn6   O2    1.955162 S    
C98   C122  1.405453 A    
C12   C62   1.451370 S    
C28   C69   1.407161 A    
Zn11  O10   1.893347 S    
C92   C108  1.408948 A    
C55   C72   1.407351 A    
C146  H18   1.083432 S    
Zn1   O16   1.893295 S    
C154  C166  1.404143 A    
C139  C175  1.411741 A    
Zn2   O15   1.893295 S    
C90   C114  1.405450 A    
C32   Br8   1.933393 S    
C53   C70   1.407335 A    
C129  C177  1.505063 S    
C4    C165  1.481207 S    
C189  H71   1.110136 S    
C96   C108  1.408923 A    
C23   C65   1.451268 S    
C20   C70   1.451276 S    
C122  C125  1.396931 A    
C81   C101  1.405907 A    
C49   Br25  1.933596 S    
C188  H66   1.110113 S    
C84   N8    1.370192 A    
C50   C65   1.407162 A    
C129  C169  1.411009 A    
C17   C67   1.451374 S    
C18   C68   1.451371 S    
C52   Br28  1.933591 S    
C83   N7    1.370192 A    
C102  C126  1.405475 A    
C40   C57   1.407352 A    
C8    C161  1.481241 S    
N3    C176  1.441432 S    
C48   Br24  1.933606 S    
C32   C65   1.407253 A    
C38   Br14  1.933599 S    
C186  H60   1.110732 S    
O47   C9    1.264193 A    
C179  H41   1.110118 S    
O17   C5    1.287265 A    
Zn9   O28   1.941901 S    
C37   C60   1.407253 A    
Zn10  O27   1.941899 S    
C39   C58   1.407248 A    
O33   C21   1.264200 A    
Zn2   O2    1.955355 S    
C136  C184  1.505080 S    
C122  H10   1.083056 S    
Zn9   O8    1.893295 S    
Zn10  O7    1.893295 S    
C184  H54   1.110721 S    
C149  H21   1.083433 S    
Zn12  O9    1.893347 S    
C150  C162  1.404144 A    
C89   C105  1.408891 A    
C187  H63   1.110085 S    
C98   C110  1.408889 A    
C191  H75   1.110402 S    
C48   C63   1.407330 A    
C45   Br21  1.933601 S    
C124  C127  1.396936 A    
C80   C92   1.405934 A    
C156  H28   1.083433 S    
C82   O62   1.349176 S    
Zn11  O29   1.941890 S    
C42   C57   1.407357 A    
O50   C16   1.264198 A    
C50   Br26  1.933370 S    
C33   Br9   1.933366 S    
C88   N8    1.370176 A    
C46   Br22  1.933606 S    
C29   C68   1.407350 A    
C180  H42   1.110121 S    
O36   C24   1.264150 A    
O30   C18   1.264134 A    
