data_mof_unit_53676.cif
_audit_creation_date              2012-12-10T18:23:54-0500
_audit_creation_method            fapswitch 2.2
_symmetry_space_group_name_H-M    P1
_symmetry_Int_Tables_number       1
_space_group_crystal_system       triclinic
_cell_length_a                    15.735852
_cell_length_b                    14.913039
_cell_length_c                    14.149396
_cell_angle_alpha                 91.845775
_cell_angle_beta                  88.357038
_cell_angle_gamma                 87.735107
_cell_volume                      3314.62361257

loop_
_atom_site_label
_atom_site_type_symbol
_atom_type_description
_atom_site_fract_x
_atom_site_fract_y
_atom_site_fract_z
_atom_type_partial_charge
C1    C     C_R   0.497843 0.327281 0.498680 0.939443
C2    C     C_R   0.502156 0.672719 0.501320 0.939442
C3    C     C_R   0.506372 0.768042 0.504892 -0.147547
C4    C     C_R   0.493626 0.231959 0.495107 -0.147544
C5    C     C_R   0.576033 0.809728 0.464697 0.336697
C6    C     C_R   0.423963 0.190272 0.535298 0.336698
C7    C     C_R   0.578429 0.904053 0.472031 -0.004510
C8    C     C_R   0.421567 0.095948 0.527963 -0.004510
C9    C     C_R   0.502512 0.953277 0.502830 -0.061422
C10   C     C_R   0.497484 0.046723 0.497165 -0.061423
C11   C     C_R   0.431873 0.908835 0.540508 0.031251
C12   C     C_R   0.568124 0.091165 0.459488 0.031251
C13   C     C_R   0.652336 0.950967 0.447643 0.105084
C14   C     C_R   0.347660 0.049034 0.552351 0.105087
C15   C     C_R   0.644650 0.043461 0.433518 0.369735
C16   C     C_R   0.355346 0.956539 0.566478 0.369735
C17   C     C_R   0.441975 0.554675 0.802978 0.287234
C18   C     C_R   0.558030 0.445330 0.197022 0.287237
C19   C     C_R   0.557604 0.446723 0.794095 -0.064264
C20   C     C_R   0.442402 0.553280 0.205903 -0.064267
C21   C     C_R   0.559921 0.445574 0.894328 0.008294
C22   C     C_R   0.440090 0.554432 0.105671 0.008299
C23   C     C_R   0.338089 0.500302 0.501189 0.918772
C24   C     C_R   0.661911 0.499696 0.498811 0.918778
C25   C     C_R   0.500016 0.499870 0.949509 0.011675
C26   C     C_R   0.499995 0.500137 0.050490 0.011673
C27   C     C_R   0.440156 0.554182 0.903781 -0.013145
C28   C     C_R   0.559855 0.445825 0.096220 -0.013142
C29   C     C_R   0.620541 0.391867 0.940840 0.202105
C30   C     C_R   0.379472 0.608140 0.059161 0.202105
C31   C     C_R   0.619923 0.392752 0.040135 -0.185941
C32   C     C_R   0.380093 0.607259 0.959866 -0.185943
C33   C     C_3   0.969364 0.468253 0.581118 0.146552
C34   C     C_3   0.030638 0.531718 0.418887 0.146548
C35   C     C_3   0.030996 0.415986 0.510475 0.134243
C36   C     C_3   0.969006 0.583986 0.489529 0.134240
C37   C     C_1   0.249362 0.500457 0.503665 -0.133512
C38   C     C_1   0.750639 0.499530 0.496336 -0.133525
C39   C     C_3   0.022481 0.552616 0.572971 0.135196
C40   C     C_3   0.977521 0.447355 0.427033 0.135193
C41   C     C_3   0.083517 0.500352 0.502365 0.040047
C42   C     C_3   0.916484 0.499620 0.497639 0.040047
C43   C     C_1   0.174222 0.500513 0.504013 0.002124
C44   C     C_1   0.825780 0.499465 0.495990 0.002120
C45   C     C_R   0.437646 0.816268 0.546555 -0.258811
C46   C     C_R   0.562352 0.183733 0.453443 -0.258810
H1    H     H_    0.667747 0.351106 0.072783 0.163743
H2    H     H_    0.332276 0.648914 0.927220 0.163749
H3    H     H_    0.385908 0.779473 0.576428 0.200828
H4    H     H_    0.614091 0.220528 0.423573 0.200828
H5    H     H_    0.601915 0.405553 0.750081 0.158199
H6    H     H_    0.398090 0.594449 0.249915 0.158201
N1    N     N_R   0.500040 0.500070 0.750030 -0.104336
N2    N     N_R   0.499960 0.499930 0.249970 -0.104339
O1    O     O_R   0.500020 0.367860 0.580280 -0.573935
O2    O     O_R   0.499980 0.632140 0.419720 -0.573931
O3    O     O_R   0.500020 0.367840 0.419730 -0.644238
O4    O     O_R   0.499980 0.632160 0.580270 -0.644237
O5    O     O_R   0.376770 0.500000 0.580260 -0.602921
O6    O     O_R   0.623230 0.500000 0.419740 -0.602919
O7    O     O_R   0.376780 0.499980 0.419710 -0.629181
O8    O     O_R   0.623220 0.500020 0.580290 -0.629181
Zn1   Zn    Zn3+2 0.499990 0.500020 0.607200 0.981008
Zn2   Zn    Zn3+2 0.500010 0.499980 0.392800 0.981009
C47   C     C_3   0.067737 0.321227 0.522436 -0.824894
H7    H     H_    0.015311 0.273750 0.526469 0.250361
H8    H     H_    0.110842 0.301475 0.461201 0.245686
H9    H     H_    0.104108 0.318784 0.588418 0.261289
C48   C     C_3   0.932266 0.678745 0.477569 -0.824896
H10   H     H_    0.984693 0.726221 0.473536 0.250361
H11   H     H_    0.895895 0.681188 0.411587 0.261286
H12   H     H_    0.889162 0.698497 0.538805 0.245687
C49   C     C_3   0.686757 0.333291 0.886389 -0.906799
H13   H     H_    0.726940 0.375421 0.841428 0.239513
H14   H     H_    0.729417 0.295998 0.933965 0.249187
H15   H     H_    0.655110 0.283162 0.841180 0.249689
C50   C     C_3   0.313264 0.666725 0.113614 -0.906801
H16   H     H_    0.273110 0.624613 0.158626 0.239495
H17   H     H_    0.344922 0.716885 0.158772 0.249709
H18   H     H_    0.270571 0.703979 0.066042 0.249184
C51   C     C_3   0.933154 0.432347 0.672644 -0.867412
H19   H     H_    0.985852 0.414837 0.720019 0.253341
H20   H     H_    0.889967 0.484297 0.708412 0.244068
H21   H     H_    0.897034 0.371515 0.656754 0.247223
C52   C     C_3   0.066847 0.567624 0.327360 -0.867409
H22   H     H_    0.014149 0.585134 0.279985 0.253340
H23   H     H_    0.102967 0.628456 0.343250 0.247220
H24   H     H_    0.110034 0.515675 0.291592 0.244072
C53   C     C_3   0.950472 0.388011 0.344678 -0.841446
H25   H     H_    0.007723 0.358860 0.305609 0.248361
H26   H     H_    0.912100 0.332971 0.371784 0.258174
H27   H     H_    0.911712 0.428602 0.296146 0.244977
C54   C     C_3   0.049532 0.611958 0.655327 -0.841452
H28   H     H_    0.992282 0.641104 0.694402 0.248362
H29   H     H_    0.088298 0.571367 0.703853 0.244978
H30   H     H_    0.087900 0.667002 0.628221 0.258171
Cl1   Cl    Cl    0.651736 0.742498 0.395181 -0.637610
Cl2   Cl    Cl    0.348259 0.257503 0.604812 -0.637614
C55   C     C_3   0.741043 0.907723 0.449919 -0.692334
H31   H     H_    0.743309 0.850650 0.498291 0.239108
H32   H     H_    0.763648 0.886030 0.377413 0.283115
H33   H     H_    0.786618 0.955160 0.479821 0.248369
C56   C     C_3   0.258953 0.092277 0.550074 -0.692339
H34   H     H_    0.256687 0.149349 0.501702 0.239107
H35   H     H_    0.213378 0.044839 0.520173 0.248369
H36   H     H_    0.236348 0.113971 0.622580 0.283115
Cl3   Cl    Cl    0.733153 0.099342 0.385848 -0.650139
Cl4   Cl    Cl    0.266844 0.900659 0.614150 -0.650135
C57   C     C_3   0.379555 0.617479 0.756302 -0.812880
H37   H     H_    0.387226 0.620093 0.680187 0.283250
H38   H     H_    0.313525 0.597288 0.771653 0.219527
H39   H     H_    0.387412 0.687414 0.783043 0.219812
C58   C     C_3   0.620452 0.382528 0.243700 -0.812880
H40   H     H_    0.612773 0.379905 0.319813 0.283249
H41   H     H_    0.612608 0.312594 0.216950 0.219809
H42   H     H_    0.686481 0.402729 0.228360 0.219533

loop_
_geom_bond_atom_site_label_1
_geom_bond_atom_site_label_2
_ccdc_geom_bond_type
C7    C13   A    
C13   C55   S    
C54   H28   S    
O7    Zn2   S    
C32   H2    S    
C49   H13   S    
C36   C42   S    
C51   H19   S    
C39   C41   S    
C4    C46   A    
C52   H22   S    
C23   O5    A    
C33   C39   S    
C36   C39   S    
C34   C40   S    
C33   C42   S    
C6    Cl2   S    
C19   C21   A    
C57   H38   S    
C8    C10   A    
C50   H18   S    
C29   C49   S    
C35   C47   S    
C15   Cl3   S    
C48   H11   S    
C39   C54   S    
C30   C50   S    
C47   H8    S    
O1    Zn1   S    
C24   C38   S    
O2    Zn2   S    
C40   C53   S    
C53   H26   S    
C9    C10   A    
C50   H16   S    
C58   H42   S    
C19   N1    A    
C40   C42   S    
C54   H29   S    
C31   H1    S    
C24   O8    A    
C41   C43   S    
C34   C41   S    
C42   C44   S    
C18   C58   S    
C51   H20   S    
C52   H23   S    
C17   C27   A    
C18   C28   A    
C20   N2    A    
C57   H39   S    
C5    C7    A    
C16   Cl4   S    
C6    C8    A    
C25   C26   A    
C23   C37   S    
C21   C29   A    
C3    C45   A    
C12   C46   A    
C37   C43   T    
C48   H12   S    
C38   C44   T    
O8    Zn1   S    
C1    O3    A    
C11   C16   A    
C55   H31   S    
C12   C15   A    
C45   H3    S    
C24   O6    A    
C47   H9    S    
C50   H17   S    
C56   H35   S    
C53   H27   S    
C9    C11   A    
C10   C12   A    
C4    C6    A    
C55   H32   S    
C5    Cl1   S    
C54   H30   S    
C13   C15   A    
C49   H15   S    
C14   C16   A    
C11   C45   A    
C49   H14   S    
C17   N1    A    
C51   H21   S    
C36   C48   S    
O3    Zn2   S    
C58   H40   S    
C52   H24   S    
O4    Zn1   S    
C7    C9    A    
C21   C25   A    
C8    C14   A    
C22   C30   A    
C27   C32   A    
C26   C28   A    
C28   C31   A    
C20   C22   A    
C3    C5    A    
C17   C57   S    
C2    O4    A    
C25   C27   A    
C46   H4    S    
O5    Zn1   S    
O6    Zn2   S    
C1    C4    S    
C2    C3    S    
C1    O1    A    
C20   H6    S    
C2    O2    A    
C57   H37   S    
C30   C32   A    
N1    Zn1   S    
C14   C56   S    
N2    Zn2   S    
C33   C35   S    
C35   C40   S    
C56   H36   S    
C34   C36   S    
C48   H10   S    
C35   C41   S    
C18   N2    A    
C19   H5    S    
C23   O7    A    
C55   H33   S    
C29   C31   A    
C47   H7    S    
C22   C26   A    
C56   H34   S    
C53   H25   S    
C33   C51   S    
C34   C52   S    
C58   H41   S    
