data_mof_unit_39050.cif
_audit_creation_date              2012-10-26T20:11:41-0400
_audit_creation_method            fapswitch 2.2
_symmetry_space_group_name_H-M    P1
_symmetry_Int_Tables_number       1
_space_group_crystal_system       triclinic
_cell_length_a                    11.017074
_cell_length_b                    15.079949
_cell_length_c                    14.073737
_cell_angle_alpha                 89.82167
_cell_angle_beta                  103.939989
_cell_angle_gamma                 93.390344
_cell_volume                      2265.18357409

loop_
_atom_site_label
_atom_site_type_symbol
_atom_type_description
_atom_site_fract_x
_atom_site_fract_y
_atom_site_fract_z
_atom_type_partial_charge
C1    C     C_R   0.502216 0.330193 0.500320 0.533082
C2    C     C_R   0.525647 0.577266 0.800586 0.150755
C3    C     C_R   0.415201 0.443957 0.087837 -0.011980
C4    C     C_R   0.503873 0.575890 0.897527 -0.019392
C5    C     C_R   0.514850 0.488961 0.057160 -0.005155
C6    C     C_R   0.517953 0.495915 0.949892 -0.001438
C7    C     C_R   0.262598 0.500309 0.459579 0.544265
C8    C     C_R   0.737468 0.500329 0.540482 0.544133
C9    C     C_2   0.126411 0.501501 0.436959 -0.140736
C10   C     C_2   0.873818 0.500604 0.563365 -0.140309
C11   C     C_2   0.067887 0.500616 0.510184 -0.163315
C12   C     C_R   0.501128 0.669403 0.500014 0.531379
C13   C     C_2   0.932431 0.501472 0.490194 -0.163044
C14   C     C_R   0.564304 0.096919 0.584838 -0.123630
C15   C     C_R   0.404557 0.900158 0.442336 -0.123869
C16   C     C_R   0.564445 0.189107 0.584929 -0.138749
C17   C     C_R   0.402834 0.807916 0.442076 -0.132540
C18   C     C_R   0.506954 0.233560 0.499962 0.015846
C19   C     C_R   0.503478 0.765296 0.499733 0.015792
C20   C     C_R   0.456634 0.185112 0.413220 -0.132677
C21   C     C_R   0.607203 0.814555 0.555884 -0.150242
C22   C     C_R   0.458695 0.093148 0.412409 -0.122053
C23   C     C_R   0.510568 0.048067 0.498645 0.033585
C24   C     C_R   0.610369 0.906760 0.554710 -0.120587
C25   C     C_3   0.315144 0.388409 0.012945 -0.254980
C26   C     C_3   0.225523 0.446921 0.941734 -0.295037
C27   C     C_3   0.102565 0.395521 0.894009 -0.465201
C28   C     C_3   0.460515 0.657191 0.941924 -0.272374
C29   C     C_3   0.345032 0.693798 0.872505 -0.299816
C30   C     C_3   0.295767 0.770226 0.920288 -0.459033
C31   C     C_3   0.673196 0.624744 0.282206 -0.211923
C32   C     C_3   0.621059 0.715598 0.248317 -0.291801
C33   C     C_3   0.697723 0.766627 0.186554 -0.463336
C34   C     C_R   0.508590 0.950438 0.498509 0.032615
C35   C     C_3   0.420851 0.333347 0.748479 -0.202562
C36   C     C_3   0.286763 0.341247 0.686049 -0.267822
C37   C     C_3   0.208811 0.253228 0.679414 -0.481378
C38   C     C_3   0.270798 0.439859 0.200962 -0.194115
C39   C     C_3   0.247007 0.348964 0.245456 -0.278559
C40   C     C_3   0.107255 0.322274 0.226164 -0.475128
C41   C     C_3   0.598961 0.660882 0.777878 -0.203568
C42   C     C_3   0.727665 0.642139 0.759534 -0.263674
C43   C     C_3   0.831621 0.710034 0.810092 -0.494811
C44   C     C_R   0.602523 0.539525 0.127103 -0.151005
C45   C     C_R   0.523733 0.420266 0.895837 -0.154400
C46   C     C_R   0.592405 0.548264 0.224978 0.141741
C47   C     C_R   0.486549 0.421198 0.792215 0.132992
C48   C     C_R   0.403712 0.456216 0.187041 0.140008
Cu1   Cu    Cu3+1 0.500000 0.499990 0.596430 0.900264
Cu2   Cu    Cu3+1 0.500000 0.500010 0.403570 0.904191
H1    H     H_    0.880266 0.502379 0.414061 0.153759
H2    H     H_    0.686659 0.781861 0.598840 0.094420
H3    H     H_    0.420251 0.057478 0.344131 0.098566
H4    H     H_    0.693021 0.943689 0.596751 0.101028
H5    H     H_    0.676381 0.577197 0.103303 0.105407
H6    H     H_    0.538095 0.357926 0.934200 0.087959
H7    H     H_    0.120874 0.335527 0.855469 0.153941
H8    H     H_    0.051328 0.375162 0.950296 0.146716
H9    H     H_    0.042840 0.438337 0.840013 0.137345
H10   H     H_    0.204305 0.506021 0.980464 0.152802
H11   H     H_    0.269640 0.471250 0.882887 0.171522
H12   H     H_    0.119998 0.499059 0.586276 0.152316
H13   H     H_    0.357608 0.342387 0.971423 0.129919
H14   H     H_    0.261348 0.340961 0.049680 0.137258
H15   H     H_    0.212851 0.795481 0.868231 0.140224
H16   H     H_    0.267216 0.747175 0.987223 0.144758
H17   H     H_    0.369069 0.825369 0.940095 0.149846
H18   H     H_    0.368797 0.718346 0.804369 0.160512
H19   H     H_    0.269509 0.640093 0.852378 0.156759
H20   H     H_    0.433008 0.640133 0.010820 0.158917
H21   H     H_    0.536950 0.709795 0.962436 0.124399
H22   H     H_    0.796249 0.778856 0.229002 0.148342
H23   H     H_    0.926220 0.499831 0.639418 0.089175
H24   H     H_    0.696272 0.729426 0.118525 0.140500
H25   H     H_    0.657321 0.831703 0.165966 0.139924
H26   H     H_    0.521534 0.707616 0.206375 0.163254
H27   H     H_    0.622828 0.757416 0.313692 0.163187
H28   H     H_    0.681411 0.622043 0.360778 0.193929
H29   H     H_    0.771154 0.621237 0.274902 0.098891
H30   H     H_    0.253391 0.200908 0.646564 0.157771
H31   H     H_    0.199779 0.231904 0.753103 0.142644
H32   H     H_    0.113534 0.261309 0.632482 0.146521
H33   H     H_    0.239350 0.392981 0.717229 0.151578
H34   H     H_    0.073988 0.503673 0.361071 0.084671
H35   H     H_    0.288617 0.358564 0.610437 0.212509
H36   H     H_    0.479044 0.295196 0.712869 0.153159
H37   H     H_    0.411502 0.287767 0.809029 0.095937
H38   H     H_    0.057729 0.373320 0.256150 0.151158
H39   H     H_    0.065797 0.314240 0.146276 0.143747
H40   H     H_    0.093773 0.258004 0.262094 0.141633
H41   H     H_    0.292866 0.297070 0.213196 0.133758
H42   H     H_    0.285707 0.349630 0.325321 0.204641
H43   H     H_    0.239091 0.497738 0.233160 0.157764
H44   H     H_    0.200757 0.443798 0.130492 0.105726
H45   H     H_    0.605419 0.064047 0.652430 0.097681
H46   H     H_    0.807439 0.778211 0.785413 0.145365
H47   H     H_    0.845519 0.706592 0.890839 0.148623
H48   H     H_    0.920801 0.695390 0.791404 0.139584
H49   H     H_    0.755663 0.575075 0.786111 0.177042
H50   H     H_    0.722766 0.645789 0.680316 0.189446
H51   H     H_    0.542517 0.702932 0.722133 0.152513
H52   H     H_    0.619345 0.707054 0.841173 0.109524
H53   H     H_    0.323900 0.931956 0.399645 0.099643
H54   H     H_    0.611699 0.225366 0.650871 0.104205
H55   H     H_    0.322345 0.769765 0.398406 0.106135
H56   H     H_    0.415287 0.218108 0.346000 0.108680
N1    N     N_R   0.500000 0.500020 0.258690 -0.216817
N2    N     N_R   0.500000 0.499980 0.741310 -0.210422
O1    O     O_R   0.500010 0.371450 0.581440 -0.516213
O2    O     O_R   0.499990 0.628550 0.418560 -0.513751
O3    O     O_R   0.500010 0.371460 0.418560 -0.499772
O4    O     O_R   0.499990 0.628540 0.581440 -0.511339
O5    O     O_R   0.320690 0.500000 0.551510 -0.504932
O6    O     O_R   0.679310 0.500000 0.448490 -0.511678
O7    O     O_R   0.320690 0.500010 0.388630 -0.514435
O8    O     O_R   0.679310 0.499990 0.611370 -0.508287

loop_
_geom_bond_atom_site_label_1
_geom_bond_atom_site_label_2
_ccdc_geom_bond_type
Cu1   O5    S    
C6    C45   A    
C41   C42   S    
C39   H42   S    
C35   C36   S    
C43   H48   S    
C11   H12   S    
C35   C47   S    
C12   O2    A    
C26   C27   S    
C36   C37   S    
C19   C21   A    
C26   H11   S    
C42   H50   S    
C38   C39   S    
C10   H23   S    
C48   N1    A    
C36   H33   S    
C24   H4    S    
C3    C48   A    
Cu2   O2    S    
C41   H52   S    
C38   H43   S    
C15   C17   A    
Cu2   O7    S    
C25   H13   S    
C7    O7    A    
C33   H22   S    
C1    O1    A    
C32   H27   S    
C13   H1    S    
C35   H37   S    
C33   H25   S    
C45   H6    S    
C31   C46   S    
C40   H39   S    
Cu1   N2    S    
C15   C34   A    
C29   H19   S    
C30   H17   S    
C8    O6    A    
C37   H31   S    
C39   H41   S    
C4    C28   S    
C44   C46   A    
C22   H3    S    
C20   H56   S    
C45   C47   A    
C37   H30   S    
C3    C25   S    
C4    C6    A    
C27   H7    S    
C39   C40   S    
C25   C26   S    
C10   C13   D    
C24   C34   A    
Cu2   O6    S    
C25   H14   S    
C14   C23   A    
C2    C4    A    
C29   C30   S    
C17   H55   S    
C29   H18   S    
C31   C32   S    
C23   C34   S    
C46   N1    A    
C38   H44   S    
C43   H46   S    
C1    C18   S    
C9    C11   D    
C30   H16   S    
Cu1   O4    S    
C16   C18   A    
C5    C44   A    
C20   C22   A    
Cu1   Cu2   S    
C16   H54   S    
Cu2   N1    S    
C14   C16   A    
C37   H32   S    
C28   H21   S    
C42   C43   S    
C14   H45   S    
C12   O4    A    
C31   H28   S    
Cu1   O1    S    
C7    C9    S    
C28   C29   S    
C38   C48   S    
C28   H20   S    
C43   H47   S    
C3    C5    A    
C27   H8    S    
C32   H26   S    
C31   H29   S    
C36   H35   S    
C15   H53   S    
C32   C33   S    
C7    O5    A    
C27   H9    S    
C42   H49   S    
C1    O3    A    
C11   C13   S    
C44   H5    S    
C40   H38   S    
C5    C6    S    
C12   C19   S    
C2    N2    A    
Cu2   O3    S    
C17   C19   A    
C41   H51   S    
C18   C20   A    
C30   H15   S    
C8    O8    A    
C9    H34   S    
C33   H24   S    
Cu1   O8    S    
C8    C10   S    
C47   N2    A    
C21   C24   A    
C22   C23   A    
C2    C41   S    
C40   H40   S    
C26   H10   S    
C35   H36   S    
C21   H2    S    
