data_mof_unit_43831.cif
_audit_creation_date              2012-12-10T17:19:02-0500
_audit_creation_method            fapswitch 2.2
_symmetry_space_group_name_H-M    P1
_symmetry_Int_Tables_number       1
_space_group_crystal_system       triclinic
_cell_length_a                    10.16556
_cell_length_b                    10.741264
_cell_length_c                    13.679805
_cell_angle_alpha                 91.720654
_cell_angle_beta                  100.695266
_cell_angle_gamma                 96.174236
_cell_volume                      1457.33720795

loop_
_atom_site_label
_atom_site_type_symbol
_atom_type_description
_atom_site_fract_x
_atom_site_fract_y
_atom_site_fract_z
_atom_type_partial_charge
C1    C     C_R   0.055246 0.733460 0.496770 0.888687
C2    C     C_2   0.031220 0.071708 0.549546 -0.121238
C3    C     C_2   0.431159 0.511227 0.508699 -0.153331
C4    C     C_2   0.568902 0.487928 0.492123 -0.142567
C5    C     C_R   0.095070 0.514892 0.685663 0.886636
C6    C     C_R   0.905108 0.486678 0.313976 0.894231
C7    C     C_R   0.154554 0.547838 0.789872 -0.058099
C8    C     C_R   0.857149 0.494127 0.206561 -0.071122
C9    C     C_R   0.165061 0.678212 0.939168 -0.215253
C10   C     C_R   0.900650 0.499586 0.038277 -0.213715
C11   C     C_R   0.095043 0.628673 0.846518 -0.273579
C12   C     C_R   0.948151 0.267288 0.510338 0.887089
C13   C     C_R   0.945681 0.486562 0.139600 -0.242928
C14   C     C_R   0.284496 0.516744 0.825866 0.032987
C15   C     C_R   0.723747 0.518678 0.171647 0.037485
C16   C     C_R   0.363605 0.584539 0.909813 0.044259
C17   C     C_R   0.686925 0.554519 0.073186 0.047085
C18   C     C_R   0.298966 0.655921 0.971702 0.155057
C19   C     C_R   0.770727 0.531530 0.004235 0.152371
C20   C     C_R   0.502811 0.576458 0.938149 0.068568
C21   C     C_R   0.562203 0.599159 0.038871 0.066107
C22   C     C_R   0.498143 0.670487 0.100312 -0.241643
C23   C     C_R   0.586290 0.554217 0.869262 -0.239666
C24   C     C_R   0.369148 0.702406 0.065517 -0.227019
C25   C     C_R   0.720958 0.536837 0.902277 -0.230309
C26   C     C_2   0.093786 0.868297 0.507583 -0.090569
C27   C     C_2   0.923689 0.135192 0.529015 -0.094643
C28   C     C_2   0.016060 0.936995 0.551334 -0.144153
H1    H     H_    0.322538 0.758928 0.113358 0.148108
H2    H     H_    0.930551 0.893384 0.580257 0.184700
H3    H     H_    0.577743 0.413610 0.439036 0.173505
H4    H     H_    0.422355 0.584868 0.562392 0.161967
H5    H     H_    0.665501 0.623503 0.589027 0.158268
H6    H     H_    0.334497 0.377061 0.410504 0.164913
H7    H     H_    0.600911 0.559525 0.269019 0.199436
H8    H     H_    0.534440 0.438202 0.183659 0.187383
H9    H     H_    0.382611 0.422431 0.733366 0.201922
H10   H     H_    0.375956 0.355307 0.844430 0.192474
H11   H     H_    0.744425 0.120550 0.573814 0.193194
H12   H     H_    0.783692 0.521240 0.848140 0.151002
H13   H     H_    0.734896 0.088019 0.451016 0.186579
H14   H     H_    0.242964 0.860065 0.426024 0.194569
H15   H     H_    0.284442 0.953548 0.530153 0.182638
H16   H     H_    0.048365 0.466824 0.165058 0.172675
H17   H     H_    0.995193 0.654270 0.818919 0.166788
H18   H     H_    0.115836 0.736116 0.984167 0.153100
H19   H     H_    0.967035 0.484445 0.986756 0.164253
H20   H     H_    0.550190 0.708104 0.172959 0.153071
H21   H     H_    0.550865 0.558004 0.790128 0.143882
H22   H     H_    0.132945 0.118344 0.555365 0.176876
N1    N     N_2   0.322180 0.446120 0.460900 -0.189711
N2    N     N_2   0.677820 0.553880 0.539100 -0.192156
N3    N     N_3   0.622155 0.482041 0.229432 -0.453529
N4    N     N_3   0.323437 0.402909 0.786864 -0.459821
N5    N     N_3   0.788937 0.074866 0.522054 -0.460980
N6    N     N_3   0.207088 0.925882 0.469216 -0.458187
O1    O     O_R   0.935190 0.693030 0.507870 -0.613370
O2    O     O_R   0.064810 0.306970 0.492130 -0.608952
O3    O     O_R   0.142080 0.658430 0.482770 -0.611621
O4    O     O_R   0.857920 0.341570 0.517230 -0.607767
O5    O     O_R   0.969700 0.527180 0.651960 -0.622949
O6    O     O_R   0.030300 0.472820 0.348040 -0.613438
O7    O     O_R   0.176600 0.492580 0.626860 -0.599696
O8    O     O_R   0.823400 0.507420 0.373140 -0.584904
Zn1   Zn    Zn3+2 0.861850 0.523100 0.516760 0.931565
Zn2   Zn    Zn3+2 0.138150 0.476900 0.483240 0.933481

loop_
_geom_bond_atom_site_label_1
_geom_bond_atom_site_label_2
_ccdc_geom_bond_type
C22   H20   S    
C2    C27   D    
C1    O1    A    
H7    N3    S    
C5    C7    S    
C9    C18   A    
C26   C28   D    
H10   N4    S    
C20   C23   A    
C10   C19   A    
C16   C20   A    
C12   O2    A    
O8    Zn1   S    
C6    O6    A    
C28   H2    S    
O7    Zn2   S    
C5    O5    A    
C9    H18   S    
C25   H12   S    
C21   C22   A    
C13   H16   S    
H5    N2    S    
C7    C11   A    
C9    C11   A    
H6    N1    S    
C3    H4    S    
C4    N2    D    
C18   C24   A    
H9    N4    S    
C15   N3    S    
C22   C24   A    
C14   N4    S    
O4    Zn1   S    
C6    C8    S    
C8    C15   A    
C27   N5    S    
C1    O3    A    
O3    Zn2   S    
C1    C26   S    
C19   C25   A    
C14   C16   A    
C23   H21   S    
C4    H3    S    
C11   H17   S    
O6    Zn2   S    
C12   C27   S    
C17   C19   A    
C3    C4    S    
C12   O4    A    
C8    C13   A    
O5    Zn1   S    
H15   N6    S    
C23   C25   A    
N1    Zn2   S    
C20   C21   A    
C5    O7    A    
C16   C18   A    
C6    O8    A    
C10   H19   S    
C15   C17   A    
C3    N1    D    
C24   H1    S    
H13   N5    S    
C2    C28   S    
H8    N3    S    
C2    H22   S    
H14   N6    S    
O2    Zn2   S    
C7    C14   A    
C17   C21   A    
N2    Zn1   S    
O1    Zn1   S    
H11   N5    S    
C10   C13   A    
C26   N6    S    
