data_mof_unit_37180.cif
_audit_creation_date              2012-12-10T18:07:35-0500
_audit_creation_method            fapswitch 2.2
_symmetry_space_group_name_H-M    P1
_symmetry_Int_Tables_number       1
_space_group_crystal_system       triclinic
_cell_length_a                    11.5409
_cell_length_b                    12.642499
_cell_length_c                    13.297129
_cell_angle_alpha                 83.174485
_cell_angle_beta                  91.074978
_cell_angle_gamma                 102.402161
_cell_volume                      1881.37877433

loop_
_atom_site_label
_atom_site_type_symbol
_atom_type_description
_atom_site_fract_x
_atom_site_fract_y
_atom_site_fract_z
_atom_type_partial_charge
C1    C     C_R   0.473853 0.439994 0.689996 0.878701
C2    C     C_R   0.451562 0.672107 0.896223 0.466485
C3    C     C_R   0.415735 0.585288 0.837967 -0.087893
C4    C     C_R   0.717813 0.500948 0.500081 0.912013
C5    C     C_R   0.500230 0.517652 0.135619 -0.181730
C6    C     C_R   0.554753 0.709037 0.159297 -0.145544
C7    C     C_R   0.443737 0.404335 0.798183 -0.149130
C8    C     C_R   0.307313 0.080266 0.369994 -0.127729
C9    C     C_R   0.649381 0.804455 0.621111 -0.059471
C10   C     C_R   0.679831 0.910820 0.649069 0.329585
C11   C     C_R   0.608893 0.985239 0.614223 0.518714
C12   C     C_R   0.525227 0.598132 0.200198 -0.196634
C13   C     C_R   0.528762 0.961481 0.533007 -0.146433
C14   C     C_R   0.501727 0.852973 0.508371 0.063877
C15   C     C_R   0.471458 0.039787 0.477491 -0.153636
C16   C     C_R   0.515261 0.560786 0.309061 0.875281
C17   C     C_R   0.373006 0.003924 0.413967 -0.068830
C18   C     C_R   0.348698 0.894816 0.391504 0.501323
C19   C     C_R   0.415863 0.823406 0.436090 -0.186853
C20   C     C_R   0.512200 0.153889 0.477681 0.689290
C21   C     C_R   0.342732 0.189419 0.387842 -0.040844
C22   C     C_R   0.282241 0.499363 0.498764 0.880723
C23   C     C_R   0.431210 0.293992 0.837742 -0.085089
C24   C     C_1   0.838865 0.502594 0.499575 -0.156714
C25   C     C_1   0.940912 0.501571 0.498621 0.012818
C26   C     C_1   0.059186 0.499205 0.497621 0.024808
C27   C     C_1   0.161221 0.498040 0.497546 -0.135002
C28   C     C_R   0.541890 0.736975 0.054323 0.501443
C29   C     C_1   0.591283 0.794733 0.223716 0.221150
C30   C     C_3   0.303188 0.839616 0.235239 -0.308192
C31   C     C_1   0.202745 0.049540 0.308514 0.303390
C32   C     C_3   0.697726 0.200765 0.410693 -0.257153
C33   C     C_1   0.712260 0.723322 0.664381 0.331004
C34   C     C_R   0.463544 0.268775 0.937362 -0.283758
C35   C     C_3   0.616850 0.066152 0.763608 -0.205573
C36   C     C_3   0.802353 0.894060 0.789192 -0.351997
C37   C     C_3   0.324608 0.787464 0.900797 -0.237500
C38   C     C_3   0.674169 0.900882 0.015636 -0.325903
C39   C     C_1   0.385438 0.205840 0.778227 0.226454
C40   C     C_3   0.682448 0.355284 0.071003 -0.327989
C41   C     C_1   0.327082 0.595841 0.761243 0.243811
C42   C     C_1   0.282031 0.269518 0.337612 0.283621
C43   C     C_R   0.502889 0.351670 0.998290 0.541379
C44   C     C_R   0.483848 0.459041 0.967024 -0.025495
C45   C     C_R   0.447939 0.483470 0.866455 -0.094712
C46   C     C_R   0.499959 0.542736 0.031464 -0.060065
C47   C     C_R   0.501886 0.652449 0.992191 -0.107392
H1    H     H_    0.398910 0.744297 0.411903 0.211909
H2    H     H_    0.558023 0.987744 0.795176 0.183832
H3    H     H_    0.583780 0.133048 0.791744 0.168983
H4    H     H_    0.708429 0.074222 0.792640 0.190523
H5    H     H_    0.865645 0.840378 0.782933 0.196139
H6    H     H_    0.717507 0.845847 0.824364 0.170589
H7    H     H_    0.844042 0.953948 0.840712 0.178681
H8    H     H_    0.324039 0.776621 0.985078 0.159058
H9    H     H_    0.313812 0.871699 0.875834 0.193114
H10   H     H_    0.247078 0.730511 0.872616 0.143292
H11   H     H_    0.689169 0.966787 0.951884 0.169573
H12   H     H_    0.469891 0.434172 0.167691 0.234530
H13   H     H_    0.738320 0.847630 0.008107 0.139401
H14   H     H_    0.693375 0.942582 0.084631 0.188169
H15   H     H_    0.712009 0.444929 0.050506 0.173384
H16   H     H_    0.710716 0.310773 0.011647 0.166568
H17   H     H_    0.727543 0.333111 0.142357 0.188947
H18   H     H_    0.465598 0.185267 0.966146 0.168328
H19   H     H_    0.336998 0.763212 0.242866 0.160126
H20   H     H_    0.373534 0.910465 0.204331 0.173984
H21   H     H_    0.230454 0.830434 0.179117 0.193338
H22   H     H_    0.790471 0.242150 0.424954 0.197308
H23   H     H_    0.665815 0.247606 0.343432 0.153553
H24   H     H_    0.699010 0.116671 0.394479 0.150845
N1    N     N_R   0.440320 0.222190 0.444690 -0.175164
N2    N     N_R   0.559060 0.776980 0.554780 -0.150559
N3    N     N_1   0.621229 0.863419 0.274938 -0.224497
N4    N     N_1   0.119321 0.025748 0.259532 -0.194375
N5    N     N_1   0.763035 0.658886 0.700770 -0.229826
N6    N     N_1   0.348256 0.135268 0.730632 -0.188527
N7    N     N_1   0.254140 0.605150 0.702088 -0.198502
N8    N     N_1   0.232879 0.332608 0.296098 -0.229401
O1    O     O_R   0.471500 0.366730 0.627160 -0.587568
O2    O     O_3   0.628854 0.199286 0.497607 -0.532817
O3    O     O_3   0.618399 0.082172 0.656729 -0.546173
O4    O     O_3   0.788144 0.951227 0.693427 -0.576638
O5    O     O_3   0.432221 0.774356 0.860038 -0.593742
O6    O     O_3   0.554117 0.845403 0.014191 -0.585642
O7    O     O_3   0.558854 0.324801 0.087505 -0.634316
O8    O     O_R   0.509620 0.544830 0.662520 -0.613436
O9    O     O_R   0.646490 0.410960 0.482310 -0.558875
O10   O     O_R   0.684610 0.589050 0.517670 -0.610850
O11   O     O_R   0.490380 0.455170 0.337480 -0.620730
O12   O     O_R   0.528500 0.633270 0.372840 -0.631333
O13   O     O_R   0.315390 0.410950 0.482330 -0.616500
O14   O     O_R   0.353510 0.589040 0.517690 -0.621784
O15   O     O_3   0.256594 0.855550 0.328369 -0.602420
Zn1   Zn    Zn3+2 0.474550 0.381080 0.476390 1.006799
Zn2   Zn    Zn3+2 0.525450 0.618920 0.523610 0.964093

loop_
_geom_bond_atom_site_label_1
_geom_bond_atom_site_label_2
_ccdc_geom_bond_type
C1    O8    A    
C28   C47   A    
C16   O11   A    
C2    O5    S    
O11   Zn1   S    
C32   O2    S    
C26   C27   T    
C40   H16   S    
C39   N6    T    
C6    C12   A    
C4    C24   S    
C7    C23   A    
C36   O4    S    
C10   O4    S    
C40   H15   S    
C18   C19   A    
C40   O7    S    
C36   H6    S    
O12   Zn2   S    
C38   H11   S    
C37   H9    S    
C6    C28   A    
C12   C16   S    
C35   H2    S    
C37   O5    S    
C9    C10   A    
C30   H20   S    
C36   H5    S    
C38   H14   S    
O9    Zn1   S    
C42   N8    T    
C13   C14   A    
C9    C33   S    
C43   O7    S    
C9    N2    A    
C34   H18   S    
C35   O3    S    
C44   C46   A    
C8    C21   A    
C32   H24   S    
C11   O3    S    
C15   C20   A    
C5    H12   S    
C38   O6    S    
N1    Zn1   S    
C14   N2    A    
C24   C25   T    
C5    C12   A    
C41   N7    T    
C19   H1    S    
C32   H23   S    
C29   N3    T    
C21   N1    A    
C25   C26   S    
C3    C45   A    
O13   Zn1   S    
C43   C44   A    
C33   N5    T    
C31   N4    T    
C23   C34   A    
O8    Zn2   S    
C35   H3    S    
C17   C18   A    
O1    Zn1   S    
C30   H19   S    
C38   H13   S    
O14   Zn2   S    
C22   C27   S    
C13   C15   A    
C35   H4    S    
C18   O15   S    
C22   O14   A    
C7    C45   A    
C44   C45   A    
C4    O10   A    
C15   C17   A    
C46   C47   A    
C3    C41   S    
C1    C7    S    
C8    C31   S    
C14   C19   A    
C34   C43   A    
C32   H22   S    
C4    O9    A    
C2    C47   A    
C5    C46   A    
C8    C17   A    
C40   H17   S    
O10   Zn2   S    
C2    C3    A    
C30   O15   S    
C11   C13   A    
C23   C39   S    
C37   H10   S    
C36   H7    S    
C10   C11   A    
C21   C42   S    
C37   H8    S    
C6    C29   S    
C16   O12   A    
C28   O6    S    
C1    O1    A    
C22   O13   A    
C20   N1    A    
N2    Zn2   S    
C20   O2    S    
C30   H21   S    
