data_mof_unit_38035.cif
_audit_creation_date              2012-10-26T20:25:58-0400
_audit_creation_method            fapswitch 2.2
_symmetry_space_group_name_H-M    P1
_symmetry_Int_Tables_number       1
_space_group_crystal_system       triclinic
_cell_length_a                    19.353403
_cell_length_b                    15.896815
_cell_length_c                    14.640348
_cell_angle_alpha                 89.788653
_cell_angle_beta                  89.128224
_cell_angle_gamma                 90.265326
_cell_volume                      4503.61089596

loop_
_atom_site_label
_atom_site_type_symbol
_atom_type_description
_atom_site_fract_x
_atom_site_fract_y
_atom_site_fract_z
_atom_type_partial_charge
C1    C     C_R   0.500727 0.339668 0.500075 0.524593
C2    C     C_3   0.482211 0.972917 0.419928 0.273041
C3    C     C_3   0.506747 0.084162 0.499817 -0.007518
C4    C     C_3   0.506063 0.916188 0.499462 0.034050
C5    C     C_1   0.505112 0.175339 0.499844 0.008774
C6    C     C_1   0.504404 0.824932 0.499436 0.049022
C7    C     C_3   0.508682 0.569750 0.969430 0.189548
C8    C     C_3   0.497049 0.411312 0.031003 0.241464
C9    C     C_3   0.449298 0.535895 0.031043 0.197865
C10   C     C_3   0.555800 0.444543 0.967692 0.237615
C11   C     C_3   0.562021 0.523554 0.028899 0.226363
C12   C     C_R   0.500385 0.660394 0.499863 0.519465
C13   C     C_3   0.443825 0.456927 0.970453 0.237235
C14   C     C_3   0.502751 0.490677 0.092857 -0.084577
C15   C     C_3   0.502592 0.491004 0.906831 -0.078011
C16   C     C_R   0.367085 0.502309 0.500588 0.566310
C17   C     C_R   0.633062 0.501728 0.499522 0.535940
C18   C     C_1   0.501351 0.496727 0.194607 0.180695
C19   C     C_1   0.500436 0.496560 0.805305 0.173964
C20   C     C_R   0.255115 0.548069 0.575102 0.185444
C21   C     C_R   0.748826 0.493504 0.419555 0.186084
C22   C     C_R   0.182874 0.552376 0.574871 0.252284
C23   C     C_3   0.570993 0.972464 0.510769 0.180798
C24   C     C_R   0.818704 0.516086 0.414702 0.266128
C25   C     C_R   0.145885 0.524156 0.498717 -0.043239
C26   C     C_R   0.853759 0.538150 0.495164 -0.065818
C27   C     C_R   0.181561 0.491484 0.422265 0.199959
C28   C     C_R   0.815032 0.555277 0.575527 0.222354
C29   C     C_R   0.253495 0.478983 0.426354 0.203174
C30   C     C_R   0.742718 0.547654 0.575365 0.219542
C31   C     C_R   0.291007 0.510056 0.501043 -0.067379
C32   C     C_R   0.709168 0.512440 0.498775 -0.089975
C33   C     C_R   0.930197 0.537346 0.497002 0.363157
C34   C     C_3   0.442215 0.027847 0.488830 0.202500
C35   C     C_R   0.070065 0.529639 0.498627 0.377679
C36   C     C_3   0.339926 0.389580 0.008913 0.051237
C37   C     C_3   0.323174 0.296986 0.991550 -0.244941
C38   C     C_3   0.277667 0.260204 0.067887 -0.496237
C39   C     C_3   0.667835 0.582197 0.983217 0.038513
C40   C     C_3   0.735758 0.533217 0.982291 -0.269305
C41   C     C_3   0.778103 0.551373 0.895551 -0.470658
C42   C     C_3   0.144202 0.673416 0.641201 0.034811
C43   C     C_3   0.134895 0.711702 0.736106 -0.244715
C44   C     C_3   0.131128 0.807470 0.731558 -0.491062
C45   C     C_3   0.547113 0.028422 0.431453 0.176400
C46   C     C_3   0.856593 0.584775 0.285928 0.026658
C47   C     C_3   0.788553 0.604570 0.237922 -0.244797
C48   C     C_3   0.796498 0.680205 0.174042 -0.500167
C49   C     C_3   0.157436 0.517350 0.272623 0.028980
C50   C     C_3   0.113286 0.488849 0.192731 -0.251373
C51   C     C_3   0.128597 0.541060 0.106997 -0.497743
C52   C     C_3   0.866287 0.658953 0.659795 0.022609
C53   C     C_3   0.921768 0.671265 0.731731 -0.249171
C54   C     C_3   0.939047 0.764256 0.743964 -0.499833
C55   C     C_3   0.269892 0.350589 0.357733 0.035257
C56   C     C_3   0.465960 0.972164 0.568072 0.192401
C57   C     C_3   0.334997 0.298836 0.340608 -0.274688
C58   C     C_3   0.318640 0.204985 0.338725 -0.479094
C59   C     C_3   0.679385 0.652483 0.641229 0.026947
C60   C     C_3   0.652700 0.684840 0.733274 -0.247342
C61   C     C_3   0.623209 0.773299 0.724814 -0.465378
C62   C     C_3   0.453478 0.004915 0.270431 0.042424
C63   C     C_3   0.388522 0.995202 0.213303 -0.258561
C64   C     C_3   0.386560 0.060609 0.136686 -0.500163
C65   C     C_3   0.579491 0.001918 0.720260 0.015025
C66   C     C_3   0.599472 0.043308 0.810195 -0.266316
C67   C     C_1   0.503032 0.250497 0.500076 -0.032501
C68   C     C_3   0.631873 0.980238 0.875380 -0.495979
C69   C     C_3   0.351906 0.614705 0.999503 0.023842
C70   C     C_3   0.301924 0.678508 0.041245 -0.273154
C71   C     C_3   0.251257 0.710977 0.970611 -0.492680
C72   C     C_3   0.627939 0.380716 0.857545 -0.000059
C73   C     C_3   0.584101 0.308640 0.819576 -0.254541
C74   C     C_3   0.607176 0.286057 0.722668 -0.455917
C75   C     C_3   0.521593 0.711201 0.004941 0.026794
C76   C     C_3   0.490681 0.795023 0.975287 -0.266099
C77   C     C_3   0.503662 0.863536 0.045775 -0.496019
C78   C     C_1   0.502469 0.749687 0.499532 -0.009162
C79   C     C_3   0.507455 0.301556 0.138076 -0.005756
C80   C     C_3   0.586023 0.303456 0.151191 -0.251019
C81   C     C_3   0.605125 0.270089 0.245249 -0.465694
C82   C     C_3   0.530791 0.027758 0.579722 0.219621
Cu1   Cu    Cu3+1 0.500010 0.500000 0.590220 0.998517
Cu2   Cu    Cu3+1 0.499990 0.500000 0.409780 1.007172
H1    H     H_    0.329520 0.614039 0.624514 0.330510
H2    H     H_    0.680472 0.649979 0.990703 0.122280
H3    H     H_    0.611339 0.264037 0.097934 0.196374
H4    H     H_    0.606055 0.368733 0.144075 0.208312
H5    H     H_    0.582276 0.310370 0.299417 0.179331
H6    H     H_    0.662177 0.270719 0.252142 0.173335
H7    H     H_    0.586140 0.204528 0.254430 0.188618
H8    H     H_    0.642852 0.575318 0.915468 0.140812
H9    H     H_    0.766721 0.551316 0.042039 0.158914
H10   H     H_    0.725477 0.464695 0.987119 0.217922
H11   H     H_    0.749490 0.530527 0.834390 0.204700
H12   H     H_    0.827743 0.516762 0.897911 0.164072
H13   H     H_    0.789461 0.619754 0.889693 0.139063
H14   H     H_    0.098769 0.689395 0.598916 0.123751
H15   H     H_    0.191497 0.701956 0.608915 0.142550
H16   H     H_    0.086856 0.686535 0.768675 0.164982
H17   H     H_    0.688639 0.409442 0.368203 0.330393
H18   H     H_    0.179250 0.693500 0.779146 0.193607
H19   H     H_    0.180234 0.833836 0.703225 0.166726
H20   H     H_    0.122692 0.832925 0.801347 0.145624
H21   H     H_    0.087711 0.827481 0.687922 0.147722
H22   H     H_    0.898560 0.580640 0.233515 0.160385
H23   H     H_    0.870640 0.637839 0.331858 0.114556
H24   H     H_    0.771750 0.548799 0.198550 0.223830
H25   H     H_    0.747739 0.619221 0.289512 0.181895
H26   H     H_    0.812440 0.736682 0.213046 0.150248
H27   H     H_    0.746322 0.693374 0.141225 0.164492
H28   H     H_    0.290789 0.425395 0.009423 0.134032
H29   H     H_    0.835741 0.667265 0.119807 0.139051
H30   H     H_    0.212644 0.515618 0.250443 0.176497
H31   H     H_    0.143394 0.583343 0.290276 0.133107
H32   H     H_    0.124001 0.421606 0.177715 0.171061
H33   H     H_    0.057699 0.495007 0.211715 0.197298
H34   H     H_    0.119445 0.608854 0.120486 0.147275
H35   H     H_    0.094189 0.520532 0.051242 0.157767
H36   H     H_    0.183073 0.532079 0.084224 0.145207
H37   H     H_    0.820723 0.696770 0.680376 0.137124
H38   H     H_    0.886977 0.682786 0.592947 0.108925
H39   H     H_    0.362301 0.396176 0.078385 0.150397
H40   H     H_    0.903194 0.645020 0.798186 0.171027
H41   H     H_    0.969309 0.637051 0.710711 0.199869
H42   H     H_    0.959546 0.791318 0.678907 0.148959
H43   H     H_    0.978710 0.771388 0.797384 0.146890
H44   H     H_    0.892236 0.799538 0.765728 0.146620
H45   H     H_    0.232769 0.338446 0.302032 0.171099
H46   H     H_    0.245807 0.328846 0.423698 0.130837
H47   H     H_    0.359578 0.317970 0.274602 0.161483
H48   H     H_    0.372127 0.311177 0.396081 0.188607
H49   H     H_    0.294198 0.184800 0.404378 0.186007
H50   H     H_    0.295940 0.291035 0.925567 0.176481
H51   H     H_    0.367268 0.169525 0.328692 0.173735
H52   H     H_    0.283280 0.190141 0.281926 0.142554
H53   H     H_    0.636009 0.651816 0.592554 0.157701
H54   H     H_    0.719034 0.697142 0.613693 0.100261
H55   H     H_    0.611723 0.641762 0.760124 0.196295
H56   H     H_    0.695758 0.685863 0.782621 0.149334
H57   H     H_    0.663360 0.817494 0.698147 0.152168
H58   H     H_    0.605672 0.795303 0.793075 0.142383
H59   H     H_    0.578396 0.773425 0.678357 0.177827
H60   H     H_    0.609606 0.008925 0.331136 0.336946
H61   H     H_    0.371830 0.260353 0.986824 0.207622
H62   H     H_    0.407343 0.991860 0.672330 0.329648
H63   H     H_    0.668119 0.992042 0.522972 0.343535
H64   H     H_    0.364333 0.091696 0.530817 0.317984
H65   H     H_    0.499854 0.997516 0.225485 0.145368
H66   H     H_    0.453936 0.069999 0.298637 0.152341
H67   H     H_    0.386954 0.931214 0.183133 0.168912
H68   H     H_    0.342108 0.002864 0.258117 0.196683
H69   H     H_    0.385489 0.125148 0.165370 0.143394
H70   H     H_    0.339375 0.051062 0.095733 0.150189
H71   H     H_    0.432558 0.054479 0.090991 0.148166
H72   H     H_    0.305078 0.263138 0.133783 0.145154
H73   H     H_    0.626346 0.972307 0.689926 0.170773
H74   H     H_    0.539589 0.952746 0.734712 0.167478
H75   H     H_    0.637121 0.094972 0.796176 0.175711
H76   H     H_    0.552713 0.070817 0.843245 0.171964
H77   H     H_    0.594932 0.928566 0.891196 0.144084
H78   H     H_    0.645288 0.012209 0.940081 0.152386
H79   H     H_    0.679685 0.953456 0.844511 0.147385
H80   H     H_    0.321458 0.563103 0.968731 0.171918
H81   H     H_    0.382529 0.646585 0.944518 0.181839
H82   H     H_    0.272422 0.648567 0.098517 0.173946
H83   H     H_    0.265653 0.193377 0.052778 0.148399
H84   H     H_    0.331714 0.732375 0.069001 0.168990
H85   H     H_    0.279571 0.741788 0.912904 0.160210
H86   H     H_    0.216212 0.757739 0.002835 0.145343
H87   H     H_    0.219528 0.658279 0.944121 0.156745
H88   H     H_    0.683146 0.362476 0.851256 0.156442
H89   H     H_    0.623576 0.439663 0.817179 0.135135
H90   H     H_    0.589275 0.252238 0.864031 0.181699
H91   H     H_    0.528764 0.326620 0.819410 0.188069
H92   H     H_    0.606880 0.342664 0.678094 0.190410
H93   H     H_    0.571501 0.238229 0.694409 0.197503
H94   H     H_    0.228447 0.295589 0.073864 0.150590
H95   H     H_    0.660194 0.259615 0.722982 0.145503
H96   H     H_    0.577365 0.720567 0.018118 0.147770
H97   H     H_    0.495654 0.691669 0.070179 0.179326
H98   H     H_    0.513753 0.814528 0.908608 0.171042
H99   H     H_    0.434099 0.787539 0.966360 0.166310
H100  H     H_    0.480146 0.845509 0.112723 0.166055
H101  H     H_    0.480205 0.923300 0.022480 0.146935
H102  H     H_    0.560017 0.873760 0.054197 0.146345
H103  H     H_    0.489340 0.235848 0.149245 0.142984
H104  H     H_    0.479224 0.339237 0.189941 0.122911
N1    N     N_R   0.036842 0.555305 0.422737 -0.219699
N2    N     N_R   0.963590 0.511732 0.573027 -0.178569
N3    N     N_R   0.968291 0.558991 0.422003 -0.225564
N4    N     N_R   0.032241 0.508208 0.573980 -0.184650
N5    N     N_1   0.499980 0.500000 0.274190 -0.182536
N6    N     N_1   0.500020 0.500000 0.725810 -0.186702
O1    O     O_R   0.500010 0.379080 0.576170 -0.498526
O2    O     O_3   0.721404 0.452922 0.345159 -0.657725
O3    O     O_3   0.382529 0.420724 0.936689 -0.558778
O4    O     O_3   0.625621 0.557102 0.058890 -0.560777
O5    O     O_3   0.148614 0.585022 0.650336 -0.512360
O6    O     O_3   0.853727 0.506253 0.332353 -0.500978
O7    O     O_3   0.144959 0.462945 0.347799 -0.547195
O8    O     O_3   0.847542 0.572951 0.657021 -0.520685
O9    O     O_3   0.287928 0.437000 0.356591 -0.549905
O10   O     O_3   0.706098 0.570459 0.653295 -0.540556
O11   O     O_3   0.590081 0.059384 0.361348 -0.727708
O12   O     O_R   0.499990 0.620920 0.423830 -0.483121
O13   O     O_3   0.423178 0.941436 0.638505 -0.693046
O14   O     O_3   0.638004 0.941543 0.520268 -0.725402
O15   O     O_3   0.374744 0.056276 0.476812 -0.693480
O16   O     O_3   0.454261 0.941321 0.338297 -0.549116
O17   O     O_3   0.554122 0.064413 0.661332 -0.582246
O18   O     O_3   0.394270 0.582913 0.069120 -0.581074
O19   O     O_3   0.613726 0.392422 0.951176 -0.572673
O20   O     O_3   0.513991 0.652228 0.933697 -0.593427
O21   O     O_3   0.489436 0.323991 0.048327 -0.566029
O22   O     O_R   0.500000 0.379080 0.423800 -0.522075
O23   O     O_R   0.500000 0.620920 0.576200 -0.507941
O24   O     O_R   0.400150 0.499990 0.576210 -0.474866
O25   O     O_R   0.599850 0.500010 0.423790 -0.485214
O26   O     O_R   0.400140 0.499990 0.423840 -0.443501
O27   O     O_R   0.599860 0.500010 0.576160 -0.472693
O28   O     O_3   0.288578 0.582978 0.648441 -0.647819

loop_
_geom_bond_atom_site_label_1
_geom_bond_atom_site_label_2
_ccdc_geom_bond_type
C48   H26   S    
C75   C76   S    
C34   C56   S    
C8    C13   S    
C29   O9    S    
C23   C82   S    
C80   C81   S    
C23   O14   S    
C27   C29   A    
C50   H33   S    
C77   H101  S    
C73   C74   S    
C14   C18   S    
C57   H48   S    
C66   C68   S    
C69   H80   S    
C38   H72   S    
C40   H9    S    
C5    C67   T    
C8    O21   S    
C77   H100  S    
C66   H76   S    
C44   H20   S    
C68   H77   S    
C16   C31   S    
C7    C11   S    
C54   H42   S    
C64   H71   S    
C62   C63   S    
C79   H103  S    
C23   C45   S    
C72   H88   S    
C36   C37   S    
C62   H65   S    
C24   C26   A    
C82   O17   S    
C80   H3    S    
C10   C15   S    
C70   H82   S    
Cu1   O23   S    
C11   C14   S    
C6    C78   T    
C41   H12   S    
C59   H53   S    
C9    O18   S    
C81   H7    S    
C64   H70   S    
C51   H34   S    
C73   H90   S    
N1    N3    A    
C9    C13   S    
Cu2   O26   S    
C52   H38   S    
C59   O10   S    
C61   H59   S    
C74   H95   S    
Cu1   Cu2   S    
C45   O11   S    
C55   H45   S    
C22   C25   A    
C12   C78   S    
C36   H28   S    
C42   H14   S    
C51   H35   S    
C71   H85   S    
C16   O24   A    
C70   C71   S    
C76   H99   S    
C74   H93   S    
H1    O28   S    
C52   O8    S    
C17   O25   A    
H17   O2    S    
C53   H41   S    
C81   H5    S    
C2    C34   S    
C79   O21   S    
C72   O19   S    
C59   C60   S    
C35   N1    A    
C4    C56   S    
C18   N5    T    
C77   H102  S    
C69   C70   S    
C1    O22   A    
C76   H98   S    
C66   H75   S    
C44   H19   S    
C50   C51   S    
C16   O26   A    
C76   C77   S    
C2    C45   S    
C38   H83   S    
C21   C32   A    
C49   O7    S    
C2    O16   S    
C79   H104  S    
C22   O5    S    
C36   H39   S    
C43   H16   S    
C65   H73   S    
C40   H10   S    
C39   C40   S    
C4    C23   S    
C72   C73   S    
C8    C14   S    
C3    C34   S    
C58   H52   S    
C53   C54   S    
C54   H44   S    
C64   H69   S    
C3    C45   S    
C79   C80   S    
C33   N2    A    
C12   O12   A    
C73   H91   S    
C15   C19   S    
C9    C14   S    
C74   H92   S    
C37   C38   S    
C34   O15   S    
C70   H84   S    
C52   H37   S    
C26   C33   S    
C46   O6    S    
C47   C48   S    
Cu2   N5    S    
C55   H46   S    
C55   O9    S    
C46   H23   S    
C3    C82   S    
C43   H18   S    
C51   H36   S    
C62   O16   S    
C71   H86   S    
C69   O18   S    
C72   H89   S    
C36   O3    S    
Cu2   O25   S    
C75   H96   S    
C63   H67   S    
C13   O3    S    
C60   H56   S    
C81   H6    S    
C4    C6    S    
C40   C41   S    
C49   H31   S    
C39   O4    S    
C25   C35   S    
C65   C66   S    
C13   C15   S    
C43   C44   S    
C49   C50   S    
C41   H13   S    
C42   C43   S    
C75   H97   S    
C39   H8    S    
C52   C53   S    
C44   H21   S    
H60   O11   S    
C68   H79   S    
C61   H57   S    
C7    C9    S    
C46   C47   S    
C42   O5    S    
N2    N4    A    
C62   H66   S    
C38   H94   S    
C1    O1    A    
C27   O7    S    
C57   H47   S    
C8    C10   S    
C20   C22   A    
H62   O13   S    
C3    C5    S    
C53   H40   S    
C12   O23   A    
Cu1   O24   S    
C10   O19   S    
C56   C82   S    
C68   H78   S    
C58   H51   S    
C25   C27   A    
C30   O10   S    
C54   H43   S    
C75   O20   S    
C26   C28   A    
C59   H54   S    
C33   N3    A    
C28   O8    S    
C71   H87   S    
Cu1   N6    S    
C55   C57   S    
C58   H49   S    
C11   O4    S    
C28   C30   A    
C80   H4    S    
C47   H25   S    
C42   H15   S    
C30   C32   A    
C57   C58   S    
C41   H11   S    
C56   O13   S    
C35   N4    A    
C2    C4    S    
C46   H22   S    
C7    C15   S    
C1    C67   S    
C49   H30   S    
C50   H32   S    
C21   O2    S    
Cu1   O1    S    
H63   O14   S    
C69   H81   S    
C63   H68   S    
C65   O17   S    
C7    O20   S    
C17   O27   A    
C10   C11   S    
C60   H55   S    
C63   C64   S    
Cu1   O27   S    
Cu2   O12   S    
C61   H58   S    
C48   H27   S    
C24   O6    S    
C19   N6    T    
C29   C31   A    
C47   H24   S    
C21   C24   A    
C17   C32   S    
C20   O28   S    
C37   H50   S    
C60   C61   S    
C39   H2    S    
C37   H61   S    
H64   O15   S    
Cu2   O22   S    
C65   H74   S    
C48   H29   S    
C20   C31   A    
