data_mof_unit_27092.cif
_audit_creation_date              2012-12-10T17:46:31-0500
_audit_creation_method            fapswitch 2.2
_symmetry_space_group_name_H-M    P1
_symmetry_Int_Tables_number       1
_space_group_crystal_system       triclinic
_cell_length_a                    20.790845
_cell_length_b                    21.168792
_cell_length_c                    14.730677
_cell_angle_alpha                 89.882204
_cell_angle_beta                  127.719177
_cell_angle_gamma                 90.03707
_cell_volume                      5128.33853587

loop_
_atom_site_label
_atom_site_type_symbol
_atom_type_description
_atom_site_fract_x
_atom_site_fract_y
_atom_site_fract_z
_atom_type_partial_charge
C1    C     C_R   0.604058 0.914735 0.633086 0.805473
C2    C     C_R   0.395943 0.085266 0.366916 0.805467
C3    C     C_R   0.396350 0.914421 0.367515 0.804107
C4    C     C_R   0.603648 0.085580 0.632482 0.804112
C5    C     C_R   0.102059 0.413090 0.630614 0.805233
C6    C     C_R   0.897941 0.586911 0.369386 0.805233
C7    C     C_R   0.897453 0.413530 0.368892 0.803878
C8    C     C_R   0.102543 0.586473 0.631103 0.803861
C9    C     C_R   0.300905 0.795520 0.889867 -0.248103
C10   C     C_R   0.698983 0.204552 0.110009 -0.248069
C11   C     C_R   0.710258 0.802989 0.122120 -0.181726
C12   C     C_R   0.289667 0.196971 0.877812 -0.181674
C13   C     C_R   0.846278 0.260413 0.944607 -0.253603
C14   C     C_R   0.153721 0.739581 0.055399 -0.253607
C15   C     C_R   0.150097 0.258025 0.051912 -0.219312
C16   C     C_R   0.849978 0.742047 0.948194 -0.219317
C17   C     C_R   0.320884 0.003378 0.664084 0.416141
C18   C     C_R   0.679120 0.996614 0.335919 0.416151
C19   C     C_R   0.821852 0.486724 0.664510 0.417709
C20   C     C_R   0.178155 0.513261 0.335492 0.417723
C21   C     C_R   0.352221 0.002542 0.602667 -0.055852
C22   C     C_R   0.647779 0.997448 0.397335 -0.055906
C23   C     C_R   0.852571 0.493779 0.602842 -0.055229
C24   C     C_R   0.147430 0.506215 0.397160 -0.055329
C25   C     C_R   0.487034 0.998170 0.774753 0.005007
C26   C     C_R   0.512968 0.001833 0.225248 0.005046
C27   C     C_R   0.987008 0.502225 0.774626 0.003509
C28   C     C_R   0.012992 0.497767 0.225375 0.003528
C29   C     C_R   0.460317 0.999374 0.843963 -0.124442
C30   C     C_R   0.539686 0.000636 0.156040 -0.124469
C31   C     C_R   0.960614 0.498241 0.844054 -0.126237
C32   C     C_R   0.039385 0.501743 0.155947 -0.126242
C33   C     C_R   0.375136 0.004107 0.786048 -0.061559
C34   C     C_R   0.624866 0.995902 0.213956 -0.061549
C35   C     C_R   0.875859 0.489911 0.786360 -0.062360
C36   C     C_R   0.124141 0.510072 0.213642 -0.062357
C37   C     C_R   0.515187 0.997232 0.967780 0.043358
C38   C     C_R   0.484818 0.002784 0.032222 0.043404
C39   C     C_R   0.015282 0.502017 0.967784 0.035693
C40   C     C_R   0.984715 0.497961 0.032216 0.035727
C41   C     C_R   0.400484 0.010866 0.970894 -0.340037
C42   C     C_R   0.599524 0.989168 0.029110 -0.340036
C43   C     C_R   0.900420 0.489585 0.970969 -0.322437
C44   C     C_R   0.099574 0.510393 0.029028 -0.322456
C45   C     C_R   0.345986 0.009302 0.850884 0.504089
C46   C     C_R   0.654016 0.990729 0.149116 0.504178
C47   C     C_R   0.847063 0.483701 0.851483 0.519040
C48   C     C_R   0.152931 0.516282 0.148510 0.519031
C49   C     C_R   0.666272 0.131645 0.711337 -0.051587
C50   C     C_R   0.333720 0.868360 0.288652 -0.051591
C51   C     C_R   0.332012 0.130270 0.286452 -0.057249
C52   C     C_R   0.667998 0.869739 0.713563 -0.057256
C53   C     C_R   0.157090 0.638993 0.699977 -0.049700
C54   C     C_R   0.842886 0.361025 0.299995 -0.049689
C55   C     C_R   0.845502 0.641001 0.302819 -0.058929
C56   C     C_R   0.154494 0.358997 0.697177 -0.058926
C57   C     C_R   0.781802 0.197224 0.773338 -0.207862
C58   C     C_R   0.218222 0.802751 0.226694 -0.207846
C59   C     C_R   0.216774 0.196051 0.225400 -0.186922
C60   C     C_R   0.783298 0.804014 0.774698 -0.186925
C61   C     C_R   0.250723 0.721290 0.735721 -0.203060
C62   C     C_R   0.749185 0.278769 0.264177 -0.203048
C63   C     C_R   0.757278 0.726585 0.272999 -0.181505
C64   C     C_R   0.242660 0.273378 0.726940 -0.181501
C65   C     C_R   0.722047 0.154448 0.695500 -0.194550
C66   C     C_R   0.277977 0.845528 0.304529 -0.194525
C67   C     C_R   0.277577 0.154030 0.304099 -0.186601
C68   C     C_R   0.722476 0.846016 0.695972 -0.186621
C69   C     C_R   0.202795 0.669393 0.672082 -0.194207
C70   C     C_R   0.797144 0.330646 0.327851 -0.194170
C71   C     C_R   0.802200 0.672793 0.333333 -0.184804
C72   C     C_R   0.197758 0.327180 0.666619 -0.184834
C73   C     C_R   0.671350 0.151426 0.805911 -0.259575
C74   C     C_R   0.328606 0.848608 0.194033 -0.259582
C75   C     C_R   0.324022 0.147846 0.188533 -0.253630
C76   C     C_R   0.675960 0.852140 0.811450 -0.253602
C77   C     C_R   0.159916 0.660773 0.791749 -0.253365
C78   C     C_R   0.840063 0.339245 0.208227 -0.253436
C79   C     C_R   0.843347 0.663386 0.211776 -0.245315
C80   C     C_R   0.156674 0.336631 0.788250 -0.245286
C81   C     C_R   0.732830 0.192573 0.887916 0.089634
C82   C     C_R   0.267131 0.807454 0.112040 0.089629
C83   C     C_R   0.261690 0.188530 0.106127 0.092440
C84   C     C_R   0.738311 0.811480 0.893888 0.092444
C85   C     C_R   0.204578 0.714726 0.853663 0.091338
C86   C     C_R   0.795369 0.285310 0.146278 0.091327
C87   C     C_R   0.801574 0.718986 0.153020 0.088348
C88   C     C_R   0.198423 0.281020 0.846987 0.088348
C89   C     C_R   0.787229 0.216792 0.868738 0.170810
C90   C     C_R   0.212766 0.783207 0.131259 0.170821
C91   C     C_R   0.209150 0.214157 0.127590 0.165440
C92   C     C_R   0.790898 0.785892 0.872482 0.165445
C93   C     C_R   0.252233 0.743986 0.826419 0.172172
C94   C     C_R   0.747680 0.256070 0.173485 0.172163
C95   C     C_R   0.756265 0.749708 0.182814 0.149810
C96   C     C_R   0.243689 0.250268 0.817146 0.149772
C97   C     C_R   0.739947 0.211742 0.986191 0.071055
C98   C     C_R   0.259992 0.788300 0.013740 0.071071
C99   C     C_R   0.252530 0.206476 0.005747 0.056702
C100  C     C_R   0.747452 0.793523 0.994247 0.056729
C101  C     C_R   0.204598 0.739302 0.943446 0.068123
C102  C     C_R   0.795355 0.260730 0.056502 0.068080
C103  C     C_R   0.801625 0.743574 0.063230 0.068425
C104  C     C_R   0.198386 0.256447 0.936799 0.068416
C105  C     C_R   0.305402 0.817121 0.982416 -0.236093
C106  C     C_R   0.694502 0.182942 0.017478 -0.236104
C107  C     C_R   0.704961 0.824195 0.028543 -0.202864
C108  C     C_R   0.294975 0.175775 0.971402 -0.202882
C109  C     C_R   0.849968 0.282589 0.036192 -0.242024
C110  C     C_R   0.150007 0.717425 0.963784 -0.242093
C111  C     C_R   0.145298 0.279552 0.958939 -0.214291
C112  C     C_R   0.854758 0.720505 0.041146 -0.214297
Cu1   Cu    Cu3+1 0.526640 1.000000 0.436960 0.934158
Cu2   Cu    Cu3+1 0.473360 1.000000 0.563040 0.934160
Cu3   Cu    Cu3+1 0.026640 0.500000 0.436960 0.933577
Cu4   Cu    Cu3+1 0.973360 0.500000 0.563040 0.933597
H1    H     H_    0.336554 0.818982 0.868646 0.140438
H2    H     H_    0.663305 0.181107 0.131200 0.140465
H3    H     H_    0.676788 0.827781 0.145645 0.158580
H4    H     H_    0.323104 0.172158 0.854251 0.158645
H5    H     H_    0.889107 0.278476 0.931965 0.141049
H6    H     H_    0.110915 0.721498 0.068071 0.141061
H7    H     H_    0.108480 0.277006 0.066103 0.143156
H8    H     H_    0.891630 0.723096 0.934049 0.143146
H9    H     H_    0.374194 0.019676 0.013807 0.139357
H10   H     H_    0.625830 0.980391 0.986209 0.139449
H11   H     H_    0.872843 0.487261 0.013231 0.145461
H12   H     H_    0.127151 0.512729 0.986768 0.145531
H13   H     H_    0.374772 0.864822 0.187684 0.154724
H14   H     H_    0.625154 0.135240 0.812219 0.154733
H15   H     H_    0.631133 0.869300 0.819918 0.149753
H16   H     H_    0.368814 0.130653 0.180019 0.149743
H17   H     H_    0.872194 0.366034 0.185239 0.146144
H18   H     H_    0.127816 0.633970 0.814770 0.146147
H19   H     H_    0.126520 0.364264 0.813449 0.152174
H20   H     H_    0.873536 0.635775 0.186611 0.152188
H21   H     H_    0.280755 0.860430 0.377159 0.148585
H22   H     H_    0.719296 0.139524 0.622903 0.148594
H23   H     H_    0.717723 0.859467 0.621087 0.160640
H24   H     H_    0.282353 0.140598 0.379010 0.160650
H25   H     H_    0.798587 0.346782 0.398812 0.147225
H26   H     H_    0.201347 0.653260 0.601115 0.147247
H27   H     H_    0.196525 0.343577 0.595877 0.161297
H28   H     H_    0.803413 0.656382 0.404054 0.161305
H29   H     H_    0.286318 0.743910 0.713698 0.128932
H30   H     H_    0.713561 0.256166 0.286169 0.128945
H31   H     H_    0.723513 0.750252 0.297047 0.141556
H32   H     H_    0.276393 0.249689 0.702857 0.141555
H33   H     H_    0.823734 0.215112 0.758894 0.129751
H34   H     H_    0.176316 0.784842 0.241170 0.129747
H35   H     H_    0.176114 0.214841 0.241484 0.138885
H36   H     H_    0.823995 0.785254 0.758659 0.138887
H37   H     H_    0.343263 0.857996 0.025435 0.141816
H38   H     H_    0.656625 0.142075 0.974444 0.141818
H39   H     H_    0.668832 0.866047 0.986706 0.145201
H40   H     H_    0.331075 0.133907 0.013210 0.145199
H41   H     H_    0.898133 0.315679 0.091532 0.148227
H42   H     H_    0.101845 0.684331 0.908446 0.148219
H43   H     H_    0.097518 0.313099 0.903856 0.142712
H44   H     H_    0.902559 0.686978 0.096259 0.142703
H45   H     H_    0.449604 0.002731 0.188434 0.134181
H46   H     H_    0.550396 0.997269 0.811564 0.134210
H47   H     H_    0.949983 0.493443 0.189123 0.137302
H48   H     H_    0.050017 0.506549 0.810880 0.137306
H49   H     H_    0.688504 0.995281 0.490084 0.142214
H50   H     H_    0.311487 0.004692 0.509916 0.142282
H51   H     H_    0.188182 0.506663 0.489953 0.143861
H52   H     H_    0.811812 0.493325 0.510049 0.143918
N1    N     N_R   0.433280 1.000000 0.657760 -0.200393
N2    N     N_R   0.566720 1.000000 0.342240 -0.200367
N3    N     N_R   0.933280 0.500000 0.657760 -0.201774
N4    N     N_R   0.066720 0.500000 0.342240 -0.201749
O1    O     O_R   0.600040 0.935040 0.546740 -0.583376
O2    O     O_R   0.399960 0.064960 0.453260 -0.583373
O3    O     O_R   0.399960 0.935040 0.453260 -0.585939
O4    O     O_R   0.600040 0.064960 0.546740 -0.585936
O5    O     O_R   0.100040 0.435040 0.546740 -0.580687
O6    O     O_R   0.899960 0.564960 0.453260 -0.580682
O7    O     O_R   0.899960 0.435040 0.453260 -0.588907
O8    O     O_R   0.100040 0.564960 0.546740 -0.588906
O9    O     O_R   0.555010 0.935070 0.653220 -0.587474
O10   O     O_R   0.444990 0.064930 0.346780 -0.587476
O11   O     O_R   0.444990 0.935070 0.346780 -0.585166
O12   O     O_R   0.555010 0.064930 0.653220 -0.585172
O13   O     O_R   0.055010 0.435070 0.653220 -0.585990
O14   O     O_R   0.944990 0.564930 0.346780 -0.585997
O15   O     O_R   0.944990 0.435070 0.346780 -0.587039
O16   O     O_R   0.055010 0.564930 0.653220 -0.587027
O17   O     O_3   0.264144 0.019548 0.797014 -0.530520
C113  C     C_3   0.231046 0.965973 0.811995 -0.248980
H53   H     H_    0.253063 0.961804 0.902079 0.139919
H54   H     H_    0.244213 0.921847 0.785132 0.147983
H55   H     H_    0.164012 0.971384 0.756763 0.194193
O18   O     O_3   0.735860 0.980532 0.202970 -0.530516
C114  C     C_3   0.768933 0.034205 0.188193 -0.248794
H56   H     H_    0.755787 0.078252 0.215283 0.148021
H57   H     H_    0.746878 0.038532 0.098102 0.139914
H58   H     H_    0.835957 0.028793 0.243363 0.194209
O19   O     O_3   0.764952 0.475748 0.798038 -0.524018
C115  C     C_3   0.751458 0.413424 0.817233 -0.254136
H59   H     H_    0.774718 0.406787 0.907536 0.148895
H60   H     H_    0.778867 0.377756 0.794541 0.140470
H61   H     H_    0.684991 0.404689 0.761359 0.196457
O20   O     O_3   0.235029 0.524256 0.201919 -0.524032
C116  C     C_3   0.248489 0.586640 0.182947 -0.253913
H62   H     H_    0.221388 0.622199 0.206287 0.140730
H63   H     H_    0.224870 0.593506 0.092532 0.148712
H64   H     H_    0.314962 0.595305 0.238434 0.196424
O21   O     O_3   0.237619 0.007764 0.604763 -0.527336
C117  C     C_3   0.200671 0.950632 0.545812 -0.302396
H65   H     H_    0.231209 0.908636 0.602751 0.135657
H66   H     H_    0.199251 0.946472 0.469393 0.141898
H67   H     H_    0.136790 0.950679 0.514822 0.200093
O22   O     O_3   0.762381 0.992196 0.395217 -0.527306
C118  C     C_3   0.799429 0.049215 0.454543 -0.302784
H68   H     H_    0.801074 0.053077 0.531168 0.142183
H69   H     H_    0.768828 0.091331 0.398001 0.135554
H70   H     H_    0.863239 0.049254 0.485238 0.200094
O23   O     O_3   0.738703 0.481029 0.605590 -0.522208
C119  C     C_3   0.711492 0.423230 0.545277 -0.287156
H71   H     H_    0.750867 0.382745 0.599766 0.130678
H72   H     H_    0.707075 0.426063 0.466298 0.141275
H73   H     H_    0.649569 0.413567 0.518230 0.202196
O24   O     O_3   0.261309 0.518937 0.394388 -0.522150
C120  C     C_3   0.288645 0.576601 0.455155 -0.287579
H74   H     H_    0.293451 0.573431 0.534428 0.141681
H75   H     H_    0.249134 0.617168 0.401169 0.130376
H76   H     H_    0.350433 0.586410 0.481778 0.202251

loop_
_geom_bond_atom_site_label_1
_geom_bond_atom_site_label_2
_ccdc_geom_bond_type
C72   H27   S    
C105  H37   S    
C88   C96   A    
C113  H53   S    
C14   H6    S    
Cu4   O6    S    
Cu2   N1    S    
C33   C45   A    
C5    C56   S    
C53   C77   A    
C5    O13   A    
C6    C55   S    
C109  H41   S    
O24   C120  S    
C76   C84   A    
C79   C87   A    
C13   H5    S    
C107  H39   S    
C61   C69   A    
C116  H62   S    
C8    O16   A    
C99   C108  A    
Cu4   O16   S    
C1    O1    A    
C80   H19   S    
C57   C89   A    
C10   H2    S    
C32   C36   A    
C7    O15   A    
C51   C75   A    
C102  C109  A    
C17   O21   S    
C1    C52   S    
C50   C74   A    
C2    O10   A    
C76   H15   S    
C21   N1    A    
C70   H25   S    
C10   C94   A    
C9    C105  A    
Cu3   Cu4   S    
C63   C95   A    
C120  H76   S    
C55   C79   A    
C62   C70   A    
C60   H36   S    
C63   H31   S    
C37   C42   A    
C61   H29   S    
C14   C90   A    
C13   C109  A    
C86   C94   A    
C113  H55   S    
C59   C67   A    
C12   H4    S    
C22   H49   S    
C85   C93   A    
C28   N4    A    
C40   C43   A    
C20   C24   A    
C29   C33   A    
C115  H59   S    
C56   C72   A    
C61   C93   A    
C57   H33   S    
C36   C48   A    
C34   C46   A    
C43   C47   A    
C97   C102  A    
C110  H42   S    
C114  H58   S    
C81   C89   A    
C78   C86   A    
C60   C92   A    
C99   C104  A    
C53   C69   A    
O19   C115  S    
C83   C99   A    
C6    O6    A    
C82   C98   A    
C47   O19   S    
C18   O22   S    
C17   C33   A    
C74   C82   A    
C73   C81   A    
C119  H71   S    
C88   C104  A    
C3    C50   S    
C58   C66   A    
C46   O18   S    
C116  H63   S    
C25   C29   A    
C30   C34   A    
C27   C31   A    
C84   C100  A    
C15   C111  A    
C28   C32   A    
C24   H51   S    
C64   C96   A    
C38   C41   A    
O21   C117  S    
C11   H3    S    
C118  H70   S    
C43   H11   S    
O23   C119  S    
C12   C108  A    
Cu3   O14   S    
C1    O9    A    
O22   C118  S    
C51   C67   A    
C106  H38   S    
C69   H26   S    
C100  C103  A    
C17   C21   A    
C21   H50   S    
C23   H52   S    
Cu4   N3    S    
C87   C95   A    
C103  C112  A    
C19   C23   A    
C118  H68   S    
C117  H67   S    
C37   C38   A    
C79   H20   S    
C41   H9    S    
C27   H48   S    
Cu3   O15   S    
C8    O8    A    
C98   C105  A    
Cu1   O10   S    
C54   C70   A    
C25   H46   S    
C57   C65   A    
C45   O17   S    
C120  H74   S    
C20   O24   S    
C7    C54   S    
C7    O7    A    
C59   C91   A    
C82   C90   A    
C4    O12   A    
C84   C92   A    
C67   H24   S    
C18   C34   A    
C62   H30   S    
C5    O5    A    
C22   N2    A    
C49   C65   A    
C58   C90   A    
Cu1   O4    S    
C87   C103  A    
C65   H22   S    
C3    O3    A    
Cu2   O3    S    
C63   C71   A    
C26   C30   A    
C117  H66   S    
C62   C94   A    
C42   C46   A    
C49   C73   A    
C10   C106  A    
C19   O23   S    
C77   H18   S    
C97   C106  A    
C86   C102  A    
C9    C93   A    
C39   C40   A    
C32   C40   A    
C85   C101  A    
C75   H16   S    
C16   C112  A    
Cu1   O1    S    
Cu1   Cu2   S    
C116  H64   S    
C11   C95   A    
C14   C110  A    
C48   O20   S    
C73   H14   S    
C44   H12   S    
C100  C107  A    
C113  H54   S    
C112  H44   S    
C13   C89   A    
C18   C22   A    
Cu3   O8    S    
C111  H43   S    
Cu3   N4    S    
C52   C76   A    
C52   C68   A    
C8    C53   S    
C104  C111  A    
C50   C66   A    
C16   C92   A    
C39   C44   A    
C59   H35   S    
Cu2   O9    S    
C83   C91   A    
Cu4   O13   S    
C6    O14   A    
C26   H45   S    
C108  H40   S    
C56   C80   A    
C98   C101  A    
C119  H72   S    
C60   C68   A    
C25   N1    A    
C118  H69   S    
C101  C110  A    
C4    C49   S    
C80   C88   A    
C19   C35   A    
C2    O2    A    
C11   C107  A    
C75   C83   A    
Cu1   O11   S    
C66   H21   S    
C81   C97   A    
C77   C85   A    
C115  H61   S    
Cu2   O12   S    
C31   C35   A    
C120  H75   S    
C31   C39   A    
O18   C114  S    
Cu1   N2    S    
C64   C72   A    
C16   H8    S    
O17   C113  S    
C24   N4    A    
C78   H17   S    
C55   C71   A    
C2    C51   S    
C42   H10   S    
C15   C91   A    
C114  H56   S    
C20   C36   A    
C58   H34   S    
Cu2   O2    S    
Cu3   O5    S    
O20   C116  S    
C26   N2    A    
C115  H60   S    
C117  H65   S    
C4    O4    A    
C74   H13   S    
C29   C37   A    
C41   C45   A    
C12   C96   A    
C68   H23   S    
C15   H7    S    
C30   C38   A    
C54   C78   A    
C35   C47   A    
Cu4   O7    S    
C27   N3    A    
C3    O11   A    
C119  H73   S    
C64   H32   S    
C9    H1    S    
C44   C48   A    
C28   H47   S    
C71   H28   S    
C114  H57   S    
C23   N3    A    
