data_mof_unit_14492.cif
_audit_creation_date              2012-12-10T18:09:36-0500
_audit_creation_method            fapswitch 2.2
_symmetry_space_group_name_H-M    P1
_symmetry_Int_Tables_number       1
_space_group_crystal_system       triclinic
_cell_length_a                    14.986064
_cell_length_b                    15.712164
_cell_length_c                    9.402164
_cell_angle_alpha                 90.066077
_cell_angle_beta                  90.114789
_cell_angle_gamma                 89.883747
_cell_volume                      2213.85593673

loop_
_atom_site_label
_atom_site_type_symbol
_atom_type_description
_atom_site_fract_x
_atom_site_fract_y
_atom_site_fract_z
_atom_type_partial_charge
C1    C     C_R   0.117325 0.377020 0.500198 0.780565
C2    C     C_R   0.878207 0.617954 0.500259 0.814922
C3    C     C_R   0.377709 0.882606 0.499718 0.764401
C4    C     C_R   0.378208 0.117955 0.500260 0.814921
C5    C     C_3   0.834058 0.245786 0.606299 -0.324247
C6    C     C_3   0.798967 0.276489 0.348605 -0.391860
C7    C     C_3   0.791854 0.716934 0.654800 -0.383699
C8    C     C_3   0.837938 0.759302 0.407332 -0.382523
C9    C     C_3   0.334056 0.745789 0.606306 -0.324239
C10   C     C_3   0.298970 0.776486 0.348607 -0.391861
C11   C     C_3   0.291853 0.216933 0.654802 -0.383688
C12   C     C_R   0.119513 0.621322 0.500055 0.824033
C13   C     C_3   0.337940 0.259303 0.407336 -0.382525
C14   C     C_3   0.256136 0.683239 0.627277 -0.213094
C15   C     C_3   0.239142 0.696993 0.353447 -0.149433
C16   C     C_3   0.228342 0.294059 0.653750 -0.146828
C17   C     C_3   0.261062 0.322896 0.386682 -0.157021
C18   C     C_3   0.756139 0.183236 0.627272 -0.213094
C19   C     C_3   0.739137 0.196997 0.353444 -0.149429
C20   C     C_3   0.728346 0.794061 0.653747 -0.146833
C21   C     C_3   0.761060 0.822893 0.386675 -0.157023
C22   C     C_3   0.715658 0.353058 0.541337 -0.417969
C23   C     C_R   0.617325 0.877020 0.500198 0.780564
C24   C     C_3   0.718520 0.648416 0.443255 -0.326961
C25   C     C_3   0.215657 0.853058 0.541329 -0.417971
C26   C     C_3   0.218522 0.148418 0.443252 -0.326958
C27   C     C_3   0.807708 0.315898 0.499069 0.041148
C28   C     C_3   0.807683 0.684352 0.501275 0.013112
C29   C     C_3   0.307709 0.815898 0.499069 0.041147
C30   C     C_3   0.307683 0.184353 0.501276 0.013108
C31   C     C_3   0.187046 0.693091 0.500383 -0.054295
C32   C     C_3   0.185415 0.305794 0.500200 -0.058280
C33   C     C_3   0.687045 0.193091 0.500384 -0.054288
C34   C     C_R   0.619513 0.121322 0.500055 0.824034
C35   C     C_3   0.685415 0.805794 0.500199 -0.058279
C36   C     C_3   0.139771 0.784361 0.521593 -0.001450
C37   C     C_3   0.141125 0.216835 0.456399 -0.062003
C38   C     C_3   0.639771 0.284360 0.521605 -0.001451
C39   C     C_3   0.641124 0.716834 0.456405 -0.062006
C40   C     C_3   0.919310 0.539923 0.083569 -0.178906
C41   C     C_3   0.919174 0.539680 0.916098 -0.184463
C42   C     C_3   0.005856 0.412277 0.083670 -0.182032
C43   C     C_3   0.006125 0.412295 0.916031 -0.173806
C44   C     C_3   0.419337 0.039974 0.083569 -0.178890
C45   C     C_3   0.078502 0.547199 0.084068 -0.188488
C46   C     C_3   0.419199 0.039729 0.916098 -0.184465
C47   C     C_3   0.505798 0.912274 0.083670 -0.182055
C48   C     C_3   0.506069 0.912292 0.916031 -0.173811
C49   C     C_2   0.288290 0.594243 0.660823 0.513764
C50   C     C_2   0.291827 0.618518 0.314858 0.433686
C51   C     C_2   0.273276 0.371698 0.716169 0.484566
C52   C     C_2   0.298410 0.411132 0.378468 0.428033
C53   C     C_2   0.788293 0.094239 0.660810 0.513769
C54   C     C_2   0.791820 0.118522 0.314844 0.433676
C55   C     C_2   0.773286 0.871699 0.716157 0.484574
C56   C     C_3   0.078180 0.547715 0.916782 -0.192443
C57   C     C_2   0.798405 0.911130 0.378451 0.428048
C58   C     C_2   0.079064 0.788006 0.651094 0.303600
C59   C     C_2   0.081286 0.810134 0.395505 0.324696
C60   C     C_2   0.073935 0.187782 0.567134 0.320051
C61   C     C_2   0.087396 0.224538 0.318675 0.392792
C62   C     C_2   0.579070 0.288002 0.651113 0.303581
C63   C     C_2   0.581281 0.310136 0.395525 0.324693
C64   C     C_2   0.573937 0.687783 0.567146 0.320062
C65   C     C_2   0.587391 0.724535 0.318685 0.392793
C66   C     C_3   0.578535 0.047151 0.084068 -0.188484
C67   C     C_3   0.578211 0.047670 0.916782 -0.192440
C68   C     C_R   0.877709 0.382606 0.499718 0.764398
Cu1   Cu    Cu3+1 0.000100 0.500000 0.642410 0.899074
Cu2   Cu    Cu3+1 0.000100 0.500000 0.357590 0.929744
Cu3   Cu    Cu3+1 0.500100 0.000000 0.642410 0.899076
Cu4   Cu    Cu3+1 0.500100 0.000000 0.357590 0.929749
H1    H     H_    0.852184 0.272888 0.711884 0.147079
H2    H     H_    0.865852 0.261526 0.303845 0.185857
H3    H     H_    0.856654 0.732687 0.706658 0.201323
H4    H     H_    0.896117 0.790295 0.459621 0.230907
H5    H     H_    0.394153 0.713455 0.564234 0.234424
H6    H     H_    0.365857 0.761523 0.303850 0.185855
H7    H     H_    0.356652 0.232688 0.706660 0.201331
H8    H     H_    0.396119 0.290295 0.459629 0.230896
H9    H     H_    0.221888 0.702832 0.726855 0.083680
H10   H     H_    0.190658 0.703813 0.264842 0.139812
H11   H     H_    0.174626 0.279560 0.731140 0.081450
H12   H     H_    0.768975 0.324251 0.275043 0.156253
H13   H     H_    0.232644 0.311825 0.278929 0.124825
H14   H     H_    0.721895 0.202827 0.726854 0.083675
H15   H     H_    0.690652 0.203820 0.264842 0.139825
H16   H     H_    0.674631 0.779566 0.731142 0.081452
H17   H     H_    0.732639 0.811818 0.278925 0.124822
H18   H     H_    0.719964 0.374788 0.654033 0.191792
H19   H     H_    0.702197 0.411562 0.478033 0.144499
H20   H     H_    0.702470 0.588789 0.501529 0.173333
H21   H     H_    0.729991 0.628166 0.331539 0.199523
H22   H     H_    0.219960 0.874790 0.654025 0.191797
H23   H     H_    0.761978 0.665061 0.719810 0.162468
H24   H     H_    0.202198 0.911562 0.478023 0.144499
H25   H     H_    0.202471 0.088790 0.501525 0.173332
H26   H     H_    0.229994 0.128167 0.331536 0.199524
H27   H     H_    0.913923 0.606979 0.120499 0.162834
H28   H     H_    0.913395 0.606623 0.879069 0.146995
H29   H     H_    0.067148 0.379561 0.121892 0.153119
H30   H     H_    0.067594 0.379791 0.878346 0.136253
H31   H     H_    0.413997 0.107034 0.120499 0.162856
H32   H     H_    0.413464 0.106675 0.879067 0.146995
H33   H     H_    0.567066 0.879520 0.121897 0.153128
H34   H     H_    0.860126 0.736813 0.300756 0.184664
H35   H     H_    0.567517 0.879752 0.878343 0.136272
H36   H     H_    0.859172 0.506238 0.123649 0.140062
H37   H     H_    0.859137 0.505637 0.875965 0.145176
H38   H     H_    0.948494 0.373971 0.122051 0.141103
H39   H     H_    0.949045 0.373761 0.876806 0.143008
H40   H     H_    0.359176 0.006327 0.123650 0.140062
H41   H     H_    0.359141 0.005720 0.875967 0.145176
H42   H     H_    0.448407 0.874004 0.122045 0.141101
H43   H     H_    0.448963 0.873792 0.876808 0.143007
H44   H     H_    0.077493 0.614178 0.122172 0.173629
H45   H     H_    0.352177 0.772894 0.711891 0.147074
H46   H     H_    0.076229 0.614854 0.880066 0.136841
H47   H     H_    0.141555 0.517982 0.122767 0.122881
H48   H     H_    0.141590 0.520017 0.877359 0.118056
H49   H     H_    0.577573 0.114131 0.122172 0.173570
H50   H     H_    0.576302 0.114812 0.880071 0.136827
H51   H     H_    0.641569 0.017894 0.122766 0.122890
H52   H     H_    0.641603 0.019938 0.877355 0.118057
H53   H     H_    0.240284 0.545748 0.686529 0.073826
H54   H     H_    0.261814 0.571221 0.246179 0.042234
H55   H     H_    0.236587 0.411703 0.789505 0.010484
H56   H     H_    0.268979 0.824246 0.275040 0.156248
H57   H     H_    0.349837 0.425487 0.301020 0.094529
H58   H     H_    0.740287 0.045745 0.686520 0.073815
H59   H     H_    0.761803 0.071228 0.246164 0.042236
H60   H     H_    0.736606 0.911700 0.789509 0.010466
H61   H     H_    0.849830 0.925483 0.300998 0.094522
H62   H     H_    0.066137 0.732455 0.715299 0.075601
H63   H     H_    0.069924 0.877024 0.372744 0.133657
H64   H     H_    0.044618 0.233077 0.640695 0.040203
H65   H     H_    0.026532 0.261966 0.318207 0.057744
H66   H     H_    0.566153 0.232451 0.715325 0.075610
H67   H     H_    0.261979 0.165059 0.719811 0.162467
H68   H     H_    0.569908 0.377027 0.372782 0.133668
H69   H     H_    0.544620 0.733079 0.640705 0.040202
H70   H     H_    0.526529 0.761966 0.318217 0.057739
H71   H     H_    0.360128 0.236816 0.300760 0.184664
H72   H     H_    0.894154 0.213453 0.564220 0.234424
N1    N     N_3   0.001260 0.500000 0.143650 -0.126745
N2    N     N_3   0.001260 0.500000 0.856350 -0.122156
N3    N     N_3   0.501260 0.000000 0.143650 -0.126736
N4    N     N_3   0.501260 0.000000 0.856350 -0.122152
O1    O     O_R   0.091250 0.408820 0.620260 -0.606087
O2    O     O_R   0.908940 0.408800 0.379740 -0.609068
O3    O     O_R   0.908940 0.591200 0.620260 -0.605011
O4    O     O_R   0.908940 0.591200 0.379740 -0.580402
O5    O     O_R   0.408940 0.908800 0.620260 -0.603004
O6    O     O_R   0.408940 0.908800 0.379740 -0.609070
O7    O     O_R   0.408940 0.091200 0.620260 -0.605012
O8    O     O_R   0.408940 0.091200 0.379740 -0.580407
O9    O     O_2   0.367475 0.576168 0.667440 -0.414705
O10   O     O_2   0.368268 0.607673 0.356590 -0.479588
O11   O     O_2   0.350636 0.389338 0.688604 -0.446810
O12   O     O_R   0.091250 0.408820 0.379740 -0.594755
O13   O     O_2   0.271636 0.467034 0.456471 -0.545076
O14   O     O_2   0.867477 0.076163 0.667417 -0.414697
O15   O     O_2   0.868261 0.107674 0.356569 -0.479588
O16   O     O_2   0.850642 0.889340 0.688570 -0.446805
O17   O     O_2   0.771632 0.967034 0.456449 -0.545071
O18   O     O_2   0.043234 0.854851 0.685404 -0.468564
O19   O     O_2   0.042146 0.757583 0.323066 -0.606873
O20   O     O_2   0.047142 0.114402 0.569067 -0.435949
O21   O     O_2   0.109563 0.189136 0.208520 -0.561076
O22   O     O_2   0.543233 0.354844 0.685424 -0.468568
O23   O     O_R   0.091250 0.591180 0.620260 -0.632727
O24   O     O_2   0.542148 0.257588 0.323072 -0.606866
O25   O     O_2   0.547145 0.614402 0.569085 -0.435951
O26   O     O_2   0.609551 0.689127 0.208531 -0.561067
O27   O     O_R   0.091250 0.591180 0.379740 -0.549922
O28   O     O_R   0.591250 0.908820 0.620260 -0.606085
O29   O     O_R   0.591250 0.908820 0.379740 -0.594748
O30   O     O_R   0.591250 0.091180 0.620260 -0.632727
O31   O     O_R   0.591250 0.091180 0.379740 -0.549920
O32   O     O_R   0.908940 0.408800 0.620260 -0.603002

loop_
_geom_bond_atom_site_label_1
_geom_bond_atom_site_label_2
_ccdc_geom_bond_type
C42   H38   S    
C47   H42   S    
C42   H29   S    
Cu4   O8    S    
C65   O26   D    
C9    H45   S    
C63   H68   S    
Cu2   O2    S    
C16   C51   S    
C8    H4    S    
C14   C31   S    
C36   C59   S    
C49   O9    D    
C67   H52   S    
C44   N3    S    
C40   H27   S    
C10   H6    S    
C21   H17   S    
C50   O10   D    
C39   C64   S    
C60   O20   D    
C40   N1    S    
C17   H13   S    
C52   H57   S    
Cu3   O30   S    
C55   O16   D    
C36   C58   S    
C10   C15   S    
Cu1   O32   S    
C53   O14   D    
C14   C49   S    
C57   O17   D    
C64   H69   S    
C22   C38   S    
C48   N4    S    
C3    O5    A    
C24   C39   S    
Cu3   O28   S    
C54   H59   S    
Cu1   O23   S    
C15   C50   S    
C59   H63   S    
C3    C29   S    
C11   H67   S    
C27   C68   S    
C18   C53   S    
C5    C27   S    
C20   C35   S    
C46   N4    S    
C41   N2    S    
C47   C48   S    
C45   C56   S    
C47   H33   S    
C22   H19   S    
C1    O1    A    
C50   H54   S    
C54   O15   D    
C12   O23   A    
Cu2   O27   S    
C60   H64   S    
C9    C29   S    
C52   O13   D    
C40   H36   S    
C45   H47   S    
C13   H71   S    
C66   C67   S    
C13   H8    S    
C25   H22   S    
C41   H37   S    
C25   C29   S    
Cu1   N2    S    
C56   H48   S    
C57   H61   S    
C34   O31   A    
C43   H39   S    
Cu4   O29   S    
C20   C55   S    
C10   H56   S    
C24   H20   S    
C17   C52   S    
C44   H31   S    
C44   C46   S    
C6    H2    S    
C15   H10   S    
C2    O4    A    
C62   O22   D    
C47   N3    S    
C41   H28   S    
C6    H12   S    
Cu1   O3    S    
C13   C30   S    
Cu4   O6    S    
C11   C30   S    
C19   C33   S    
C5    H72   S    
C7    H3    S    
C23   O28   A    
C26   H25   S    
C46   H32   S    
C68   O32   A    
C3    O6    A    
C58   H62   S    
C7    C28   S    
C8    H34   S    
C35   C39   S    
C9    C14   S    
C56   N2    S    
C21   C57   S    
C6    C19   S    
C11   C16   S    
C6    C27   S    
Cu3   O7    S    
C33   C34   S    
C22   H18   S    
C66   H49   S    
Cu2   O4    S    
Cu2   N1    S    
C18   H14   S    
C32   C37   S    
C62   H66   S    
C7    C20   S    
C66   N3    S    
C11   H7    S    
C26   H26   S    
C12   O27   A    
C21   C35   S    
C44   H40   S    
C19   C54   S    
C40   C41   S    
C4    O8    A    
C26   C30   S    
C23   C35   S    
C22   C27   S    
C48   H43   S    
C12   C31   S    
C8    C28   S    
C45   N1    S    
C34   O30   A    
C61   O21   D    
C42   C43   S    
C1    C32   S    
C67   H50   S    
C59   O19   D    
C38   C63   S    
C2    O3    A    
C46   H41   S    
C31   C36   S    
C56   H46   S    
C1    O12   A    
C24   C28   S    
C8    C21   S    
C37   C61   S    
C7    H23   S    
C26   C37   S    
C15   C31   S    
C5    C18   S    
C16   C32   S    
Cu4   N3    S    
C49   H53   S    
C39   C65   S    
C19   H15   S    
C33   C38   S    
C14   H9    S    
C13   C17   S    
Cu1   O1    S    
C9    H5    S    
C43   H30   S    
C51   H55   S    
Cu3   Cu4   S    
C43   N2    S    
C24   H21   S    
C65   H70   S    
C45   H44   S    
C61   H65   S    
C63   O24   D    
C20   H16   S    
C51   O11   D    
Cu3   N4    S    
Cu2   O12   S    
C16   H11   S    
C5    H1    S    
Cu1   Cu2   S    
C58   O18   D    
C18   C33   S    
C23   O29   A    
C37   C60   S    
C68   O2    A    
C25   C36   S    
C48   H35   S    
C10   C29   S    
C4    O7    A    
C25   H24   S    
C55   H60   S    
C67   N4    S    
C17   C32   S    
C66   H51   S    
C2    C28   S    
C53   H58   S    
Cu4   O31   S    
C64   O25   D    
C42   N1    S    
C4    C30   S    
C38   C62   S    
Cu3   O5    S    
