data_mof_unit_11226.cif
_audit_creation_date              2012-12-11T14:56:27-0500
_audit_creation_method            fapswitch 2.2
_symmetry_space_group_name_H-M    P1
_symmetry_Int_Tables_number       1
_space_group_crystal_system       triclinic
_cell_length_a                    10.513673
_cell_length_b                    10.667837
_cell_length_c                    17.082715
_cell_angle_alpha                 79.960106
_cell_angle_beta                  89.791657
_cell_angle_gamma                 119.088589
_cell_volume                      1639.9427003

loop_
_atom_site_label
_atom_site_type_symbol
_atom_type_description
_atom_site_fract_x
_atom_site_fract_y
_atom_site_fract_z
_atom_type_partial_charge
C1    C     C_R   0.278843 0.888425 0.132728 0.557087
C2    C     C_R   0.798326 0.421496 0.262927 -0.126837
C3    C     C_R   0.788188 0.408063 0.184351 -0.128991
C4    C     C_R   0.650608 0.341147 0.156799 0.027947
C5    C     C_1   0.685001 0.831055 0.201738 -0.028508
C6    C     C_1   0.703945 0.807282 0.270442 -0.032040
C7    C     C_1   0.227695 0.853734 0.215508 -0.044123
C8    C     C_1   0.179070 0.834784 0.283055 -0.044832
C9    C     C_1   0.662601 0.359052 0.780427 -0.026792
C10   C     C_1   0.685202 0.403107 0.709793 -0.038378
C11   C     C_R   0.614966 0.712756 0.804549 -0.142120
C12   C     C_R   0.636081 0.279990 0.086270 0.536015
C13   C     C_R   0.598587 0.699097 0.726365 -0.135024
C14   C     C_R   0.669387 0.823174 0.665151 0.018160
C15   C     C_R   0.763347 0.960301 0.682642 -0.128555
C16   C     C_R   0.778334 0.975746 0.761574 -0.028068
C17   C     C_R   0.694204 0.851905 0.823103 0.008778
C18   C     C_R   0.242829 0.976712 0.753350 -0.027372
C19   C     C_R   0.235327 0.961076 0.675106 -0.128277
C20   C     C_R   0.172889 0.821981 0.657299 0.011891
C21   C     C_R   0.141196 0.699505 0.716781 -0.132744
C22   C     C_R   0.158832 0.715208 0.795465 -0.140934
C23   C     C_R   0.643360 0.855457 0.124270 0.544515
C24   C     C_R   0.203323 0.851976 0.814890 0.009982
C25   C     C_R   0.711623 0.772670 0.353622 0.561857
C26   C     C_R   0.689318 0.396371 0.394536 0.548146
C27   C     C_R   0.108362 0.812677 0.359888 0.542731
C28   C     C_R   0.677412 0.799866 0.585495 0.548467
C29   C     C_R   0.717582 0.446700 0.625776 0.562463
C30   C     C_R   0.103705 0.803146 0.584341 0.543934
C31   C     C_R   0.231407 0.869207 0.896334 0.551722
C32   C     C_R   0.640509 0.291206 0.861909 0.548601
C33   C     C_R   0.648397 0.867128 0.899424 0.542204
C34   C     C_R   0.524167 0.302685 0.205946 -0.129167
C35   C     C_R   0.534704 0.318081 0.284935 -0.136229
C36   C     C_R   0.671180 0.371038 0.314302 0.029117
Cr1   Cr    Cr6+3 0.402240 0.783890 0.019450 1.030728
Cr2   Cr    Cr6+3 0.382360 0.097900 0.991800 1.042423
Cr3   Cr    Cr6+3 0.715380 0.118170 0.988700 1.048773
Cr4   Cr    Cr6+3 0.936650 0.882420 0.465510 1.024912
Cr5   Cr    Cr6+3 0.605770 0.565620 0.493360 1.027924
Cr6   Cr    Cr6+3 0.921340 0.550490 0.496380 1.022291
H1    H     H_    0.416498 0.251273 0.185287 0.142909
H2    H     H_    0.262883 0.056215 0.628410 0.143641
H3    H     H_    0.093242 0.590803 0.703546 0.157861
H4    H     H_    0.132438 0.619833 0.841442 0.146871
H5    H     H_    0.436947 0.284894 0.323414 0.134009
H6    H     H_    0.906290 0.471299 0.283429 0.146810
H7    H     H_    0.886881 0.440874 0.146771 0.143108
H8    H     H_    0.554644 0.615208 0.850728 0.147912
H9    H     H_    0.533585 0.590266 0.714005 0.158034
H10   H     H_    0.826558 0.054227 0.634737 0.136729
O1    O     O_R   0.521780 0.757110 0.108900 -0.513958
O2    O     O_R   0.513330 0.228330 0.898660 -0.487001
O3    O     O_R   0.739230 0.266130 0.888050 -0.495099
O4    O     O_R   0.712580 0.991850 0.918770 -0.488076
O5    O     O_3   0.499990 0.999980 0.999980 -0.276603
O6    O     O_R   0.083770 0.911170 0.376030 -0.513374
O7    O     O_R   0.808770 0.880340 0.383890 -0.485239
O8    O     O_R   0.584340 0.689460 0.394160 -0.499914
O9    O     O_R   0.614320 0.443940 0.423590 -0.513266
O10   O     O_R   0.805020 0.410040 0.421340 -0.514830
O11   O     O_R   0.049240 0.685450 0.403290 -0.501053
O12   O     O_R   0.275160 0.783810 0.101120 -0.490656
O13   O     O_R   0.077520 0.903010 0.551800 -0.518691
O14   O     O_R   0.802980 0.872780 0.546830 -0.497711
O15   O     O_R   0.578090 0.681300 0.569920 -0.518070
O16   O     O_R   0.608530 0.436370 0.586530 -0.492002
O17   O     O_R   0.798770 0.401880 0.597100 -0.500862
O18   O     O_R   0.043450 0.677890 0.566230 -0.517126
O19   O     O_3   0.821250 0.666180 0.485090 -0.297496
O20   O     O_R   0.237900 0.972600 0.090980 -0.505645
O21   O     O_R   0.511190 0.220540 0.061620 -0.525527
O22   O     O_R   0.736920 0.257720 0.063840 -0.515850
O23   O     O_R   0.710450 0.984050 0.081720 -0.493172
O24   O     O_R   0.524090 0.765520 0.933110 -0.518626
O25   O     O_R   0.277300 0.791600 0.938160 -0.497804
O26   O     O_R   0.240210 0.981010 0.915190 -0.498490
C37   C     C_1   0.878674 0.119194 0.776548 0.240252
N1    N     N_1   0.959727 0.234239 0.788072 -0.272691
C38   C     C_1   0.283794 0.121423 0.766641 0.241295
N2    N     N_1   0.314806 0.237156 0.776455 -0.282275

loop_
_geom_bond_atom_site_label_1
_geom_bond_atom_site_label_2
_ccdc_geom_bond_type
Cr4   O19   S    
C12   O22   A    
C19   C20   A    
Cr5   O9    S    
C35   H5    S    
C38   N2    T    
C3    H7    S    
C7    C8    T    
Cr5   O15   S    
C20   C30   S    
C18   C24   A    
C26   O9    A    
C18   C19   A    
C5    C6    T    
C6    C25   S    
C15   C16   A    
Cr2   O5    S    
Cr6   O18   S    
C18   C38   S    
C34   C35   A    
Cr3   O22   S    
C9    C32   S    
C13   H9    S    
Cr3   O3    S    
C35   C36   A    
C16   C17   A    
C5    C23   S    
C12   O21   A    
C31   O25   A    
C25   O8    A    
Cr3   O23   S    
C4    C12   S    
C9    C10   T    
Cr6   O10   S    
C32   O3    A    
C21   H3    S    
Cr5   O19   S    
Cr1   O1    S    
C33   O4    A    
Cr4   O7    S    
Cr4   O14   S    
C13   C14   A    
C17   C33   S    
C32   O2    A    
C30   O18   A    
C23   O1    A    
Cr5   O16   S    
C29   O17   A    
Cr2   O20   S    
C1    O20   A    
Cr4   O6    S    
C28   O15   A    
Cr2   O26   S    
C2    H6    S    
Cr1   O25   S    
Cr6   O17   S    
C28   O14   A    
C29   O16   A    
C33   O24   A    
Cr3   O4    S    
Cr2   O2    S    
C15   H10   S    
C27   O11   A    
C26   C36   S    
C22   H4    S    
Cr1   O24   S    
Cr4   O13   S    
C22   C24   A    
C3    C4    A    
C1    O12   A    
Cr1   O12   S    
C19   H2    S    
C31   O26   A    
C2    C36   A    
C11   C17   A    
C1    C7    S    
C34   H1    S    
Cr5   O8    S    
C23   O23   A    
C27   O6    A    
C16   C37   S    
C2    C3    A    
C26   O10   A    
C24   C31   S    
C11   H8    S    
C11   C13   A    
C10   C29   S    
Cr6   O19   S    
C4    C34   A    
C30   O13   A    
C37   N1    T    
C20   C21   A    
C8    C27   S    
C14   C15   A    
C25   O7    A    
C14   C28   S    
C21   C22   A    
Cr6   O11   S    
Cr1   O5    S    
Cr2   O21   S    
Cr3   O5    S    
