data_mof_unit_50795.cif
_audit_creation_date              2012-12-10T17:33:03-0500
_audit_creation_method            fapswitch 2.2
_symmetry_space_group_name_H-M    P1
_symmetry_Int_Tables_number       1
_space_group_crystal_system       triclinic
_cell_length_a                    12.370152
_cell_length_b                    13.212036
_cell_length_c                    14.251436
_cell_angle_alpha                 93.114859
_cell_angle_beta                  107.843205
_cell_angle_gamma                 116.677478
_cell_volume                      1930.04147302

loop_
_atom_site_label
_atom_site_type_symbol
_atom_type_description
_atom_site_fract_x
_atom_site_fract_y
_atom_site_fract_z
_atom_type_partial_charge
C1    C     C_R   0.647952 0.713874 0.504424 0.786142
C2    C     C_R   0.876258 0.546296 0.929836 0.078601
C3    C     C_R   0.814665 0.543957 0.999780 0.094052
C4    C     C_R   0.001521 0.554915 0.963371 0.056386
C5    C     C_R   0.058800 0.550287 0.064834 -0.000046
C6    C     C_R   0.004453 0.564721 0.136121 -0.089114
C7    C     C_R   0.879229 0.552855 0.102682 -0.075658
C8    C     C_R   0.073077 0.570630 0.899298 -0.202145
C9    C     C_R   0.190588 0.570020 0.930410 -0.219311
C10   C     C_R   0.237798 0.547952 0.024270 0.167585
C11   C     C_R   0.169919 0.533773 0.090897 0.094527
C12   C     C_R   0.618484 0.516682 0.686795 0.802905
C13   C     C_R   0.351384 0.538278 0.051901 -0.189999
C14   C     C_R   0.397904 0.513844 0.145072 -0.191722
C15   C     C_R   0.210864 0.496425 0.178649 -0.211842
C16   C     C_R   0.166352 0.960839 0.392690 -0.160995
C17   C     C_R   0.255670 0.162033 0.471650 -0.053034
C18   C     C_R   0.702121 0.925073 0.532708 -0.014480
C19   C     C_R   0.792995 0.041473 0.549132 -0.181786
C20   C     C_R   0.907805 0.072900 0.533376 -0.176985
C21   C     C_R   0.930963 0.988215 0.492144 0.091885
C22   C     C_R   0.833090 0.869732 0.466236 0.061278
C23   C     C_R   0.346845 0.285328 0.487023 0.806629
C24   C     C_R   0.045695 0.018089 0.471416 0.086758
C25   C     C_R   0.055600 0.931839 0.416566 0.144375
C26   C     C_R   0.952633 0.818668 0.382213 -0.213262
C27   C     C_R   0.841898 0.788683 0.404189 -0.171734
C28   C     C_R   0.150467 0.131800 0.502274 -0.215335
C29   C     C_R   0.265332 0.075853 0.418942 -0.181868
C30   C     C_R   0.726472 0.836795 0.499197 -0.160286
C31   C     C_R   0.247743 0.676118 0.665275 -0.324032
C32   C     C_R   0.651129 0.340572 0.365183 0.036887
C33   C     C_R   0.722695 0.295961 0.338128 -0.104245
C34   C     C_R   0.382664 0.485084 0.313435 0.797688
C35   C     C_R   0.858600 0.348782 0.390673 -0.054697
C36   C     C_R   0.924463 0.453530 0.467507 -0.061878
C37   C     C_R   0.842740 0.491233 0.494274 0.281135
C38   C     C_R   0.065104 0.520656 0.522493 -0.021430
C39   C     C_R   0.114741 0.613106 0.606354 0.172853
C40   C     C_R   0.032432 0.644527 0.631223 -0.289664
C41   C     C_R   0.900542 0.586465 0.575659 -0.176477
C42   C     C_R   0.160875 0.504667 0.497949 0.038582
C43   C     C_R   0.334398 0.650603 0.640972 0.171652
C44   C     C_R   0.685298 0.527200 0.794435 -0.042878
C45   C     C_R   0.327892 0.493658 0.209210 -0.059852
C46   C     C_R   0.690639 0.536126 0.965490 -0.171505
C47   C     C_R   0.627702 0.529327 0.864298 -0.175747
C48   C     C_R   0.807535 0.534336 0.827072 -0.238072
Cu1   Cu    Cu3+1 0.416420 0.526630 0.522910 0.970267
Cu2   Cu    Cu3+1 0.583580 0.473370 0.477090 0.932587
H1    H     H_    0.405151 0.551331 0.002108 0.131964
H2    H     H_    0.346899 0.097743 0.395240 0.156966
H3    H     H_    0.957007 0.753577 0.336419 0.173495
H4    H     H_    0.174076 0.895276 0.350434 0.157785
H5    H     H_    0.972493 0.165014 0.548618 0.140705
H6    H     H_    0.151796 0.467556 0.224090 0.160418
H7    H     H_    0.284096 0.745182 0.730356 0.145102
H8    H     H_    0.136631 0.447443 0.429847 0.156190
H9    H     H_    0.546525 0.298032 0.325905 0.138549
H10   H     H_    0.846647 0.618361 0.600810 0.207248
H11   H     H_    0.489116 0.512502 0.167451 0.170236
H12   H     H_    0.532793 0.523694 0.840533 0.148610
H13   H     H_    0.845608 0.527511 0.769995 0.148592
H14   H     H_    0.043058 0.587401 0.825360 0.145214
N1    N     N_R   0.290690 0.566960 0.557640 -0.204914
N2    N     N_R   0.709100 0.433710 0.442970 -0.209359
O1    O     O_R   0.545970 0.684450 0.528810 -0.557544
O2    O     O_R   0.687130 0.639470 0.490120 -0.605648
O3    O     O_R   0.519670 0.535100 0.660030 -0.582921
O4    O     O_R   0.660830 0.490120 0.621340 -0.602241
O5    O     O_R   0.312870 0.360530 0.509880 -0.585645
O6    O     O_R   0.454030 0.315550 0.471190 -0.590813
O7    O     O_R   0.339170 0.509880 0.378660 -0.575567
O8    O     O_R   0.480330 0.464900 0.339970 -0.589433
C49   C     C_1   0.815893 0.546439 0.174565 0.213632
N3    N     N_1   0.764512 0.540106 0.231281 -0.322639
H15   H     H_    0.152131 0.199511 0.549194 0.147748
C50   C     C_1   0.582049 0.901273 0.545301 0.290219
N4    N     N_1   0.485755 0.883509 0.554520 -0.273029
H16   H     H_    0.775375 0.109303 0.575146 0.146219
H17   H     H_    0.761155 0.702596 0.366894 0.196590
C51   C     C_1   0.470429 0.715825 0.704166 0.306388
N5    N     N_1   0.579685 0.768871 0.755415 -0.294975
H18   H     H_    0.070766 0.716379 0.694360 0.154908
C52   C     C_1   0.921511 0.285199 0.370153 0.200005
N6    N     N_1   0.969717 0.232750 0.352694 -0.286317
C53   C     C_1   0.652683 0.192432 0.257582 0.244356
N7    N     N_1   0.596693 0.109634 0.193206 -0.264365
H19   H     H_    0.242413 0.582914 0.879147 0.142103
H20   H     H_    0.641419 0.536060 0.016573 0.141956
C54   C     C_1   0.083662 0.612257 0.243221 0.217441
N8    N     N_1   0.146766 0.651152 0.328440 -0.279926

loop_
_geom_bond_atom_site_label_1
_geom_bond_atom_site_label_2
_ccdc_geom_bond_type
C12   O3    A    
C17   C29   A    
C40   H18   S    
C35   C36   A    
C4    C8    A    
C42   H8    S    
C47   H12   S    
C52   N6    T    
C26   C27   A    
C17   C23   S    
Cu1   N1    S    
C36   C37   A    
C38   C42   A    
C3    C7    A    
Cu2   O8    S    
C5    C6    A    
C6    C54   S    
C1    O2    A    
C18   C19   A    
Cu2   O6    S    
C1    O1    A    
C13   H1    S    
C11   C15   A    
C19   C20   A    
C8    C9    A    
C42   N1    A    
C18   C30   A    
C22   C30   A    
C9    C10   A    
C44   C47   A    
C18   C50   S    
Cu1   O3    S    
C13   C14   A    
C20   H5    S    
C25   C26   A    
C14   C45   A    
C23   O5    A    
C27   H17   S    
C24   C25   A    
C9    H19   S    
C39   C40   A    
C50   N4    T    
C48   H13   S    
C7    C49   S    
C2    C48   A    
C16   C29   A    
C14   H11   S    
C2    C4    A    
C49   N3    T    
C43   N1    A    
C37   N2    A    
C34   C45   S    
C28   H15   S    
Cu2   N2    S    
C31   C43   A    
C34   O8    A    
C40   C41   A    
C8    H14   S    
Cu1   Cu2   S    
C22   C27   A    
Cu1   O7    S    
C15   C45   A    
C26   H3    S    
C54   N8    T    
C32   N2    A    
C16   C25   A    
C12   O4    A    
C46   C47   A    
Cu1   O1    S    
C17   C28   A    
C23   O6    A    
C24   C28   A    
C41   H10   S    
C4    C5    A    
C10   C13   A    
C5    C11   A    
C6    C7    A    
C46   H20   S    
C3    C46   A    
C15   H6    S    
C31   H7    S    
C36   C38   A    
C2    C3    A    
C33   C53   S    
C12   C44   S    
C32   C33   A    
C35   C52   S    
C38   C39   A    
C1    C30   S    
C33   C35   A    
C31   C39   A    
C37   C41   A    
C19   H16   S    
C16   H4    S    
Cu2   O4    S    
C10   C11   A    
C34   O7    A    
C20   C21   A    
C53   N7    T    
C51   N5    T    
Cu1   O5    S    
C21   C24   A    
C43   C51   S    
C32   H9    S    
C21   C22   A    
Cu2   O2    S    
C44   C48   A    
C29   H2    S    
