data_mof_unit_59028.cif
_audit_creation_date              2012-12-10T17:57:50-0500
_audit_creation_method            fapswitch 2.2
_symmetry_space_group_name_H-M    P1
_symmetry_Int_Tables_number       1
_space_group_crystal_system       triclinic
_cell_length_a                    10.813145
_cell_length_b                    9.511732
_cell_length_c                    15.078886
_cell_angle_alpha                 90.051273
_cell_angle_beta                  90.487514
_cell_angle_gamma                 90.069895
_cell_volume                      1550.83169185

loop_
_atom_site_label
_atom_site_type_symbol
_atom_type_description
_atom_site_fract_x
_atom_site_fract_y
_atom_site_fract_z
_atom_type_partial_charge
C1    C     C_R   0.262470 0.499913 0.499383 0.861425
C2    C     C_R   0.737469 0.500116 0.500705 0.867111
C3    C     C_R   0.510698 0.755993 0.046466 -0.190432
C4    C     C_R   0.493737 0.243821 0.953554 -0.190816
C5    C     C_R   0.065879 0.420789 0.564221 -0.062510
C6    C     C_R   0.933911 0.579656 0.436232 -0.068392
C7    C     C_R   0.936373 0.421822 0.565728 -0.062483
C8    C     C_R   0.063437 0.579542 0.435313 -0.060005
C9    C     C_R   0.871464 0.500740 0.501174 -0.182397
C10   C     C_R   0.128372 0.499535 0.499220 -0.180942
C11   C     C_R   0.425190 0.074252 0.443061 0.013465
C12   C     C_R   0.574820 0.925751 0.556935 0.006053
C13   C     C_R   0.574778 0.074638 0.556958 -0.002037
C14   C     C_R   0.425251 0.925364 0.443022 0.001083
C15   C     C_R   0.500879 0.499938 0.328543 0.888766
C16   C     C_R   0.499956 0.500040 0.671464 0.885778
C17   C     C_R   0.496877 0.372183 0.814593 -0.184169
C18   C     C_R   0.506875 0.627657 0.185414 -0.225389
C19   C     C_R   0.500462 0.500043 0.768332 -0.021972
C20   C     C_R   0.502140 0.499851 0.231676 -0.034547
C21   C     C_R   0.504864 0.627836 0.814812 -0.218510
C22   C     C_R   0.498172 0.372042 0.185202 -0.207090
C23   C     C_R   0.505656 0.628690 0.907205 0.108325
C24   C     C_R   0.498297 0.371147 0.092813 0.106943
C25   C     C_R   0.501897 0.499932 0.953526 0.066207
C26   C     C_R   0.502391 0.499889 0.046492 0.068567
C27   C     C_R   0.497506 0.371224 0.906979 0.102981
C28   C     C_R   0.506780 0.628595 0.093036 0.108996
C29   C     C_R   0.510101 0.756043 0.954008 -0.188715
C30   C     C_R   0.494088 0.243784 0.046012 -0.187205
Cu1   Cu    Cu3+1 0.500000 0.640660 0.500000 0.995986
Cu2   Cu    Cu3+1 0.500000 0.359340 0.500000 1.001492
H1    H     H_    0.493452 0.273253 0.778851 0.147583
H2    H     H_    0.510175 0.726585 0.221161 0.151954
H3    H     H_    0.507856 0.726795 0.779238 0.150959
H4    H     H_    0.494569 0.273110 0.220774 0.151668
H5    H     H_    0.513049 0.855544 0.919123 0.137532
H6    H     H_    0.490964 0.144291 0.080898 0.138500
H7    H     H_    0.514061 0.855453 0.081531 0.138517
H8    H     H_    0.490389 0.144358 0.918492 0.136851
H9    H     H_    0.365262 0.130268 0.397477 0.139197
H10   H     H_    0.634760 0.869743 0.602515 0.133303
H11   H     H_    0.634569 0.130973 0.602593 0.138996
H12   H     H_    0.365508 0.869037 0.397345 0.149155
N1    N     N_R   0.500000 0.852070 0.500000 -0.174703
N2    N     N_R   0.500000 0.147930 0.500000 -0.174587
O1    O     O_R   0.319640 0.618740 0.499990 -0.575954
O2    O     O_R   0.680360 0.381260 0.500010 -0.573084
O3    O     O_R   0.680360 0.618740 0.500010 -0.576172
O4    O     O_R   0.319640 0.381260 0.499990 -0.571827
O5    O     O_R   0.499970 0.618800 0.370260 -0.591895
O6    O     O_R   0.500030 0.381200 0.629740 -0.587730
O7    O     O_R   0.500030 0.618800 0.629740 -0.599079
O8    O     O_R   0.499970 0.381200 0.370260 -0.594742
C31   C     C_2   0.136712 0.346702 0.634708 0.885884
O9    O     O_2   0.184136 0.413978 0.695197 -0.614808
O10   O     O_R   0.151657 0.200988 0.630211 -0.691863
H13   H     H_    0.203287 0.162966 0.681224 0.331507
C32   C     C_2   0.863203 0.653197 0.365291 0.879781
O11   O     O_2   0.807176 0.584800 0.309205 -0.612385
O12   O     O_R   0.858333 0.799979 0.364344 -0.695065
H14   H     H_    0.805857 0.837528 0.313628 0.333688
C33   C     C_2   0.869315 0.347352 0.637725 0.847979
O13   O     O_2   0.792981 0.410374 0.681963 -0.621556
O14   O     O_R   0.893358 0.205517 0.654638 -0.718963
H15   H     H_    0.841887 0.166992 0.705001 0.324838
C34   C     C_2   0.130839 0.654406 0.363843 0.850771
O15   O     O_2   0.114621 0.780209 0.352101 -0.556555
O16   O     O_R   0.213230 0.580410 0.310375 -0.778872
H16   H     H_    0.252634 0.642377 0.263795 0.325608

loop_
_geom_bond_atom_site_label_1
_geom_bond_atom_site_label_2
_ccdc_geom_bond_type
C6    C8    A    
C31   O9    D    
C33   O14   S    
C21   H3    S    
C2    O3    A    
C15   O5    A    
C25   C27   A    
C22   H4    S    
C1    O4    A    
C14   H12   S    
C26   C28   A    
Cu1   Cu2   S    
C4    C30   A    
C7    C33   S    
C7    C9    A    
C6    C9    A    
C23   C25   A    
C3    H7    S    
C32   O11   D    
Cu1   O1    S    
Cu1   O7    S    
C34   O16   S    
Cu2   O2    S    
C24   C26   A    
Cu2   O4    S    
O10   H13   S    
O16   H16   S    
C17   H1    S    
C18   H2    S    
C16   C19   S    
C23   C29   A    
Cu2   O8    S    
C3    C28   A    
C17   C19   A    
Cu1   O3    S    
C11   H9    S    
C14   N1    A    
C18   C20   A    
C31   O10   S    
C21   C23   A    
O12   H14   S    
C11   C14   A    
C22   C24   A    
C32   O12   S    
C24   C30   A    
C20   C22   A    
C33   O13   D    
C5    C10   A    
C34   O15   D    
C17   C27   A    
C15   O8    A    
C16   O6    A    
C13   H11   S    
C4    C27   A    
C18   C28   A    
C12   C13   A    
C30   H6    S    
C8    C34   S    
C8    C10   A    
O14   H15   S    
Cu1   N1    S    
C12   N1    A    
C29   H5    S    
C13   N2    A    
C3    C29   A    
C5    C7    A    
C1    O1    A    
C11   N2    A    
C12   H10   S    
C2    O2    A    
C25   C26   A    
C16   O7    A    
C2    C9    S    
Cu2   N2    S    
C6    C32   S    
C5    C31   S    
Cu2   O6    S    
C1    C10   S    
C4    H8    S    
Cu1   O5    S    
C15   C20   S    
C19   C21   A    
