data_mof_unit_23133.cif
_audit_creation_date              2012-12-10T18:01:17-0500
_audit_creation_method            fapswitch 2.2
_symmetry_space_group_name_H-M    P1
_symmetry_Int_Tables_number       1
_space_group_crystal_system       triclinic
_cell_length_a                    9.712736
_cell_length_b                    10.950574
_cell_length_c                    17.367415
_cell_angle_alpha                 101.208607
_cell_angle_beta                  84.622599
_cell_angle_gamma                 91.3898
_cell_volume                      1803.95639923

loop_
_atom_site_label
_atom_site_type_symbol
_atom_type_description
_atom_site_fract_x
_atom_site_fract_y
_atom_site_fract_z
_atom_type_partial_charge
C1    C     C_R   0.502361 0.736200 0.494570 0.921845
C2    C     C_R   0.497267 0.264079 0.506304 0.918325
C3    C     C_R   0.627417 0.941051 0.496320 0.291169
C4    C     C_R   0.370589 0.059408 0.506246 0.266628
C5    C     C_R   0.616948 0.070638 0.521294 0.332435
C6    C     C_R   0.381439 0.929816 0.481436 0.271699
C7    C     C_R   0.493444 0.130725 0.513790 -0.348965
C8    C     C_R   0.504795 0.870110 0.489211 -0.372354
C9    C     C_R   0.917430 0.584729 0.555874 0.320183
C10   C     C_R   0.082746 0.415702 0.443878 0.343760
C11   C     C_R   0.067842 0.584558 0.556435 0.363460
C12   C     C_R   0.932315 0.416451 0.443036 0.362760
C13   C     C_R   0.480055 0.498006 0.649830 0.934926
C14   C     C_R   0.519997 0.501814 0.350156 0.936267
C15   C     C_R   0.467983 0.503146 0.735818 -0.235175
C16   C     C_R   0.532338 0.496502 0.264154 -0.257140
C17   C     C_R   0.581206 0.550012 0.777076 -0.190855
C18   C     C_R   0.419669 0.448781 0.222704 -0.180232
C19   C     C_R   0.576357 0.563106 0.858227 0.377564
C20   C     C_R   0.424859 0.435584 0.141539 0.373958
C21   C     C_R   0.457167 0.526090 0.900320 -0.144599
C22   C     C_R   0.543901 0.473246 0.099631 -0.145056
C23   C     C_R   0.341809 0.479387 0.860340 0.348949
C24   C     C_R   0.658707 0.520871 0.139820 0.338428
C25   C     C_R   0.347659 0.465601 0.777954 0.357439
C26   C     C_R   0.652385 0.534964 0.222229 0.321591
C27   C     C_2   0.454094 0.530884 0.985426 -0.009134
C28   C     C_2   0.547161 0.468453 0.014527 -0.006606
Cu1   Cu    Cu3+1 0.359340 0.499980 0.500000 1.190553
Cu2   Cu    Cu3+1 0.640660 0.500020 0.500000 1.175883
H1    H     H_    0.674616 0.578157 0.746349 0.259977
H2    H     H_    0.326415 0.420207 0.253312 0.264779
H3    H     H_    0.631225 0.419456 0.976012 0.216266
H4    H     H_    0.370031 0.579822 0.023979 0.216085
N1    N     N_R   0.147930 0.499970 0.499980 -0.306694
N2    N     N_R   0.852070 0.500030 0.500020 -0.316844
O1    O     O_R   0.381260 0.680340 0.500000 -0.500113
O2    O     O_R   0.618740 0.319660 0.500000 -0.510346
O3    O     O_R   0.618830 0.680370 0.500010 -0.501466
O4    O     O_R   0.381170 0.319630 0.499990 -0.501641
O5    O     O_R   0.367440 0.500000 0.613600 -0.510446
O6    O     O_R   0.632560 0.500000 0.386400 -0.507474
O7    O     O_R   0.605010 0.500030 0.613600 -0.544787
O8    O     O_R   0.394990 0.499970 0.386400 -0.523939
Cl1   Cl    Cl    0.791824 0.609592 0.270860 -0.337857
Cl2   Cl    Cl    0.207114 0.392625 0.729620 -0.342037
Cl3   Cl    Cl    0.190889 0.433735 0.913219 -0.329452
Cl4   Cl    Cl    0.809453 0.567324 0.087180 -0.334961
Cl5   Cl    Cl    0.281600 0.365660 0.094495 -0.403153
Cl6   Cl    Cl    0.720212 0.632256 0.905012 -0.395223
S1    S     S_3+6 0.766786 0.889790 0.424861 0.126034
O9    O     O_2   0.832838 0.773249 0.436774 -0.180345
O10   O     O_2   0.709539 0.865832 0.345842 -0.259476
O11   O     O_3   0.889007 0.999273 0.424376 -0.426163
H5    H     H_    0.950216 0.968315 0.376043 0.437600
S2    S     S_3+6 0.226047 0.110069 0.574557 0.140666
O12   O     O_2   0.272280 0.122483 0.655876 -0.194195
O13   O     O_2   0.170395 0.233010 0.566348 -0.237153
O14   O     O_3   0.097239 0.005594 0.565967 -0.368792
H6    H     H_    0.044423 0.027041 0.524800 0.432792
S3    S     S_3+6 0.736071 0.149357 0.586045 0.110910
O15   O     O_2   0.660978 0.247830 0.646840 -0.304502
O16   O     O_2   0.799297 0.060402 0.627962 -0.164601
O17   O     O_3   0.862405 0.216820 0.535943 -0.461276
H7    H     H_    0.900700 0.282580 0.575963 0.375467
S4    S     S_3+6 0.264946 0.851325 0.414919 0.097532
O18   O     O_2   0.148768 0.792286 0.458325 -0.179250
O19   O     O_2   0.206259 0.940539 0.371486 -0.237049
O20   O     O_3   0.348419 0.739610 0.347998 -0.511820
H8    H     H_    0.420600 0.784166 0.319771 0.358673
S5    S     S_3+6 0.821860 0.710433 0.623215 0.124239
O21   O     O_2   0.864146 0.720423 0.705120 -0.216528
O22   O     O_2   0.865402 0.826053 0.593300 -0.159279
O23   O     O_3   0.649247 0.718963 0.637830 -0.537870
H9    H     H_    0.629027 0.803218 0.669383 0.378042
S6    S     S_3+6 0.178611 0.289807 0.376703 0.122011
O24   O     O_2   0.134219 0.174082 0.406357 -0.210661
O25   O     O_2   0.136902 0.280214 0.294705 -0.205860
O26   O     O_3   0.351234 0.280797 0.362328 -0.537926
H10   H     H_    0.371283 0.196449 0.330939 0.376956
S7    S     S_3+6 0.144843 0.688255 0.638798 0.149861
O27   O     O_2   0.297133 0.710191 0.634648 -0.285887
O28   O     O_2   0.107038 0.634595 0.711245 -0.209999
O29   O     O_3   0.084608 0.834125 0.656542 -0.365519
H11   H     H_    0.109871 0.871981 0.709994 0.407762
S8    S     S_3+6 0.855142 0.312122 0.361089 0.155355
O30   O     O_2   0.911863 0.183368 0.347007 -0.163320
O31   O     O_2   0.702820 0.290224 0.364872 -0.283405
O32   O     O_3   0.898440 0.369666 0.279195 -0.433641
H12   H     H_    0.863809 0.307717 0.235639 0.392236

loop_
_geom_bond_atom_site_label_1
_geom_bond_atom_site_label_2
_ccdc_geom_bond_type
S4    O19   D    
C1    C8    S    
C2    C7    S    
S6    O26   S    
C13   O5    A    
S7    O27   D    
C11   S7    S    
Cu1   Cu2   S    
C19   C21   A    
C24   C26   A    
S8    O31   D    
C15   C25   A    
S4    O20   S    
S2    O12   D    
Cu2   O2    S    
S3    O16   D    
C26   Cl1   S    
C10   S6    S    
C21   C23   A    
C9    N2    A    
C10   N1    A    
C12   N2    A    
C18   C20   A    
C1    O1    A    
C14   O6    A    
S4    O18   D    
C21   C27   S    
O14   H6    S    
C22   C28   S    
C4    S2    S    
O20   H8    S    
C4    C7    A    
S7    O28   D    
C27   H4    S    
C16   C26   A    
C23   Cl3   S    
O23   H9    S    
S1    O9    D    
C24   Cl4   S    
S6    O24   D    
C4    C6    A    
C3    C8    A    
C5    C7    A    
C3    S1    S    
S8    O30   D    
C6    C8    A    
S1    O10   D    
S3    O17   S    
C20   Cl5   S    
C2    O2    A    
C5    S3    S    
O29   H11   S    
C9    C11   A    
C10   C12   A    
C20   C22   A    
C28   H3    S    
C13   C15   S    
Cu1   O8    S    
C17   H1    S    
C14   C16   S    
Cu2   O7    S    
C18   H2    S    
Cu1   O1    S    
C13   O7    A    
S7    O29   S    
C14   O8    A    
C15   C17   A    
O11   H5    S    
Cu1   O5    S    
C9    S5    S    
S6    O25   D    
C3    C5    A    
S8    O32   S    
S5    O23   S    
C12   S8    S    
Cu1   N1    S    
S2    O14   S    
Cu2   N2    S    
S1    O11   S    
O17   H7    S    
C11   N1    A    
S5    O21   D    
C19   Cl6   S    
Cu1   O4    S    
C17   C19   A    
S2    O13   D    
Cu2   O3    S    
C22   C24   A    
C23   C25   A    
S3    O15   D    
C1    O3    A    
O26   H10   S    
C2    O4    A    
C6    S4    S    
C16   C18   A    
S5    O22   D    
C27   C28   D    
Cu2   O6    S    
O32   H12   S    
C25   Cl2   S    
