data_mof_unit_55443.cif
_audit_creation_date              2012-12-11T15:17:53-0500
_audit_creation_method            fapswitch 2.2
_symmetry_space_group_name_H-M    P1
_symmetry_Int_Tables_number       1
_space_group_crystal_system       triclinic
_cell_length_a                    15.743012
_cell_length_b                    15.745538
_cell_length_c                    34.503143
_cell_angle_alpha                 90.015615
_cell_angle_beta                  89.87741
_cell_angle_gamma                 119.981197
_cell_volume                      7408.2511682

loop_
_atom_site_label
_atom_site_type_symbol
_atom_type_description
_atom_site_fract_x
_atom_site_fract_y
_atom_site_fract_z
_atom_type_partial_charge
C1    C     C_R   0.577745 0.442080 0.554615 0.576932
C2    C     C_R   0.557755 0.135609 0.554566 0.599147
C3    C     C_R   0.864069 0.422014 0.554644 0.595984
C4    C     C_R   0.441882 0.578035 0.054756 0.594114
C5    C     C_R   0.135718 0.557920 0.054643 0.600607
C6    C     C_R   0.421886 0.863957 0.054689 0.572174
C7    C     C_R   0.990348 0.505087 0.712105 0.342253
C8    C     C_R   0.488515 0.492492 0.710536 0.339904
C9    C     C_R   0.506044 0.995078 0.710260 0.341000
C10   C     C_R   0.502385 0.984876 0.212838 0.341662
C11   C     C_R   0.480725 0.498201 0.213290 0.342835
C12   C     C_R   0.000423 0.510055 0.211162 0.341444
C13   C     C_R   0.994811 0.436404 0.854198 -0.107155
C14   C     C_R   0.561789 0.573683 0.851614 -0.104734
C15   C     C_R   0.430002 0.990902 0.852015 -0.105255
C16   C     C_R   0.435252 0.990376 0.355169 -0.106965
C17   C     C_R   0.558654 0.566866 0.354972 -0.106470
C18   C     C_R   0.990952 0.427803 0.352226 -0.104323
C19   C     C_R   0.028218 0.445617 0.892380 0.126039
C20   C     C_R   0.555069 0.591884 0.890868 0.130200
C21   C     C_R   0.412104 0.965986 0.891303 0.130185
C22   C     C_R   0.445057 0.025274 0.393165 0.126612
C23   C     C_R   0.584117 0.556656 0.392822 0.124962
C24   C     C_R   0.964693 0.408780 0.391342 0.130401
C25   C     C_R   0.085285 0.620358 0.889413 -0.164005
C26   C     C_R   0.384888 0.460514 0.890737 -0.165028
C27   C     C_R   0.535580 0.916053 0.889413 -0.153788
C28   C     C_R   0.620288 0.084978 0.389413 -0.163408
C29   C     C_R   0.460170 0.383897 0.390890 -0.158703
C30   C     C_R   0.927244 0.541105 0.391200 -0.164382
C31   C     C_R   0.052668 0.610463 0.851345 -0.133156
C32   C     C_R   0.393021 0.441828 0.851847 -0.135234
C33   C     C_R   0.554287 0.943250 0.850599 -0.132752
C34   C     C_R   0.609800 0.050844 0.351550 -0.133080
C35   C     C_R   0.436448 0.394555 0.353031 -0.135855
C36   C     C_R   0.955244 0.560510 0.352423 -0.135311
C37   C     C_R   0.012216 0.519407 0.832855 0.008948
C38   C     C_R   0.479763 0.502168 0.831503 0.010937
C39   C     C_R   0.497735 0.975565 0.831140 0.009270
C40   C     C_R   0.518106 0.008261 0.333514 0.009073
C41   C     C_R   0.489614 0.484884 0.334101 0.009289
C42   C     C_R   0.981551 0.500067 0.332120 0.011042
C43   C     C_R   0.078578 0.539509 0.909574 0.051268
C44   C     C_R   0.463120 0.539887 0.909801 0.045768
C45   C     C_R   0.460367 0.921258 0.909436 0.045835
C46   C     C_R   0.539387 0.077636 0.409828 0.051811
C47   C     C_R   0.538236 0.462830 0.410259 0.053342
C48   C     C_R   0.924601 0.460797 0.410137 0.047038
C49   C     C_R   0.577591 0.442574 0.445705 0.574859
C50   C     C_R   0.557797 0.135314 0.445646 0.579479
C51   C     C_R   0.865427 0.422562 0.445816 0.563077
C52   C     C_R   0.442779 0.577555 0.945753 0.561034
C53   C     C_R   0.135441 0.557785 0.945600 0.581678
C54   C     C_R   0.422479 0.864808 0.945654 0.562091
C55   C     C_R   0.917672 0.453603 0.591665 -0.011896
C56   C     C_R   0.544366 0.464995 0.591131 -0.031705
C57   C     C_R   0.534359 0.079200 0.591011 -0.011700
C58   C     C_R   0.452696 0.916405 0.091969 -0.032430
C59   C     C_R   0.462961 0.547010 0.092156 -0.011752
C60   C     C_R   0.080143 0.535343 0.091340 -0.011908
C61   C     C_R   0.906253 0.378802 0.616797 -0.175740
C62   C     C_R   0.617818 0.531371 0.615990 -0.167577
C63   C     C_R   0.468648 0.087254 0.616059 -0.172533
C64   C     C_R   0.377349 0.903355 0.117201 -0.169054
C65   C     C_R   0.525955 0.622211 0.117172 -0.176157
C66   C     C_R   0.087868 0.469340 0.116249 -0.173157
C67   C     C_R   0.934708 0.398455 0.654993 -0.157930
C68   C     C_R   0.596627 0.542472 0.653794 -0.155125
C69   C     C_R   0.457101 0.054585 0.653790 -0.155758
C70   C     C_R   0.396357 0.930205 0.155580 -0.154813
C71   C     C_R   0.533239 0.603420 0.155649 -0.157801
C72   C     C_R   0.056940 0.459148 0.154230 -0.155786
C73   C     C_R   0.976089 0.493763 0.669657 -0.010764
C74   C     C_R   0.501177 0.487609 0.668309 -0.006279
C75   C     C_R   0.510831 0.012605 0.668040 -0.010306
C76   C     C_R   0.491565 0.971711 0.170324 -0.006112
C77   C     C_R   0.478246 0.508584 0.170736 -0.010676
C78   C     C_R   0.017082 0.514540 0.168873 -0.010039
C79   C     C_R   0.998632 0.572645 0.643762 0.124007
C80   C     C_R   0.423488 0.427777 0.642636 0.129785
C81   C     C_R   0.569809 0.993707 0.642128 0.124729
C82   C     C_R   0.570912 0.995847 0.144391 0.128981
C83   C     C_R   0.422095 0.429205 0.145078 0.124103
C84   C     C_R   0.998612 0.574069 0.143214 0.124145
C85   C     C_R   0.969644 0.552514 0.604322 0.272534
C86   C     C_R   0.445008 0.416952 0.603553 0.224876
C87   C     C_R   0.581150 0.026567 0.603125 0.272915
C88   C     C_R   0.551404 0.968312 0.104792 0.223066
C89   C     C_R   0.414760 0.448441 0.105357 0.273892
C90   C     C_R   0.029507 0.583915 0.103949 0.273176
C91   C     C_R   0.999307 0.512513 0.790623 0.347504
C92   C     C_R   0.483251 0.496924 0.789052 0.347630
C93   C     C_R   0.502586 0.985073 0.788750 0.347777
C94   C     C_R   0.510373 0.994023 0.291348 0.347560
C95   C     C_R   0.482812 0.491680 0.291853 0.347576
C96   C     C_R   0.990888 0.505648 0.289684 0.347425
Cr1   Cr    Cr6+3 0.522350 0.263930 0.500020 1.123499
Cr2   Cr    Cr6+3 0.736070 0.258420 0.500020 1.094130
Cr3   Cr    Cr6+3 0.741580 0.477650 0.500020 1.089425
Cr4   Cr    Cr6+3 0.263930 0.522350 0.000020 1.092540
Cr5   Cr    Cr6+3 0.258420 0.736070 0.000020 1.092598
Cr6   Cr    Cr6+3 0.477650 0.741580 0.000020 1.122339
H1    H     H_    0.868586 0.302743 0.607721 0.187073
H2    H     H_    0.694061 0.570708 0.607069 0.187785
H3    H     H_    0.430263 0.125215 0.607346 0.186902
H4    H     H_    0.301391 0.865550 0.108021 0.188447
H5    H     H_    0.565187 0.698018 0.107737 0.185924
H6    H     H_    0.124334 0.429673 0.107204 0.188244
H7    H     H_    0.918483 0.336825 0.673658 0.167854
H8    H     H_    0.657211 0.590265 0.672417 0.165561
H9    H     H_    0.409939 0.068210 0.672559 0.167333
H10   H     H_    0.334347 0.912765 0.174263 0.166503
H11   H     H_    0.578500 0.665394 0.174138 0.167654
H12   H     H_    0.070178 0.411582 0.172849 0.167151
H13   H     H_    0.959697 0.364816 0.840608 0.136530
H14   H     H_    0.630723 0.617550 0.836532 0.132619
H15   H     H_    0.388922 0.019922 0.837513 0.131838
H16   H     H_    0.363257 0.953662 0.341951 0.135813
H17   H     H_    0.597070 0.638198 0.341175 0.137146
H18   H     H_    0.016035 0.383881 0.337217 0.132642
H19   H     H_    0.122315 0.693079 0.902012 0.146245
H20   H     H_    0.314926 0.417233 0.905049 0.122395
H21   H     H_    0.574998 0.883755 0.902793 0.153052
H22   H     H_    0.693363 0.123553 0.401631 0.146630
H23   H     H_    0.421753 0.311919 0.403992 0.129627
H24   H     H_    0.900959 0.584672 0.405520 0.122329
H25   H     H_    0.065582 0.675391 0.835617 0.147307
H26   H     H_    0.329312 0.384719 0.837129 0.141373
H27   H     H_    0.607980 0.932167 0.835190 0.147173
H28   H     H_    0.674666 0.064235 0.335587 0.146891
H29   H     H_    0.381351 0.330513 0.337797 0.142160
H30   H     H_    0.949620 0.618277 0.337734 0.140664
N1    N     N_R   0.002392 0.439422 0.771126 -0.227184
N2    N     N_R   0.550290 0.576001 0.768801 -0.226871
N3    N     N_R   0.424480 0.976543 0.768944 -0.226900
N4    N     N_R   0.435901 0.994798 0.272077 -0.227767
N5    N     N_R   0.559130 0.564097 0.272117 -0.228075
N6    N     N_R   0.978874 0.426591 0.269478 -0.228035
N7    N     N_R   0.997729 0.435680 0.732720 -0.230245
N8    N     N_R   0.553031 0.573707 0.730385 -0.232424
N9    N     N_R   0.426316 0.981713 0.730530 -0.231627
N10   N     N_R   0.431894 0.990040 0.233674 -0.230222
N11   N     N_R   0.557943 0.567410 0.233706 -0.229675
N12   N     N_R   0.983827 0.428870 0.231064 -0.231273
N13   N     N_R   0.986848 0.578110 0.731653 -0.231391
N14   N     N_R   0.421019 0.413387 0.730793 -0.230227
N15   N     N_R   0.584180 0.003333 0.730099 -0.230150
N16   N     N_R   0.576614 0.983367 0.232170 -0.231934
N17   N     N_R   0.403940 0.425937 0.233060 -0.232455
N18   N     N_R   0.012162 0.589215 0.231370 -0.230987
N19   N     N_R   0.992384 0.582467 0.770178 -0.223775
N20   N     N_R   0.417706 0.415843 0.769334 -0.224209
N21   N     N_R   0.582152 0.997375 0.768619 -0.222528
N22   N     N_R   0.581227 0.989001 0.270688 -0.223983
N23   N     N_R   0.405371 0.422026 0.271607 -0.225159
N24   N     N_R   0.006469 0.586771 0.269918 -0.224329
O1    O     O_R   0.498680 0.159540 0.541860 -0.499091
O2    O     O_R   0.840460 0.339140 0.541860 -0.508108
O3    O     O_R   0.660860 0.501320 0.541860 -0.504078
O4    O     O_R   0.159540 0.498680 0.041860 -0.500623
O5    O     O_R   0.339140 0.840460 0.041860 -0.509422
O6    O     O_R   0.501320 0.660860 0.041860 -0.507757
O7    O     O_R   0.532760 0.358060 0.540030 -0.433190
O8    O     O_R   0.641940 0.174700 0.540030 -0.446733
O9    O     O_R   0.825300 0.467240 0.540030 -0.444560
O10   O     O_R   0.358060 0.532760 0.040030 -0.445920
O11   O     O_R   0.174700 0.641940 0.040030 -0.444488
O12   O     O_R   0.467240 0.825300 0.040030 -0.434338
O13   O     O_R   0.498590 0.161190 0.456930 -0.485298
O14   O     O_R   0.838810 0.337400 0.456930 -0.482712
O15   O     O_R   0.662600 0.501410 0.456930 -0.488062
O16   O     O_R   0.161190 0.498590 0.956930 -0.485250
O17   O     O_R   0.337400 0.838810 0.956930 -0.486577
O18   O     O_R   0.501410 0.662600 0.956930 -0.479133
O19   O     O_R   0.532680 0.359580 0.461300 -0.500453
O20   O     O_R   0.640420 0.173100 0.461300 -0.510609
O21   O     O_R   0.826900 0.467320 0.461300 -0.512590
O22   O     O_R   0.359580 0.532680 0.961300 -0.514418
O23   O     O_R   0.173100 0.640420 0.961300 -0.510115
O24   O     O_R   0.467320 0.826900 0.961300 -0.494717
O25   O     O_3   0.666667 0.333333 0.499990 -0.296575
O26   O     O_3   0.333333 0.666667 0.999990 -0.295837
S1    S     S_3+6 0.997793 0.650102 0.571235 0.044102
O27   O     O_2   0.912289 0.667565 0.569933 -0.273205
O28   O     O_2   0.087862 0.743177 0.583334 -0.235632
O29   O     O_3   0.017439 0.619708 0.526687 -0.532329
H31   H     H_    0.015868 0.668549 0.509060 0.361361
S2    S     S_3+6 0.348391 0.344033 0.570642 0.051084
O30   O     O_2   0.333853 0.242179 0.570209 -0.229961
O31   O     O_2   0.253507 0.338122 0.582229 -0.242873
O32   O     O_3   0.377404 0.391035 0.525606 -0.504656
H32   H     H_    0.389530 0.458879 0.528103 0.330225
S3    S     S_3+6 0.653230 0.002111 0.569919 0.045442
O33   O     O_2   0.755608 0.088664 0.569512 -0.275267
O34   O     O_2   0.657323 0.912064 0.581212 -0.238367
O35   O     O_3   0.605133 0.984850 0.525147 -0.522171
H33   H     H_    0.657057 0.989324 0.507574 0.362028
S4    S     S_3+6 0.649641 0.998190 0.071716 0.053882
O36   O     O_2   0.742375 0.088286 0.084080 -0.238615
O37   O     O_2   0.668287 0.913528 0.070003 -0.228878
O38   O     O_3   0.620172 0.017971 0.027090 -0.504190
H34   H     H_    0.605204 0.071629 0.030410 0.325986
S5    S     S_3+6 0.345521 0.350142 0.072601 0.039619
O39   O     O_2   0.341499 0.257037 0.085473 -0.243944
O40   O     O_2   0.242887 0.333431 0.070704 -0.271942
O41   O     O_3   0.396520 0.379009 0.028160 -0.536007
H35   H     H_    0.346244 0.329995 0.010583 0.358360
S6    S     S_3+6 0.005081 0.656388 0.071046 0.043264
O42   O     O_2   0.916165 0.661973 0.083003 -0.240100
O43   O     O_2   0.092462 0.758228 0.070199 -0.276585
O44   O     O_3   0.985572 0.607559 0.026318 -0.524306
H36   H     H_    0.989219 0.659210 0.008855 0.359877
N25   N     N_2   0.012363 0.360718 0.913002 -0.483620
H37   H     H_    0.939216 0.307762 0.914430 0.259043
C97   C     C_3   0.072440 0.320443 0.900066 -0.273635
H38   H     H_    0.049900 0.288301 0.870637 0.129953
H39   H     H_    0.063752 0.261979 0.920398 0.160791
H40   H     H_    0.150846 0.378322 0.899439 0.163354
N26   N     N_2   0.639454 0.666042 0.910296 -0.496846
H41   H     H_    0.691902 0.718069 0.892199 0.247197
C98   C     C_3   0.681308 0.629032 0.938293 -0.259896
H42   H     H_    0.709226 0.585134 0.923452 0.140165
H43   H     H_    0.743236 0.691470 0.953407 0.165637
H44   H     H_    0.625908 0.582804 0.960376 0.178362
N27   N     N_2   0.341788 0.981057 0.911588 -0.497233
H45   H     H_    0.291223 0.985584 0.894026 0.246241
C99   C     C_3   0.383467 0.059053 0.939962 -0.266589
H46   H     H_    0.430482 0.130600 0.925376 0.140102
H47   H     H_    0.427769 0.045697 0.961541 0.168552
H48   H     H_    0.323557 0.062432 0.955640 0.161884
N28   N     N_2   0.360264 0.008469 0.414205 -0.484913
H49   H     H_    0.308531 0.935016 0.416159 0.256433
C100  C     C_3   0.317509 0.066194 0.401208 -0.272262
H50   H     H_    0.284825 0.042145 0.371944 0.127695
H51   H     H_    0.373999 0.145048 0.400193 0.163950
H52   H     H_    0.258983 0.056692 0.421733 0.163545
N29   N     N_2   0.657158 0.640406 0.412757 -0.486560
H53   H     H_    0.640444 0.695817 0.414612 0.255764
C101  C     C_3   0.755866 0.676091 0.398609 -0.276043
H54   H     H_    0.765093 0.709098 0.369346 0.129892
H55   H     H_    0.772152 0.615291 0.397085 0.163621
H56   H     H_    0.808917 0.732864 0.418683 0.157572
N30   N     N_2   0.973769 0.333833 0.410748 -0.500252
H57   H     H_    0.974276 0.281964 0.392614 0.245843
C102  C     C_3   0.051848 0.369783 0.439040 -0.257220
H58   H     H_    0.050422 0.306792 0.454120 0.168507
H59   H     H_    0.124102 0.413525 0.424473 0.143251
H60   H     H_    0.042514 0.415874 0.461112 0.179567
N31   N     N_2   0.049740 0.671691 0.656680 -0.448959
H61   H     H_    0.013040 0.689523 0.676910 0.281570
C103  C     C_3   0.152875 0.710768 0.664775 -0.237294
H62   H     H_    0.162898 0.674561 0.690555 0.140319
H63   H     H_    0.187841 0.790623 0.670580 0.172717
H64   H     H_    0.190131 0.699972 0.639429 0.177745
N32   N     N_2   0.324241 0.378256 0.655494 -0.448486
H65   H     H_    0.307936 0.325721 0.676448 0.281290
C104  C     C_3   0.282490 0.440521 0.662566 -0.242930
H66   H     H_    0.317174 0.488196 0.688136 0.138675
H67   H     H_    0.202654 0.394218 0.668230 0.172592
H68   H     H_    0.292647 0.486999 0.636785 0.172522
N33   N     N_2   0.618043 0.942535 0.654659 -0.448815
H69   H     H_    0.671182 0.978098 0.675409 0.281405
C105  C     C_3   0.554545 0.838724 0.661694 -0.238732
H70   H     H_    0.507179 0.826366 0.687386 0.139698
H71   H     H_    0.599887 0.804054 0.667125 0.171871
H72   H     H_    0.507709 0.803025 0.635980 0.177237
N34   N     N_2   0.669834 0.047144 0.157406 -0.449314
H73   H     H_    0.687920 0.010192 0.177357 0.281839
C106  C     C_3   0.708245 0.149966 0.165967 -0.239627
H74   H     H_    0.671473 0.159080 0.191814 0.141361
H75   H     H_    0.697511 0.187638 0.140808 0.172595
H76   H     H_    0.788059 0.185190 0.171879 0.173352
N35   N     N_2   0.372850 0.330523 0.158508 -0.448115
H77   H     H_    0.318244 0.314016 0.178574 0.280746
C107  C     C_3   0.435740 0.290462 0.167320 -0.239296
H78   H     H_    0.481758 0.326984 0.193082 0.139738
H79   H     H_    0.483989 0.299919 0.142191 0.176861
H80   H     H_    0.389940 0.210861 0.173499 0.170012
N36   N     N_2   0.949819 0.624346 0.156267 -0.448924
H81   H     H_    0.986970 0.677173 0.176985 0.280103
C108  C     C_3   0.845995 0.562743 0.163922 -0.238822
H82   H     H_    0.833554 0.515501 0.189621 0.137927
H83   H     H_    0.808646 0.515836 0.138390 0.179470
H84   H     H_    0.813084 0.609566 0.169671 0.170927

loop_
_geom_bond_atom_site_label_1
_geom_bond_atom_site_label_2
_ccdc_geom_bond_type
C25   C31   A    
C105  H72   S    
C7    N7    A    
S5    O39   D    
C30   H24   S    
C81   N33   S    
Cr1   O19   S    
C80   N32   S    
C29   H23   S    
Cr4   O16   S    
Cr6   O24   S    
O38   H34   S    
C6    C58   S    
C36   C42   A    
C107  H78   S    
C31   H25   S    
C97   H38   S    
Cr4   O22   S    
C25   C43   A    
N32   C104  S    
C9    C75   S    
C2    C57   S    
C26   C44   A    
C103  H62   S    
C7    C73   S    
C41   C95   S    
N25   H37   S    
C27   C33   A    
C108  H84   S    
C26   C32   A    
S5    O40   D    
C17   H17   S    
C28   C46   A    
N31   H61   S    
C17   C23   A    
N16   N22   A    
C29   C47   A    
S2    O32   S    
C18   C24   A    
C54   O17   A    
Cr4   O10   S    
C61   H1    S    
C1    C56   S    
C10   N16   A    
Cr3   O21   S    
C98   H44   S    
Cr3   O3    S    
S1    O28   D    
C96   N6    A    
N33   H69   S    
C23   N29   S    
C82   C88   A    
C103  H63   S    
N26   C98   S    
C77   C83   A    
C68   C74   A    
N30   H57   S    
C22   C46   A    
C84   N36   S    
C38   C92   S    
C72   H12   S    
Cr1   O13   S    
C71   H11   S    
C24   N30   S    
C50   O20   A    
C104  H66   S    
C59   C89   A    
C88   S4    S    
Cr5   O11   S    
C99   H46   S    
Cr4   O4    S    
C39   C93   S    
C80   C86   A    
C11   C77   S    
C53   O16   A    
N35   C107  S    
C18   H18   S    
C3    C55   S    
C11   N17   A    
C48   C51   S    
C66   C72   A    
C22   N28   S    
C63   C69   A    
S2    O31   D    
C19   C43   A    
S6    O42   D    
S3    O34   D    
C12   C78   S    
C92   N20   A    
C3    O2    A    
N4    N10   A    
N36   H81   S    
C10   N10   A    
S4    O36   D    
C67   C73   A    
C32   C38   A    
C63   H3    S    
Cr4   O26   S    
C100  H50   S    
C7    N13   A    
C13   C37   A    
Cr6   O6    S    
C56   C62   A    
C66   H6    S    
C27   C45   A    
C95   N23   A    
C12   N12   A    
N5    N11   A    
O29   H31   S    
C28   C34   A    
Cr5   O5    S    
C85   S1    S    
N18   N24   A    
C106  H74   S    
C79   N31   S    
C54   O24   A    
C84   C90   A    
C21   C45   A    
N15   N21   A    
C53   O23   A    
C20   C44   A    
C43   C53   S    
C57   C63   A    
C62   H2    S    
C67   H7    S    
N25   C97   S    
C101  H54   S    
C58   C64   A    
N29   C101  S    
C83   C89   A    
S5    O41   S    
C6    O12   A    
N31   C103  S    
C17   C41   A    
C95   N5    A    
Cr5   O17   S    
C37   C91   S    
O32   H32   S    
Cr6   O26   S    
C12   N18   A    
C105  H70   S    
C107  H80   S    
C23   C47   A    
C60   C90   A    
C87   S3    S    
C47   C49   S    
S1    O29   S    
C76   C82   A    
N26   H41   S    
C49   O15   A    
C106  H75   S    
C27   H21   S    
O41   H35   S    
C75   C81   A    
C103  H64   S    
C68   H8    S    
N30   C102  S    
C108  H82   S    
C65   C71   A    
C9    N15   A    
C78   C84   A    
C57   C87   A    
C31   C37   A    
S2    O30   D    
C104  H67   S    
C52   O22   A    
Cr1   O1    S    
C55   C85   A    
S1    O27   D    
C98   H42   S    
Cr5   O23   S    
C16   H16   S    
C14   C38   A    
C18   C42   A    
Cr2   O20   S    
C61   C67   A    
C24   C48   A    
C56   C86   A    
O44   H36   S    
C91   N1    A    
C6    O5    A    
C1    O3    A    
C94   N22   A    
C5    O4    A    
C74   C80   A    
S4    O38   S    
C8    C74   S    
N27   H45   S    
C73   C79   A    
C101  H55   S    
C33   C39   A    
C64   H4    S    
C100  H51   S    
C15   C39   A    
C81   C87   A    
C70   H10   S    
C16   C40   A    
N14   N20   A    
C89   S5    S    
C45   C54   S    
N1    N7    A    
C64   C70   A    
C102  H59   S    
C70   C76   A    
C20   N26   S    
C42   C96   S    
C97   H40   S    
C108  H83   S    
C2    O8    A    
N32   H65   S    
C52   O18   A    
C71   C77   A    
C3    O9    A    
N33   C105  S    
C14   C20   A    
C30   C48   A    
C8    N14   A    
C105  H71   S    
C46   C50   S    
C33   H27   S    
C16   C22   A    
C5    C60   S    
C107  H79   S    
C106  H76   S    
C10   C76   S    
C51   O14   A    
C92   N2    A    
C82   N34   S    
C40   C94   S    
O35   H33   S    
C93   N3    A    
C58   C88   A    
C86   S2    S    
Cr2   O8    S    
N34   H73   S    
C28   H22   S    
Cr1   O25   S    
Cr6   O18   S    
N2    N8    A    
N13   N19   A    
C13   H13   S    
C21   N27   S    
C29   C35   A    
C30   C36   A    
C8    N8    A    
C104  H68   S    
C15   H15   S    
C32   H26   S    
Cr2   O25   S    
C36   H30   S    
N17   N23   A    
C35   H29   S    
C98   H43   S    
C99   H47   S    
C51   O21   A    
C59   C65   A    
S3    O35   S    
C91   N19   A    
C69   H9    S    
C44   C52   S    
C96   N24   A    
C15   C21   A    
C25   H19   S    
N6    N12   A    
C2    O1    A    
C14   H14   S    
C55   C61   A    
C4    C59   S    
C93   N21   A    
N27   C99   S    
C79   C85   A    
C4    O10   A    
C83   N35   S    
C69   C75   A    
C101  H56   S    
C4    O6    A    
C62   C68   A    
N36   C108  S    
C1    O7    A    
C90   S6    S    
C35   C41   A    
C100  H52   S    
N29   H53   S    
Cr3   O25   S    
C97   H39   S    
C9    N9    A    
C50   O13   A    
N28   C100  S    
C60   C66   A    
Cr6   O12   S    
Cr2   O14   S    
Cr2   O2    S    
N3    N9    A    
C99   H48   S    
Cr3   O15   S    
C34   H28   S    
S6    O43   D    
S3    O33   D    
S6    O44   S    
C102  H60   S    
C72   C78   A    
N28   H49   S    
C13   C19   A    
C34   C40   A    
C94   N4    A    
S4    O37   D    
C26   H20   S    
C19   N25   S    
C5    O11   A    
C102  H58   S    
C11   N11   A    
C65   H5    S    
Cr5   O26   S    
N34   C106  S    
Cr1   O7    S    
Cr3   O9    S    
C49   O19   A    
N35   H77   S    
