data_mof_unit_30058.cif
_audit_creation_date              2012-12-10T19:08:07-0500
_audit_creation_method            fapswitch 2.2
_symmetry_space_group_name_H-M    P1
_symmetry_Int_Tables_number       1
_space_group_crystal_system       triclinic
_cell_length_a                    9.07536
_cell_length_b                    10.809081
_cell_length_c                    9.574826
_cell_angle_alpha                 90.346474
_cell_angle_beta                  89.473046
_cell_angle_gamma                 89.768612
_cell_volume                      939.190248284

loop_
_atom_site_label
_atom_site_type_symbol
_atom_type_description
_atom_site_fract_x
_atom_site_fract_y
_atom_site_fract_z
_atom_type_partial_charge
C1    C     C_R   0.495404 0.262812 0.499406 0.838647
C2    C     C_R   0.387947 0.934816 0.413122 0.115575
C3    C     C_R   0.489560 0.870920 0.498120 -0.174448
C4    C     C_R   0.596439 0.937043 0.569772 0.090015
C5    C     C_3   0.637995 0.933151 0.720225 -0.450168
C6    C     C_3   0.640674 0.073358 0.717829 -0.416180
C7    C     C_R   0.627585 0.520218 0.072135 0.234171
C8    C     C_R   0.378217 0.466884 0.074980 -0.013774
C9    C     C_R   0.378391 0.466458 0.926601 -0.055538
C10   C     C_R   0.626065 0.522471 0.925071 0.230359
C11   C     C_3   0.715484 0.636800 0.918056 -0.510404
C12   C     C_R   0.220767 0.499791 0.500452 0.869709
C13   C     C_3   0.723701 0.632521 0.076173 -0.044130
C14   C     C_R   0.495375 0.737413 0.500136 0.841999
C15   C     C_R   0.779227 0.499630 0.499778 0.850591
C16   C     C_1   0.065588 0.499379 0.501056 -0.121182
C17   C     C_1   0.934441 0.499282 0.500185 -0.131318
C18   C     C_R   0.597358 0.064101 0.568214 0.085471
C19   C     C_R   0.490820 0.129686 0.495861 -0.166564
C20   C     C_R   0.388192 0.065496 0.412308 0.108737
Cu1   Cu    Cu3+1 0.499990 0.499980 0.640670 0.958098
Cu2   Cu    Cu3+1 0.500010 0.500020 0.359330 1.006774
H1    H     H_    0.650426 0.716379 0.880000 0.191894
H2    H     H_    0.670569 0.713137 0.129202 0.174651
H3    H     H_    0.548235 0.896242 0.787684 0.211344
H4    H     H_    0.748628 0.891151 0.735567 0.206736
H5    H     H_    0.553976 0.116678 0.785082 0.217126
H6    H     H_    0.753004 0.112308 0.730159 0.206331
H7    H     H_    0.278715 0.441242 0.130101 0.186975
H8    H     H_    0.279088 0.440435 0.872625 0.160428
H9    H     H_    0.822091 0.621435 0.862535 0.224333
N1    N     N_R   0.500920 0.500930 0.147930 -0.206812
N2    N     N_R   0.500930 0.500890 0.852020 -0.192768
O1    O     O_R   0.500000 0.319640 0.618810 -0.586318
O2    O     O_R   0.500020 0.319680 0.381230 -0.557326
O3    O     O_R   0.288380 0.499980 0.618770 -0.596866
O4    O     O_R   0.288400 0.500020 0.381190 -0.556603
O5    O     O_R   0.499980 0.680320 0.618770 -0.581566
O6    O     O_R   0.500000 0.680360 0.381190 -0.564481
O7    O     O_R   0.711600 0.499980 0.618810 -0.589964
O8    O     O_R   0.711620 0.500020 0.381230 -0.554886
I1    I     I_    0.222316 0.165272 0.300587 -0.324982
I2    I     I_    0.943841 0.590055 0.139444 -0.343672
I3    I     I_    0.223222 0.835296 0.300656 -0.270014

loop_
_geom_bond_atom_site_label_1
_geom_bond_atom_site_label_2
_ccdc_geom_bond_type
C7    C10   A    
C20   I1    S    
Cu1   O1    S    
C14   O5    A    
C19   C20   A    
C6    H5    S    
C7    C13   S    
C4    C18   A    
C2    C3    A    
C11   H9    S    
Cu1   O3    S    
Cu1   Cu2   S    
C9    N2    A    
Cu2   O2    S    
C11   C13   S    
C15   O8    A    
C16   C17   T    
C3    C14   S    
Cu2   N1    S    
C9    H8    S    
C5    H3    S    
C8    H7    S    
C11   H1    S    
C1    O1    A    
C10   N2    A    
C5    C6    S    
C6    C18   S    
C15   O7    A    
C1    C19   S    
Cu2   O8    S    
C12   O3    A    
C10   C11   S    
Cu2   O6    S    
C2    C20   A    
C5    H4    S    
C8    N1    A    
C12   C16   S    
C13   I2    S    
Cu1   N2    S    
C1    O2    A    
C18   C19   A    
C12   O4    A    
C15   C17   S    
C8    C9    A    
C7    N1    A    
C14   O6    A    
Cu2   O4    S    
C6    H6    S    
Cu1   O5    S    
C3    C4    A    
C13   H2    S    
C2    I3    S    
C4    C5    S    
Cu1   O7    S    
