data_mof_unit_57861.cif
_audit_creation_date              2012-12-10T17:50:32-0500
_audit_creation_method            fapswitch 2.2
_symmetry_space_group_name_H-M    P1
_symmetry_Int_Tables_number       1
_space_group_crystal_system       triclinic
_cell_length_a                    15.679802
_cell_length_b                    10.607054
_cell_length_c                    9.975307
_cell_angle_alpha                 89.924411
_cell_angle_beta                  92.078582
_cell_angle_gamma                 90.262124
_cell_volume                      1657.94813305

loop_
_atom_site_label
_atom_site_type_symbol
_atom_type_description
_atom_site_fract_x
_atom_site_fract_y
_atom_site_fract_z
_atom_type_partial_charge
C1    C     C_R   0.498493 0.260847 0.499878 0.860917
C2    C     C_3   0.083054 0.495393 0.497304 0.172360
C3    C     C_3   0.976009 0.587659 0.584113 -0.210153
C4    C     C_3   0.917501 0.496039 0.504980 0.195866
C5    C     C_3   0.027227 0.608059 0.456005 -0.159190
C6    C     C_3   0.967176 0.516290 0.376919 -0.201313
C7    C     C_1   0.173829 0.496337 0.494373 -0.088080
C8    C     C_1   0.826507 0.497359 0.507410 -0.069361
C9    C     C_R   0.342826 0.130040 0.564188 -0.189231
C10   C     C_R   0.269803 0.063717 0.598787 -0.139617
C11   C     C_R   0.270569 0.932471 0.602391 -0.136354
C12   C     C_R   0.338183 0.499466 0.497998 0.875305
C13   C     C_R   0.344198 0.867205 0.570615 -0.174793
C14   C     C_R   0.418793 0.933241 0.535801 0.093601
C15   C     C_R   0.418366 0.065315 0.534048 0.095794
C16   C     C_R   0.493589 0.128409 0.498857 -0.085323
C17   C     C_R   0.566053 0.065027 0.460135 -0.200370
C18   C     C_R   0.566064 0.936060 0.459870 -0.211334
C19   C     C_R   0.493845 0.871450 0.499322 -0.087690
C20   C     C_R   0.344226 0.472486 0.112773 0.244926
C21   C     C_R   0.281514 0.392626 0.051934 0.224725
C22   C     C_R   0.297736 0.336701 0.928238 -0.255566
C23   C     C_R   0.498746 0.739122 0.499836 0.855821
C24   C     C_R   0.371546 0.368826 0.861724 -0.176369
C25   C     C_R   0.434069 0.444761 0.925352 0.113301
C26   C     C_R   0.427636 0.466912 0.065111 0.076416
C27   C     C_R   0.568108 0.541181 0.076425 -0.090280
C28   C     C_R   0.566580 0.548238 0.934066 0.127110
C29   C     C_R   0.661897 0.499951 0.502150 0.901551
C30   C     C_3   0.974043 0.384780 0.545659 0.251593
C31   C     C_3   0.024978 0.403483 0.417928 -0.179535
C32   C     C_1   0.249199 0.497689 0.494381 -0.204298
C33   C     C_1   0.751037 0.498665 0.506591 -0.197327
C34   C     C_3   0.033815 0.475028 0.625663 -0.169663
H1    H     H_    0.047069 0.327983 0.350625 0.140026
H2    H     H_    0.213737 0.881034 0.628572 0.134831
H3    H     H_    0.341889 0.765353 0.572350 0.139712
H4    H     H_    0.622826 0.886304 0.431012 0.143082
H5    H     H_    0.623413 0.575506 0.133466 0.161274
H6    H     H_    0.250464 0.276191 0.878849 0.165165
H7    H     H_    0.380339 0.329975 0.764062 0.203618
H8    H     H_    0.937949 0.533446 0.275540 0.142714
H9    H     H_    0.051487 0.699718 0.418920 0.137482
H10   H     H_    0.954015 0.662894 0.651791 0.141353
H11   H     H_    0.063128 0.457303 0.726909 0.135995
H12   H     H_    0.622855 0.115746 0.431681 0.145053
H13   H     H_    0.339219 0.231622 0.559199 0.119723
H14   H     H_    0.212343 0.114276 0.621898 0.131627
N1    N     N_R   0.499210 0.498800 0.142780 -0.132499
N2    N     N_R   0.499180 0.498720 0.857170 -0.123963
O1    O     O_R   0.500000 0.316780 0.614690 -0.630378
O2    O     O_R   0.499990 0.316750 0.385360 -0.601208
O3    O     O_R   0.376780 0.500000 0.614650 -0.628047
O4    O     O_R   0.376770 0.499980 0.385310 -0.608862
O5    O     O_R   0.500010 0.683250 0.614640 -0.624279
O6    O     O_R   0.500000 0.683220 0.385310 -0.618120
O7    O     O_R   0.623230 0.500020 0.614690 -0.633432
O8    O     O_R   0.623220 0.500000 0.385350 -0.617236
Zn1   Zn    Zn3+2 0.500010 0.500020 0.653130 0.928467
Zn2   Zn    Zn3+2 0.499990 0.499980 0.346870 0.944973
C35   C     C_3   0.314432 0.601307 0.156225 -0.829900
H15   H     H_    0.288558 0.653126 0.066967 0.214751
H16   H     H_    0.263307 0.595260 0.229709 0.239589
H17   H     H_    0.367832 0.658715 0.200147 0.259752
C36   C     C_3   0.195212 0.373902 0.110123 -0.927775
H18   H     H_    0.193453 0.409175 0.214481 0.250256
H19   H     H_    0.146011 0.423374 0.047159 0.241334
H20   H     H_    0.179538 0.271740 0.112674 0.238283
N3    N     N_3   0.638200 0.605727 0.873921 -0.473018
H21   H     H_    0.616720 0.665794 0.797112 0.235272
H22   H     H_    0.676468 0.534655 0.836565 0.212063
C37   C     C_3   0.942537 0.258410 0.596701 -0.955815
H23   H     H_    0.997800 0.195747 0.618642 0.239913
H24   H     H_    0.907041 0.272626 0.689695 0.247839
H25   H     H_    0.899653 0.213834 0.519342 0.246948

loop_
_geom_bond_atom_site_label_1
_geom_bond_atom_site_label_2
_ccdc_geom_bond_type
O5    Zn1   S    
C2    C7    S    
C4    C8    S    
O3    Zn1   S    
C23   O6    A    
O4    Zn2   S    
N1    Zn2   S    
N2    Zn1   S    
C11   H2    S    
C5    C6    S    
O7    Zn1   S    
O8    Zn2   S    
C15   C16   A    
C29   C33   S    
C35   H16   S    
C18   C19   A    
C20   C35   S    
N3    H22   S    
C25   N2    A    
O2    Zn2   S    
C28   N2    A    
C28   N3    S    
C27   H5    S    
C16   C17   A    
C36   H19   S    
C9    C10   A    
C13   H3    S    
C12   O3    A    
C2    C34   S    
C6    C31   S    
C5    H9    S    
C13   C14   A    
C12   C32   S    
C24   H7    S    
N3    H21   S    
C37   H25   S    
C3    H10   S    
C30   C34   S    
C24   C25   A    
C37   H24   S    
C26   N1    A    
C34   H11   S    
C3    C34   S    
C25   C26   A    
O6    Zn2   S    
C2    C31   S    
C35   H17   S    
C19   C23   S    
C36   H20   S    
C22   H6    S    
C17   C18   A    
C1    C16   S    
C29   O8    A    
C1    O1    A    
C4    C6    S    
C29   O7    A    
C9    H13   S    
C10   H14   S    
C22   C24   A    
C2    C5    S    
O1    Zn1   S    
C3    C4    S    
C7    C32   T    
C21   C36   S    
C14   C19   A    
C37   H23   S    
C3    C5    S    
C30   C37   S    
C17   H12   S    
C23   O5    A    
C18   H4    S    
C11   C13   A    
C30   C31   S    
C20   C26   A    
C31   H1    S    
C8    C33   T    
C9    C15   A    
C35   H15   S    
C1    O2    A    
C4    C30   S    
C10   C11   A    
C20   C21   A    
C36   H18   S    
C6    H8    S    
C27   C28   A    
C14   C15   A    
C21   C22   A    
C12   O4    A    
C27   N1    A    
