data_mof_unit_62293.cif
_audit_creation_date              2012-12-10T18:15:11-0500
_audit_creation_method            fapswitch 2.2
_symmetry_space_group_name_H-M    P1
_symmetry_Int_Tables_number       1
_space_group_crystal_system       triclinic
_cell_length_a                    22.501433
_cell_length_b                    22.469435
_cell_length_c                    14.664807
_cell_angle_alpha                 89.99989
_cell_angle_beta                  89.999882
_cell_angle_gamma                 90.0
_cell_volume                      7414.44556036

loop_
_atom_site_label
_atom_site_type_symbol
_atom_type_description
_atom_site_fract_x
_atom_site_fract_y
_atom_site_fract_z
_atom_type_partial_charge
C1    C     C_R   0.080080 0.419802 0.500000 0.819945
C2    C     C_R   0.080079 0.580198 0.500000 0.820115
C3    C     C_R   0.580080 0.919802 0.500000 0.820011
C4    C     C_R   0.580079 0.080198 0.500000 0.820047
C5    C     C_1   0.162609 0.662719 0.499999 -0.111798
C6    C     C_1   0.162614 0.337285 0.500000 -0.111962
C7    C     C_1   0.662609 0.162719 0.499999 -0.111943
C8    C     C_1   0.662613 0.837285 0.500000 -0.111823
C9    C     C_1   0.837363 0.337290 0.500000 -0.096387
C10   C     C_1   0.837360 0.662706 0.500000 -0.095610
C11   C     C_1   0.337364 0.837290 0.500000 -0.096054
C12   C     C_1   0.337360 0.162706 0.500000 -0.095935
C13   C     C_1   0.875107 0.375014 0.500000 -0.146597
C14   C     C_1   0.875104 0.624982 0.500000 -0.145465
C15   C     C_1   0.375108 0.875014 0.500000 -0.146125
C16   C     C_1   0.375104 0.124982 0.500000 -0.145927
C17   C     C_3   0.969183 0.557045 0.053427 0.508100
C18   C     C_3   0.969183 0.557044 0.946573 0.508100
C19   C     C_3   0.966356 0.444589 0.946573 0.508149
C20   C     C_3   0.966356 0.444589 0.053427 0.508144
C21   C     C_3   0.468040 0.056407 0.053427 0.508135
C22   C     C_3   0.468040 0.056407 0.946573 0.508134
C23   C     C_3   0.467476 0.943918 0.946573 0.508119
C24   C     C_3   0.467476 0.943918 0.053427 0.508120
C25   C     C_3   0.999521 0.500016 0.091900 -0.135924
C26   C     C_3   0.999521 0.500016 0.908100 -0.135926
C27   C     C_3   0.499520 0.000003 0.091900 -0.135930
C28   C     C_3   0.499520 0.000003 0.908100 -0.135931
C29   C     C_3   0.063856 0.498395 0.946698 -0.638037
C30   C     C_3   0.063856 0.498395 0.053302 -0.638035
C31   C     C_3   0.563874 0.999680 0.946698 -0.638034
C32   C     C_3   0.563874 0.999680 0.053302 -0.638035
C33   C     C_1   0.999965 0.500005 0.804903 0.269343
C34   C     C_1   0.999965 0.500005 0.195097 0.269340
C35   C     C_1   0.499964 0.000001 0.804903 0.269341
C36   C     C_1   0.499964 0.000001 0.195097 0.269338
C37   C     C_R   0.919896 0.419807 0.500000 0.827186
C38   C     C_R   0.919895 0.580192 0.500000 0.827377
C39   C     C_R   0.419896 0.919807 0.500000 0.827266
C40   C     C_R   0.419895 0.080192 0.500000 0.827298
C41   C     C_3   0.797596 0.251040 0.585269 -0.368821
C42   C     C_3   0.796744 0.251896 0.413661 -0.368548
C43   C     C_3   0.796801 0.748158 0.413730 -0.367970
C44   C     C_3   0.797541 0.748901 0.585340 -0.368214
C45   C     C_3   0.297487 0.751150 0.585411 -0.368536
C46   C     C_3   0.296856 0.751784 0.413798 -0.368333
C47   C     C_3   0.297189 0.248547 0.414213 -0.368352
C48   C     C_3   0.297155 0.248513 0.585830 -0.368340
C49   C     C_3   0.248091 0.703076 0.413796 -0.374882
C50   C     C_3   0.248721 0.702443 0.585413 -0.374871
C51   C     C_3   0.248393 0.297223 0.585832 -0.374873
C52   C     C_3   0.248427 0.297258 0.414211 -0.374873
C53   C     C_3   0.747979 0.203189 0.413659 -0.374867
C54   C     C_3   0.748831 0.202333 0.585271 -0.374853
C55   C     C_3   0.748779 0.797611 0.585343 -0.374885
C56   C     C_3   0.748039 0.796868 0.413728 -0.374898
C57   C     C_1   0.124867 0.624993 0.500000 -0.172781
C58   C     C_1   0.124870 0.375010 0.500000 -0.173087
C59   C     C_1   0.624866 0.124993 0.499999 -0.172944
C60   C     C_1   0.624869 0.875009 0.500000 -0.172933
C61   C     C_3   0.791324 0.291297 0.500000 0.306938
C62   C     C_3   0.791322 0.708701 0.500000 0.306012
C63   C     C_3   0.291325 0.791296 0.500000 0.306535
C64   C     C_3   0.291322 0.208701 0.500000 0.306411
C65   C     C_3   0.208649 0.708713 0.500000 0.319068
C66   C     C_3   0.208652 0.291289 0.500000 0.319174
C67   C     C_3   0.708649 0.208714 0.500000 0.319267
C68   C     C_3   0.708651 0.791288 0.500000 0.318981
C69   C     C_3   0.180001 0.771433 0.500790 -0.375904
C70   C     C_3   0.179999 0.228569 0.499957 -0.376076
C71   C     C_3   0.680002 0.271432 0.501069 -0.376014
C72   C     C_3   0.680001 0.728571 0.500928 -0.375970
C73   C     C_3   0.728765 0.320141 0.501069 -0.368466
C74   C     C_3   0.728761 0.679859 0.500929 -0.368507
C75   C     C_3   0.228765 0.820142 0.500791 -0.368501
C76   C     C_3   0.228759 0.179857 0.499957 -0.368465
Cu1   Cu    Cu3+1 0.999990 0.500000 0.589920 1.002457
Cu2   Cu    Cu3+1 0.999990 0.500000 0.410080 1.002452
Cu3   Cu    Cu3+1 0.499990 0.000000 0.589920 1.002456
Cu4   Cu    Cu3+1 0.499990 0.000000 0.410080 1.002452
H1    H     H_    0.269951 0.657702 0.586396 0.163357
H2    H     H_    0.269310 0.658346 0.411672 0.163415
H3    H     H_    0.269657 0.341994 0.412689 0.163411
H4    H     H_    0.269621 0.341958 0.587417 0.163414
H5    H     H_    0.770063 0.157590 0.586053 0.163315
H6    H     H_    0.769195 0.158462 0.411334 0.163392
H7    H     H_    0.769259 0.841595 0.411505 0.163485
H8    H     H_    0.770013 0.842352 0.586226 0.163415
H9    H     H_    0.842220 0.229661 0.586041 0.164439
H10   H     H_    0.841353 0.230533 0.411345 0.164597
H11   H     H_    0.841412 0.769520 0.411516 0.164876
H12   H     H_    0.842165 0.770276 0.586213 0.164730
H13   H     H_    0.342109 0.729772 0.586383 0.164575
H14   H     H_    0.341468 0.730417 0.411683 0.164695
H15   H     H_    0.341809 0.269918 0.412700 0.164674
H16   H     H_    0.341774 0.269883 0.587405 0.164681
H17   H     H_    0.792290 0.279798 0.351312 0.179231
H18   H     H_    0.793765 0.278315 0.648361 0.179111
H19   H     H_    0.793667 0.721584 0.648385 0.179795
H20   H     H_    0.792385 0.720298 0.351332 0.179891
H21   H     H_    0.292483 0.779604 0.351351 0.179509
H22   H     H_    0.293574 0.778508 0.648408 0.179422
H23   H     H_    0.292997 0.220911 0.648540 0.179564
H24   H     H_    0.293056 0.220971 0.351474 0.179559
H25   H     H_    0.220322 0.707534 0.351351 0.169209
H26   H     H_    0.221412 0.706439 0.648408 0.169180
H27   H     H_    0.220840 0.292985 0.648540 0.169134
H28   H     H_    0.220900 0.293045 0.351473 0.169133
H29   H     H_    0.720129 0.207728 0.351312 0.169071
H30   H     H_    0.721604 0.206247 0.648361 0.169032
H31   H     H_    0.721510 0.793657 0.648385 0.169254
H32   H     H_    0.720229 0.792372 0.351332 0.169285
H33   H     H_    0.723686 0.348664 0.562640 0.172722
H34   H     H_    0.723079 0.349275 0.440300 0.172446
H35   H     H_    0.723112 0.650766 0.440106 0.172598
H36   H     H_    0.723640 0.651296 0.562447 0.172847
H37   H     H_    0.223606 0.848745 0.562259 0.172771
H38   H     H_    0.223157 0.849197 0.439916 0.172564
H39   H     H_    0.223386 0.151040 0.438768 0.172653
H40   H     H_    0.223361 0.151016 0.561114 0.172643
H41   H     H_    0.151451 0.776671 0.562257 0.167174
H42   H     H_    0.151003 0.777122 0.439914 0.167089
H43   H     H_    0.151236 0.223119 0.438767 0.166984
H44   H     H_    0.151211 0.223095 0.561114 0.166980
H45   H     H_    0.651532 0.276590 0.562639 0.167086
H46   H     H_    0.650924 0.277200 0.440300 0.166973
H47   H     H_    0.650962 0.722845 0.440105 0.167025
H48   H     H_    0.651490 0.723374 0.562446 0.167127
H49   H     H_    0.989187 0.403614 0.077750 0.008405
H50   H     H_    0.989187 0.403614 0.922252 0.008405
H51   H     H_    0.994043 0.596817 0.922251 0.008586
H52   H     H_    0.994044 0.596817 0.077748 0.008584
H53   H     H_    0.491127 0.903413 0.077749 0.008521
H54   H     H_    0.491127 0.903413 0.922251 0.008522
H55   H     H_    0.492095 0.096672 0.922251 0.008460
H56   H     H_    0.492095 0.096672 0.077748 0.008459
H57   H     H_    0.089240 0.537591 0.078486 0.219113
H58   H     H_    0.089240 0.537591 0.921513 0.219113
H59   H     H_    0.087239 0.457969 0.921513 0.219150
H60   H     H_    0.087239 0.457969 0.078487 0.219150
H61   H     H_    0.588463 0.039381 0.078486 0.219089
H62   H     H_    0.588463 0.039381 0.921513 0.219089
H63   H     H_    0.588064 0.959734 0.921513 0.219176
H64   H     H_    0.588064 0.959734 0.078486 0.219176
N1    N     N_1   0.000150 0.500000 0.724970 -0.152430
N2    N     N_1   0.000150 0.500000 0.275030 -0.152431
N3    N     N_1   0.500150 0.000000 0.724970 -0.152430
N4    N     N_1   0.500150 0.000000 0.275030 -0.152431
O1    O     O_R   0.060270 0.439640 0.575970 -0.578818
O2    O     O_R   0.060270 0.439640 0.424030 -0.578819
O3    O     O_R   0.060270 0.560360 0.424030 -0.578551
O4    O     O_R   0.060270 0.560360 0.575970 -0.578550
O5    O     O_R   0.560270 0.939640 0.575970 -0.578703
O6    O     O_R   0.560270 0.939640 0.424030 -0.578704
O7    O     O_R   0.560270 0.060360 0.424030 -0.578671
O8    O     O_R   0.560270 0.060360 0.575970 -0.578670
O9    O     O_R   0.939710 0.439640 0.575970 -0.559992
O10   O     O_R   0.939710 0.439640 0.424030 -0.559996
O11   O     O_R   0.939710 0.560360 0.424030 -0.559281
O12   O     O_R   0.939710 0.560360 0.575970 -0.559278
O13   O     O_R   0.439710 0.939640 0.575970 -0.559699
O14   O     O_R   0.439710 0.939640 0.424030 -0.559702
O15   O     O_R   0.439710 0.060360 0.424030 -0.559567
O16   O     O_R   0.439710 0.060360 0.575970 -0.559568
F1    F     F_    0.911624 0.561948 0.913579 -0.544113
F2    F     F_    0.911625 0.561949 0.086421 -0.544118
F3    F     F_    0.908624 0.442591 0.086422 -0.544090
F4    F     F_    0.908624 0.442591 0.913579 -0.544086
F5    F     F_    0.410394 0.060148 0.913579 -0.544117
F6    F     F_    0.410394 0.060148 0.086421 -0.544117
F7    F     F_    0.409796 0.940756 0.086422 -0.544085
F8    F     F_    0.409796 0.940756 0.913579 -0.544081

loop_
_geom_bond_atom_site_label_1
_geom_bond_atom_site_label_2
_ccdc_geom_bond_type
C24   H53   S    
C49   H2    S    
C41   H9    S    
C6    C58   T    
C19   C20   S    
C75   H37   S    
C24   C27   S    
C41   C61   S    
C20   H49   S    
C45   H13   S    
C55   C68   S    
C2    C57   S    
Cu1   Cu2   S    
C29   H58   S    
C46   C49   S    
C76   H40   S    
C6    C66   S    
C49   C65   S    
C72   H48   S    
C9    C61   S    
C69   H42   S    
C38   O11   A    
C40   O16   A    
C11   C63   S    
C17   F2    S    
C42   C53   S    
C12   C64   S    
C44   H19   S    
C48   C64   S    
C14   C38   S    
C20   C25   S    
C21   F6    S    
C3    O5    A    
C73   H33   S    
C54   H30   S    
C37   O9    A    
C55   H8    S    
C19   C26   S    
C24   F7    S    
C9    C13   T    
Cu3   O8    S    
C11   C15   T    
C70   H43   S    
Cu2   O10   S    
C48   C51   S    
C23   F8    S    
C12   C16   T    
C28   C35   S    
C18   C26   S    
C23   C24   S    
C71   H46   S    
C1    O1    A    
C53   H6    S    
C39   O13   A    
Cu3   O16   S    
C21   H56   S    
C13   C37   S    
C44   H12   S    
C25   C34   S    
C3    C60   S    
C19   H50   S    
C21   C27   S    
C30   H57   S    
C22   C28   S    
C21   C22   S    
C17   H52   S    
C18   H51   S    
C10   C62   S    
C75   H38   S    
Cu3   O13   S    
Cu1   O4    S    
C7    C59   T    
C18   F1    S    
C36   N4    T    
Cu2   O3    S    
C2    O4    A    
C29   H59   S    
C46   H21   S    
C76   H39   S    
C30   H60   S    
C72   H47   S    
C43   H20   S    
C40   O15   A    
C5    C65   S    
C10   C14   T    
C42   H17   S    
Cu1   O1    S    
C47   C64   S    
C71   C73   S    
C25   C30   S    
C56   H7    S    
C49   H25   S    
C54   C67   S    
C44   C62   S    
C56   C68   S    
C48   H23   S    
C7    C67   S    
C45   C63   S    
C3    O6    A    
C43   H11   S    
C73   H34   S    
C42   H10   S    
C51   C66   S    
C37   O10   A    
C52   H3    S    
Cu4   O15   S    
C29   C30   S    
Cu3   O5    S    
C43   C56   S    
C26   C33   S    
C31   C32   S    
C46   H14   S    
C69   H41   S    
C68   C72   S    
C74   H36   S    
C17   C18   S    
C64   C76   S    
C1    O2    A    
C35   N3    T    
C23   C28   S    
C39   O14   A    
C42   C61   S    
C15   C39   S    
C32   H61   S    
C33   N1    T    
C16   C40   S    
C72   C74   S    
C4    O8    A    
C8    C68   S    
C70   C76   S    
C19   F4    S    
Cu1   N1    S    
C52   C66   S    
Cu2   O2    S    
Cu4   O7    S    
C50   H1    S    
C53   H29   S    
C2    O3    A    
C20   F3    S    
C47   H24   S    
C48   H16   S    
C23   H54   S    
C55   H31   S    
C27   C32   S    
C28   C31   S    
C62   C74   S    
C54   H5    S    
Cu3   N3    S    
Cu4   O6    S    
C47   C52   S    
C27   C36   S    
C22   H55   S    
C5    C57   T    
C46   C63   S    
C61   C73   S    
C31   H62   S    
C17   C25   S    
C1    C58   S    
C8    C60   T    
C34   N2    T    
C44   C55   S    
C66   C70   S    
C63   C75   S    
C45   C50   S    
C65   C69   S    
C74   H35   S    
C4    C59   S    
C69   C75   S    
C67   C71   S    
C31   H63   S    
C53   C67   S    
C50   C65   S    
C41   C54   S    
C32   H64   S    
C22   F5    S    
C45   H22   S    
Cu2   N2    S    
Cu1   O12   S    
C38   O12   A    
Cu3   Cu4   S    
C70   H44   S    
Cu2   O11   S    
Cu4   N4    S    
C4    O7    A    
C52   H28   S    
C26   C29   S    
C51   H27   S    
Cu4   O14   S    
C50   H26   S    
C47   H15   S    
C41   H18   S    
C71   H45   S    
C51   H4    S    
C56   H32   S    
C43   C62   S    
Cu1   O9    S    
