data_mof_unit_43389.cif
_audit_creation_date              2012-12-11T14:03:55-0500
_audit_creation_method            fapswitch 2.2
_symmetry_space_group_name_H-M    P1
_symmetry_Int_Tables_number       1
_space_group_crystal_system       triclinic
_cell_length_a                    19.148435
_cell_length_b                    11.096124
_cell_length_c                    18.770084
_cell_angle_alpha                 90.338657
_cell_angle_beta                  89.151895
_cell_angle_gamma                 90.437846
_cell_volume                      3987.52336319

loop_
_atom_site_label
_atom_site_type_symbol
_atom_type_description
_atom_site_fract_x
_atom_site_fract_y
_atom_site_fract_z
_atom_type_partial_charge
C1    C     C_R   0.241373 0.462335 0.649211 0.508736
C2    C     C_R   0.758785 0.462252 0.349178 0.517977
C3    C     C_R   0.741371 0.962339 0.649208 0.508749
C4    C     C_R   0.258786 0.962250 0.349178 0.517984
C5    C     C_2   0.246749 0.801529 0.522920 -0.011831
C6    C     C_2   0.723659 0.784453 0.485830 -0.043524
C7    C     C_2   0.746713 0.301544 0.522919 -0.011874
C8    C     C_2   0.223658 0.284459 0.485831 -0.043536
C9    C     C_R   0.993074 0.671642 0.430069 -0.003172
C10   C     C_R   0.989173 0.661805 0.579543 -0.002525
C11   C     C_R   0.493095 0.171637 0.430061 -0.003196
C12   C     C_R   0.489187 0.161800 0.579535 -0.002502
C13   C     C_R   0.971056 0.895825 0.439735 -0.063918
C14   C     C_R   0.970149 0.880908 0.586945 -0.058672
C15   C     C_R   0.471101 0.395822 0.439724 -0.063953
C16   C     C_R   0.470159 0.380902 0.586935 -0.058677
C17   C     C_R   0.959190 0.997915 0.481438 -0.162688
C18   C     C_R   0.957512 0.990024 0.554770 -0.138227
C19   C     C_R   0.459211 0.497906 0.481425 -0.162675
C20   C     C_R   0.457517 0.490014 0.554757 -0.138252
C21   C     C_R   0.980675 0.774470 0.546253 0.011908
C22   C     C_R   0.980040 0.780163 0.470775 0.018796
C23   C     C_R   0.480696 0.274465 0.546244 0.011905
C24   C     C_R   0.480074 0.280161 0.470765 0.018741
C25   C     C_R   0.986543 0.555604 0.537703 -0.017834
C26   C     C_R   0.008001 0.564235 0.466435 -0.040101
C27   C     C_R   0.486562 0.055596 0.537694 -0.017810
C28   C     C_R   0.508021 0.064228 0.466426 -0.040102
C29   C     C_R   0.971213 0.439753 0.565671 0.026548
C30   C     C_R   0.038003 0.461458 0.433005 0.021525
C31   C     C_R   0.471229 0.939743 0.565660 0.026556
C32   C     C_R   0.538017 0.961448 0.432993 0.021501
C33   C     C_R   0.992952 0.337561 0.528341 -0.166853
C34   C     C_R   0.026870 0.348680 0.462658 -0.147935
C35   C     C_R   0.492970 0.837548 0.528331 -0.166860
C36   C     C_R   0.526885 0.848668 0.462646 -0.147950
C37   C     C_2   0.248193 0.920577 0.920546 -0.113870
C38   C     C_2   0.751588 0.920964 0.079948 -0.116313
C39   C     C_2   0.748195 0.420582 0.920544 -0.113869
C40   C     C_2   0.251590 0.420963 0.079947 -0.116315
C41   C     C_2   0.258538 0.936999 0.074639 -0.117637
C42   C     C_2   0.740927 0.938367 0.925514 -0.116219
C43   C     C_2   0.758539 0.437004 0.074637 -0.117639
C44   C     C_2   0.240928 0.438361 0.925513 -0.116215
C45   C     C_R   0.226359 0.870526 0.646181 0.546630
C46   C     C_R   0.786826 0.835497 0.362551 0.551800
C47   C     C_R   0.726361 0.370535 0.646184 0.546634
C48   C     C_R   0.286825 0.335500 0.362551 0.551818
C49   C     C_2   0.198126 0.940097 0.039435 0.010395
C50   C     C_2   0.801342 0.940763 0.960733 0.009786
C51   C     C_2   0.698128 0.440103 0.039433 0.010388
C52   C     C_2   0.301343 0.440752 0.960730 0.009782
C53   C     C_2   0.201067 0.975288 0.963740 0.006598
C54   C     C_2   0.798968 0.975684 0.036773 0.004665
C55   C     C_2   0.701069 0.475293 0.963737 0.006594
C56   C     C_2   0.298972 0.475676 0.036770 0.004673
C57   C     C_2   0.998507 0.661810 0.920750 -0.143335
C58   C     C_2   0.996351 0.659805 0.076620 -0.144544
C59   C     C_2   0.498515 0.161807 0.920755 -0.143338
C60   C     C_2   0.496361 0.159809 0.076625 -0.144542
C61   C     C_2   0.003291 0.560178 0.035631 -0.052844
C62   C     C_2   0.985430 0.562586 0.959757 -0.054339
C63   C     C_2   0.503311 0.060182 0.035638 -0.052845
C64   C     C_2   0.485448 0.062582 0.959765 -0.054335
C65   C     C_R   0.026596 0.654414 0.647687 0.560928
C66   C     C_R   0.968712 0.656871 0.355872 0.565777
C67   C     C_R   0.526599 0.154413 0.647685 0.560929
C68   C     C_R   0.468718 0.156870 0.355869 0.565831
C69   C     C_R   0.238138 0.467276 0.851022 0.538915
C70   C     C_R   0.761688 0.467143 0.149046 0.545369
C71   C     C_R   0.738137 0.967278 0.851023 0.538919
C72   C     C_R   0.261687 0.967141 0.149047 0.545363
C73   C     C_R   0.227778 0.876211 0.851350 0.557319
C74   C     C_R   0.772165 0.876280 0.148745 0.569826
C75   C     C_R   0.727779 0.376212 0.851349 0.557322
C76   C     C_R   0.272166 0.376280 0.148745 0.569819
C77   C     C_R   0.027795 0.652274 0.849620 0.562329
C78   C     C_R   0.971113 0.651990 0.149456 0.561912
C79   C     C_R   0.527797 0.152273 0.849622 0.562327
C80   C     C_R   0.471116 0.151991 0.149458 0.561924
C81   C     C_2   0.244371 0.892982 0.571413 -0.100576
C82   C     C_2   0.769640 0.853896 0.442963 -0.148260
C83   C     C_2   0.744362 0.392992 0.571416 -0.100603
C84   C     C_2   0.269640 0.353899 0.442962 -0.148229
C85   C     C_2   0.234735 0.879127 0.403397 -0.005981
C86   C     C_2   0.767356 0.866203 0.601127 -0.013338
C87   C     C_2   0.734722 0.379115 0.403384 -0.005980
C88   C     C_2   0.267359 0.366204 0.601127 -0.013338
C89   C     C_2   0.275859 0.827778 0.451838 -0.027812
C90   C     C_2   0.720659 0.795850 0.567937 0.007419
C91   C     C_2   0.775833 0.327785 0.451843 -0.027811
C92   C     C_2   0.220663 0.295850 0.567939 0.007426
Cr1   Cr    Cr6+3 0.113970 0.508630 0.747920 1.023624
Cr2   Cr    Cr6+3 0.886030 0.508630 0.252080 1.022202
Cr3   Cr    Cr6+3 0.613970 0.008630 0.747920 1.023621
Cr4   Cr    Cr6+3 0.386030 0.008630 0.252080 1.022185
Cr5   Cr    Cr6+3 0.269200 0.666740 0.749850 1.037510
Cr6   Cr    Cr6+3 0.730800 0.666740 0.250150 1.023338
Cr7   Cr    Cr6+3 0.769200 0.166740 0.749850 1.037516
Cr8   Cr    Cr6+3 0.230800 0.166740 0.250150 1.023336
Cr9   Cr    Cr6+3 0.112300 0.820070 0.749800 0.988394
Cr10  Cr    Cr6+3 0.887700 0.820070 0.250200 0.996372
Cr11  Cr    Cr6+3 0.612300 0.320070 0.749800 0.988391
Cr12  Cr    Cr6+3 0.387700 0.320070 0.250200 0.996384
H1    H     H_    0.307724 0.953776 0.046644 0.090040
H2    H     H_    0.691992 0.955574 0.953718 0.092400
H3    H     H_    0.807725 0.453782 0.046643 0.090034
H4    H     H_    0.191994 0.455573 0.953717 0.092402
H5    H     H_    0.291027 0.870962 0.942621 0.098960
H6    H     H_    0.707747 0.872479 0.057902 0.093841
H7    H     H_    0.791030 0.370969 0.942619 0.098969
H8    H     H_    0.207748 0.372480 0.057902 0.093829
H9    H     H_    0.986420 0.746816 0.053346 0.080630
H10   H     H_    0.010652 0.747434 0.945625 0.081260
H11   H     H_    0.486425 0.246817 0.053348 0.080627
H12   H     H_    0.510659 0.247433 0.945628 0.081259
H13   H     H_    0.258833 0.983964 0.555753 0.076176
H14   H     H_    0.800852 0.922735 0.468986 0.101858
H15   H     H_    0.758828 0.483978 0.555757 0.076176
H16   H     H_    0.300860 0.422726 0.468985 0.101867
H17   H     H_    0.954102 0.084685 0.456817 0.104033
H18   H     H_    0.946864 0.068462 0.587393 0.112453
H19   H     H_    0.454115 0.584674 0.456808 0.104056
H20   H     H_    0.446851 0.568448 0.587378 0.112463
H21   H     H_    0.978142 0.913830 0.383892 0.170697
H22   H     H_    0.966833 0.880802 0.644379 0.159108
H23   H     H_    0.478196 0.413822 0.383881 0.170686
H24   H     H_    0.466834 0.380796 0.644368 0.159118
H25   H     H_    0.982670 0.249272 0.549721 0.093946
H26   H     H_    0.041328 0.269590 0.432564 0.109049
H27   H     H_    0.482696 0.749258 0.549713 0.093946
H28   H     H_    0.541343 0.769575 0.432553 0.109057
O1    O     O_R   0.043230 0.549300 0.667990 -0.504147
O2    O     O_R   0.956770 0.549300 0.332010 -0.510377
O3    O     O_R   0.543230 0.049300 0.667990 -0.504159
O4    O     O_R   0.456770 0.049300 0.332010 -0.510384
O5    O     O_R   0.262920 0.788600 0.824420 -0.477283
O6    O     O_R   0.737080 0.788600 0.175580 -0.479786
O7    O     O_R   0.762920 0.288600 0.824420 -0.477279
O8    O     O_R   0.237080 0.288600 0.175580 -0.479791
O9    O     O_R   0.167530 0.905110 0.830340 -0.532423
O10   O     O_R   0.832470 0.905110 0.169660 -0.524661
O11   O     O_R   0.667530 0.405110 0.830340 -0.532424
O12   O     O_R   0.332470 0.405110 0.169660 -0.524664
O13   O     O_R   0.054010 0.748440 0.822860 -0.509327
O14   O     O_R   0.945990 0.748440 0.177140 -0.508277
O15   O     O_R   0.554010 0.248440 0.822860 -0.509326
O16   O     O_R   0.445990 0.248440 0.177140 -0.508278
O17   O     O_3   0.165160 0.665150 0.749190 -0.261532
O18   O     O_3   0.834840 0.665150 0.250810 -0.268503
O19   O     O_3   0.665160 0.165150 0.749190 -0.261531
O20   O     O_3   0.334840 0.165150 0.250810 -0.268499
O21   O     O_R   0.178620 0.457600 0.674100 -0.506213
O22   O     O_R   0.821380 0.457600 0.325900 -0.515253
O23   O     O_R   0.678620 0.957600 0.674100 -0.506221
O24   O     O_R   0.321380 0.957600 0.325900 -0.515285
O25   O     O_R   0.284680 0.542100 0.669460 -0.531943
O26   O     O_R   0.715320 0.542100 0.330540 -0.541668
O27   O     O_R   0.784680 0.042100 0.669460 -0.531925
O28   O     O_R   0.215320 0.042100 0.330540 -0.541659
O29   O     O_R   0.262860 0.790390 0.676650 -0.476805
O30   O     O_R   0.737140 0.790390 0.323350 -0.485990
O31   O     O_R   0.762860 0.290390 0.676650 -0.476787
O32   O     O_R   0.237140 0.290390 0.323350 -0.485990
O33   O     O_R   0.167460 0.907030 0.670940 -0.530578
O34   O     O_R   0.832540 0.907030 0.329060 -0.522237
O35   O     O_R   0.667460 0.407030 0.670940 -0.530585
O36   O     O_R   0.332540 0.407030 0.329060 -0.522241
O37   O     O_R   0.053950 0.750220 0.675100 -0.514235
O38   O     O_R   0.946050 0.750220 0.324900 -0.524856
O39   O     O_R   0.553950 0.250220 0.675100 -0.514238
O40   O     O_R   0.446050 0.250220 0.324900 -0.524826
O41   O     O_R   0.043300 0.547370 0.827390 -0.482425
O42   O     O_R   0.956700 0.547370 0.172610 -0.481046
O43   O     O_R   0.543300 0.047370 0.827390 -0.482424
O44   O     O_R   0.456700 0.047370 0.172610 -0.481046
O45   O     O_R   0.178690 0.455820 0.821860 -0.514708
O46   O     O_R   0.821310 0.455820 0.178140 -0.504132
O47   O     O_R   0.678690 0.955820 0.821860 -0.514709
O48   O     O_R   0.321310 0.955820 0.178140 -0.504143
O49   O     O_R   0.284750 0.540170 0.828860 -0.506757
O50   O     O_R   0.715250 0.540170 0.171140 -0.508963
O51   O     O_R   0.784750 0.040170 0.828860 -0.506752
O52   O     O_R   0.215250 0.040170 0.171140 -0.508963
C93   C     C_3   0.352026 0.801491 0.438494 -0.260898
C94   C     C_3   0.361836 0.710169 0.377749 -0.399503
H29   H     H_    0.333079 0.735548 0.329339 0.177652
H30   H     H_    0.418067 0.703958 0.363126 0.123234
H31   H     H_    0.342472 0.620369 0.395147 0.161715
H32   H     H_    0.381844 0.885746 0.428143 0.191704
H33   H     H_    0.373479 0.760351 0.487006 0.139107
C95   C     C_3   0.673331 0.714149 0.615446 -0.249503
C96   C     C_3   0.691970 0.690623 0.693992 -0.399251
H34   H     H_    0.739101 0.633348 0.697194 0.169571
H35   H     H_    0.700295 0.772079 0.726625 0.178636
H36   H     H_    0.648357 0.639742 0.719753 0.140107
H37   H     H_    0.619070 0.748474 0.614116 0.158933
H38   H     H_    0.676140 0.622392 0.594887 0.160983
C97   C     C_3   0.852008 0.301555 0.438532 -0.260891
C98   C     C_3   0.861862 0.210219 0.377806 -0.399443
H39   H     H_    0.842663 0.120347 0.395278 0.161551
H40   H     H_    0.832968 0.235413 0.329430 0.177636
H41   H     H_    0.918090 0.204263 0.363096 0.123340
H42   H     H_    0.881804 0.385830 0.428180 0.191678
H43   H     H_    0.873455 0.260457 0.487058 0.139118
C99   C     C_3   0.173340 0.214147 0.615451 -0.249504
C100  C     C_3   0.191985 0.190621 0.693996 -0.399254
H44   H     H_    0.239117 0.133345 0.697193 0.169576
H45   H     H_    0.200313 0.272077 0.726627 0.178625
H46   H     H_    0.148374 0.139740 0.719760 0.140112
H47   H     H_    0.119078 0.248476 0.614130 0.158938
H48   H     H_    0.176145 0.122391 0.594890 0.160976
C101  C     C_3   0.151648 0.071004 0.936703 -0.233210
C102  C     C_3   0.158347 0.186630 0.979795 -0.437245
H49   H     H_    0.141994 0.173632 0.035994 0.189140
H50   H     H_    0.213806 0.216079 0.978288 0.145899
H51   H     H_    0.125272 0.257553 0.956401 0.153106
H52   H     H_    0.164956 0.097240 0.881094 0.166185
H53   H     H_    0.097027 0.037244 0.937591 0.151924
C103  C     C_3   0.849384 0.071416 0.064150 -0.232461
C104  C     C_3   0.843509 0.187049 0.021774 -0.435384
H54   H     H_    0.859822 0.173949 0.965520 0.189448
H55   H     H_    0.788265 0.216204 0.023319 0.145799
H56   H     H_    0.877025 0.258293 0.045610 0.155896
H57   H     H_    0.836609 0.097596 0.120006 0.172693
H58   H     H_    0.903702 0.037623 0.062714 0.151607
C105  C     C_3   0.651651 0.571009 0.936699 -0.233212
C106  C     C_3   0.658344 0.686630 0.979795 -0.437237
H59   H     H_    0.641994 0.673617 0.035997 0.189144
H60   H     H_    0.713802 0.716089 0.978286 0.145897
H61   H     H_    0.625263 0.757555 0.956406 0.153113
H62   H     H_    0.664964 0.597249 0.881092 0.166181
H63   H     H_    0.597031 0.537246 0.937581 0.151926
C107  C     C_3   0.349393 0.571402 0.064144 -0.232467
C108  C     C_3   0.343521 0.687036 0.021767 -0.435397
H64   H     H_    0.359803 0.673928 0.965508 0.189463
H65   H     H_    0.288284 0.716218 0.023338 0.145787
H66   H     H_    0.377058 0.758263 0.045585 0.155906
H67   H     H_    0.336623 0.597586 0.120001 0.172694
H68   H     H_    0.403710 0.537602 0.062704 0.151600
C109  C     C_1   0.025640 0.445860 0.064954 0.240957
N1    N     N_1   0.043406 0.354899 0.088200 -0.328892
C110  C     C_1   0.959433 0.451953 0.927239 0.236720
N2    N     N_1   0.938873 0.363984 0.901280 -0.321891
C111  C     C_1   0.525669 0.945873 0.064965 0.240949
N3    N     N_1   0.543443 0.854919 0.088214 -0.328891
C112  C     C_1   0.459455 0.951942 0.927252 0.236724
N4    N     N_1   0.438897 0.863968 0.901297 -0.321899
C113  C     C_3   0.229561 0.671682 0.540617 -0.244782
C114  C     C_3   0.180889 0.612626 0.487728 -0.436116
H69   H     H_    0.131868 0.664247 0.486601 0.179354
H70   H     H_    0.205400 0.607773 0.433829 0.177302
H71   H     H_    0.167854 0.520014 0.505565 0.152875
H72   H     H_    0.279047 0.620323 0.541402 0.154382
H73   H     H_    0.201977 0.664947 0.592550 0.190604
C115  C     C_3   0.684885 0.682297 0.448896 -0.237981
C116  C     C_3   0.625164 0.603941 0.479345 -0.455780
H74   H     H_    0.644479 0.521710 0.505299 0.155980
H75   H     H_    0.589313 0.653076 0.515043 0.146314
H76   H     H_    0.593353 0.569437 0.434516 0.160389
H77   H     H_    0.660405 0.719787 0.401274 0.205010
H78   H     H_    0.728218 0.620692 0.438784 0.171084
C117  C     C_3   0.729519 0.171703 0.540626 -0.244761
C118  C     C_3   0.680928 0.112576 0.487680 -0.436106
H79   H     H_    0.631930 0.164287 0.486374 0.179446
H80   H     H_    0.705577 0.107510 0.433830 0.177238
H81   H     H_    0.667804 0.020026 0.505603 0.152897
H82   H     H_    0.779012 0.120379 0.541476 0.154452
H83   H     H_    0.701877 0.164998 0.592526 0.190529
C119  C     C_3   0.184875 0.182316 0.448898 -0.237998
C120  C     C_3   0.125148 0.103981 0.479353 -0.455763
H84   H     H_    0.144456 0.021743 0.505305 0.156005
H85   H     H_    0.089309 0.153126 0.515058 0.146311
H86   H     H_    0.093326 0.069492 0.434528 0.160416
H87   H     H_    0.160399 0.219811 0.401277 0.205006
H88   H     H_    0.228199 0.120698 0.438784 0.171095
C121  C     C_1   0.162874 0.846221 0.396694 0.186444
N5    N     N_1   0.105743 0.820250 0.386263 -0.344394
C122  C     C_1   0.822187 0.799137 0.634418 0.176338
N6    N     N_1   0.862969 0.742160 0.663779 -0.343131
C123  C     C_1   0.662874 0.346137 0.396618 0.186426
N7    N     N_1   0.605761 0.320112 0.386118 -0.344394
C124  C     C_1   0.322194 0.299140 0.634412 0.176334
N8    N     N_1   0.362979 0.242162 0.663768 -0.343135
C125  C     C_1   0.083101 0.470202 0.370570 0.212949
N9    N     N_1   0.119090 0.477455 0.320679 -0.271109
C126  C     C_1   0.929547 0.423918 0.629872 0.216282
N10   N     N_1   0.896810 0.411852 0.681662 -0.265273
C127  C     C_1   0.583109 0.970191 0.370551 0.212981
N11   N     N_1   0.619093 0.977445 0.320656 -0.271054
C128  C     C_1   0.429557 0.923907 0.629858 0.216292
N12   N     N_1   0.396816 0.911839 0.681646 -0.265275
C129  C     C_3   0.131634 0.884647 0.071218 -0.242996
C130  C     C_3   0.074980 0.975027 0.092633 -0.412872
H89   H     H_    0.095847 0.048653 0.126371 0.193571
H90   H     H_    0.049864 0.013776 0.045415 0.130109
H91   H     H_    0.033550 0.927928 0.123910 0.145134
H92   H     H_    0.109814 0.820209 0.031749 0.132291
H93   H     H_    0.144254 0.830514 0.118971 0.148793
C131  C     C_3   0.867165 0.884977 0.928431 -0.243468
C132  C     C_3   0.924535 0.975153 0.907113 -0.414291
H94   H     H_    0.904142 0.048648 0.873886 0.194376
H95   H     H_    0.950267 0.014128 0.954386 0.129418
H96   H     H_    0.965348 0.927824 0.875341 0.143905
H97   H     H_    0.888543 0.820906 0.967584 0.132632
H98   H     H_    0.853845 0.830393 0.880545 0.149233
C133  C     C_3   0.631636 0.384651 0.071215 -0.242993
C134  C     C_3   0.574980 0.475030 0.092626 -0.412856
H99   H     H_    0.595848 0.548665 0.126368 0.193569
H100  H     H_    0.549865 0.513781 0.045401 0.130108
H101  H     H_    0.533546 0.427920 0.123905 0.145139
H102  H     H_    0.609818 0.320211 0.031746 0.132290
H103  H     H_    0.644254 0.330523 0.118970 0.148805
C135  C     C_3   0.367165 0.384963 0.928427 -0.243473
C136  C     C_3   0.424536 0.475135 0.907106 -0.414300
H104  H     H_    0.404146 0.548618 0.873869 0.194376
H105  H     H_    0.450263 0.514126 0.954375 0.129426
H106  H     H_    0.465352 0.427800 0.875343 0.143907
H107  H     H_    0.388544 0.320894 0.967581 0.132634
H108  H     H_    0.353843 0.330376 0.880543 0.149231

loop_
_geom_bond_atom_site_label_1
_geom_bond_atom_site_label_2
_ccdc_geom_bond_type
Cr11  O39   S    
C115  H78   S    
C128  N12   T    
Cr7   O7    S    
C101  H53   S    
C93   H32   S    
C132  H94   S    
C12   C23   A    
C41   H1    S    
Cr6   O6    S    
C14   C21   A    
C87   C91   D    
C114  H70   S    
C120  H84   S    
C81   H13   S    
C97   H43   S    
Cr2   O46   S    
C83   H15   S    
C45   O29   A    
C50   C131  S    
C19   C20   A    
C100  H46   S    
C49   C129  S    
C8    C92   S    
C95   H38   S    
C46   O34   A    
C37   H5    S    
C134  H101  S    
C13   H21   S    
C114  H71   S    
C39   H7    S    
C97   C98   S    
C15   H23   S    
C21   C22   A    
C41   C49   D    
C106  H59   S    
Cr6   O30   S    
C9    C26   A    
C10   C21   A    
C25   C29   A    
C105  H63   S    
C12   C27   A    
C27   C31   A    
C71   O51   A    
C28   C32   A    
C72   O52   A    
C86   C90   D    
C99   C100  S    
C135  C136  S    
C40   C76   S    
C119  H88   S    
C105  C106  S    
C16   C20   A    
Cr4   O48   S    
C42   H2    S    
C75   O11   A    
C18   H18   S    
C76   O12   A    
C113  H73   S    
C97   H42   S    
C85   C121  S    
C82   H14   S    
C131  C132  S    
Cr6   O18   S    
C132  H96   S    
C45   C81   S    
Cr11  O11   S    
C48   O32   A    
Cr2   O18   S    
C14   H22   S    
Cr12  O20   S    
Cr1   O21   S    
Cr4   O24   S    
C73   O5    A    
C49   C53   S    
Cr1   O41   S    
C51   C55   S    
C78   O14   A    
C99   H48   S    
C80   O16   A    
C98   H40   S    
C96   H34   S    
C94   H29   S    
C106  H61   S    
C5    C89   S    
C69   O49   A    
C131  H97   S    
Cr10  O38   S    
C7    C83   D    
Cr11  O35   S    
C29   C33   A    
Cr11  O15   S    
C62   C110  S    
C40   H8    S    
C90   C95   S    
Cr8   O20   S    
C19   H19   S    
C113  C114  S    
C104  H54   S    
C32   C36   A    
Cr9   O13   S    
Cr1   O1    S    
C36   H28   S    
C31   C128  S    
Cr4   O20   S    
C116  H74   S    
C55   C105  S    
C129  H92   S    
C8    C119  S    
C46   C82   S    
C118  H79   S    
C30   C125  S    
C23   C24   A    
C7    C117  S    
C39   C75   S    
Cr7   O51   S    
C37   C53   D    
C32   C127  S    
C44   C52   D    
Cr10  O34   S    
C121  N5    T    
C3    O27   A    
C56   C107  S    
Cr5   O5    S    
C103  C104  S    
C134  H100  S    
C127  N11   T    
C63   C111  S    
C30   C34   A    
Cr1   O45   S    
C25   C26   A    
C6    C90   S    
C129  C130  S    
C58   H9    S    
C122  N6    T    
C96   H36   S    
C17   C18   A    
C103  H58   S    
C2    C87   S    
C107  H68   S    
C42   C50   D    
Cr7   O31   S    
C10   C25   A    
C15   C24   A    
C26   C30   A    
C16   C23   A    
C47   C83   S    
C108  H66   S    
C72   O48   A    
C11   C68   S    
C38   C74   S    
C135  H107  S    
C60   C80   S    
C136  H106  S    
C53   C101  S    
C89   C93   S    
C119  H87   S    
C101  H52   S    
Cr5   O29   S    
C13   C17   A    
C116  H76   S    
C75   O7    A    
C58   C61   D    
C118  H81   S    
C61   C62   S    
C20   H20   S    
C63   C64   S    
C136  H104  S    
C124  N8    T    
C100  H45   S    
Cr5   O17   S    
Cr10  O10   S    
C111  N3    T    
C120  H86   S    
Cr12  O16   S    
Cr1   O17   S    
C35   C36   A    
C106  H60   S    
C117  C118  S    
Cr4   O4    S    
C73   O9    A    
C101  C102  S    
C15   C19   A    
C74   O6    A    
C50   C54   S    
C52   C135  S    
C104  H56   S    
Cr7   O27   S    
C130  H89   S    
C110  N2    T    
C69   O45   A    
C70   O50   A    
C39   C55   D    
Cr6   O26   S    
C59   H12   S    
C40   C56   D    
C108  H64   S    
Cr9   O37   S    
C133  H103  S    
C38   H6    S    
Cr11  O19   S    
Cr12  O40   S    
C47   O31   A    
C1    C88   S    
C113  H72   S    
C29   C126  S    
C115  H77   S    
C3    C86   S    
C61   C109  S    
C93   H33   S    
C132  H95   S    
C117  H82   S    
C100  H44   S    
C5    C113  S    
C130  H91   S    
C59   C79   S    
C85   C89   D    
C79   O15   A    
C114  H69   S    
C133  C134  S    
C65   O37   A    
Cr6   O50   S    
C67   O3    A    
C125  N9    T    
C57   C77   S    
C5    C81   D    
C126  N10   T    
C38   C54   D    
C84   H16   S    
C7    C91   S    
C3    O23   A    
C6    C115  S    
C44   C69   S    
Cr8   O32   S    
C43   H3    S    
C95   H37   S    
Cr9   O33   S    
Cr10  O18   S    
C17   H17   S    
C4    O24   A    
C31   C35   A    
Cr3   O19   S    
C107  C108  S    
C76   O8    A    
C94   H30   S    
C35   H27   S    
C131  H98   S    
C77   O41   A    
Cr4   O44   S    
C8    C84   D    
C94   H31   S    
C68   O40   A    
C43   C51   D    
C93   C94   S    
C11   C28   A    
C42   C71   S    
C13   C22   A    
C102  H50   S    
Cr8   O52   S    
C92   C99   S    
C58   C78   S    
C118  H80   S    
C119  C120  S    
C45   O33   A    
C6    C82   D    
C14   C18   A    
C57   C62   D    
C59   C64   D    
C60   C63   D    
C133  H102  S    
C9    C22   A    
C11   C24   A    
C109  N1    T    
C71   O47   A    
C9    C66   S    
Cr8   O8    S    
Cr9   O9    S    
C99   H47   S    
C88   C92   D    
C98   H39   S    
C96   H35   S    
Cr12  O12   S    
C2    O26   A    
C91   C97   S    
C105  H62   S    
C74   O10   A    
C66   O2    A    
C108  H65   S    
C44   H4    S    
C135  H108  S    
C12   C67   S    
C136  H105  S    
C79   O43   A    
C68   O4    A    
C80   O44   A    
C102  H49   S    
C70   O46   A    
C4    C85   S    
C67   O39   A    
C123  N7    T    
Cr7   O19   S    
C48   C84   S    
C116  H75   S    
Cr5   O25   S    
C129  H93   S    
C1    O21   A    
C87   C123  S    
Cr12  O36   S    
C47   O35   A    
Cr8   O28   S    
C48   O36   A    
C117  H83   S    
Cr2   O22   S    
C115  C116  S    
Cr3   O3    S    
C33   C34   A    
C86   C122  S    
C16   H24   S    
Cr2   O42   S    
C41   C72   S    
C51   C133  S    
Cr3   O47   S    
C43   C70   S    
C33   H25   S    
C88   C124  S    
C77   O13   A    
C134  H99   S    
C10   C65   S    
C120  H85   S    
C37   C73   S    
C66   O38   A    
C102  H51   S    
C112  N4    T    
Cr5   O49   S    
C57   H10   S    
C54   C103  S    
C95   C96   S    
C1    O25   A    
C104  H55   S    
Cr3   O43   S    
Cr10  O14   S    
C130  H90   S    
C4    O28   A    
C64   C112  S    
C98   H41   S    
Cr9   O17   S    
Cr2   O2    S    
C103  H57   S    
Cr3   O23   S    
C107  H67   S    
C34   H26   S    
C2    O22   A    
C46   O30   A    
C27   C28   A    
C78   O42   A    
C60   H11   S    
C65   O1    A    
C52   C56   S    
