data_mof_unit_65418.cif
_audit_creation_date              2013-03-05T16:38:38-0500
_audit_creation_method            fapswitch 2.2
_symmetry_space_group_name_H-M    P1
_symmetry_Int_Tables_number       1
_space_group_crystal_system       triclinic
_cell_length_a                    15.946075
_cell_length_b                    16.016999
_cell_length_c                    14.782808
_cell_angle_alpha                 90.031003
_cell_angle_beta                  90.005064
_cell_angle_gamma                 89.978442
_cell_volume                      3775.65054285

loop_
_atom_site_label
_atom_site_type_symbol
_atom_site_description
_atom_site_fract_x
_atom_site_fract_y
_atom_site_fract_z
_atom_type_partial_charge
O1    O     O_R   0.500040 0.380310 0.575320 -0.587619
O2    O     O_R   0.499960 0.619690 0.424680 -0.587457
O3    O     O_R   0.500000 0.380310 0.424640 -0.542322
O4    O     O_R   0.500000 0.619690 0.575360 -0.543542
C1    C     C_R   0.500052 0.340949 0.499950 0.817151
C2    C     C_R   0.500029 0.659050 0.500046 0.817717
O5    O     O_R   0.379100 0.499990 0.575330 -0.574266
O6    O     O_R   0.620900 0.500010 0.424670 -0.572752
O7    O     O_R   0.379060 0.499990 0.424640 -0.566330
O8    O     O_R   0.620940 0.500010 0.575360 -0.564641
C3    C     C_R   0.339649 0.499984 0.499992 0.820539
C4    C     C_R   0.660350 0.500018 0.500008 0.825037
Cu1   Cu    Cu3+1 0.500020 0.500000 0.589220 1.009190
Cu2   Cu    Cu3+1 0.499980 0.500000 0.410780 1.009886
C5    C     C_3   0.972132 0.427267 0.531876 0.094138
C6    C     C_3   0.027864 0.572746 0.468125 0.093800
C7    C     C_3   0.027907 0.438121 0.447671 0.093682
C8    C     C_3   0.972088 0.561892 0.552331 0.093156
C9    C     C_1   0.250532 0.499985 0.500007 -0.155433
C10   C     C_1   0.749466 0.500022 0.499993 -0.152610
C11   C     C_3   0.027896 0.489148 0.584211 0.095009
C12   C     C_3   0.972100 0.510865 0.415790 0.095315
C13   C     C_3   0.084385 0.500002 0.500005 0.050268
C14   C     C_3   0.915611 0.500011 0.499996 0.049992
C15   C     C_1   0.175457 0.499991 0.500010 0.024926
C16   C     C_1   0.824540 0.500019 0.499991 0.026398
C17   C     C_R   0.513311 0.956505 0.582509 0.353716
C18   C     C_R   0.497963 0.043483 0.416639 0.353701
C19   C     C_R   0.505530 0.912572 0.500252 -0.138889
C20   C     C_R   0.505321 0.087419 0.498939 -0.138833
C21   C     C_R   0.497991 0.955758 0.417554 0.025468
C22   C     C_R   0.513069 0.044234 0.581616 0.025432
C23   C     C_1   0.503089 0.822865 0.500320 0.061383
C24   C     C_1   0.502916 0.177128 0.499365 0.061184
C25   C     C_1   0.501300 0.252033 0.499797 -0.127180
C26   C     C_1   0.501373 0.747964 0.500140 -0.127344
C27   C     C_R   0.545013 0.560972 0.951586 0.163463
C28   C     C_R   0.455003 0.439029 0.048412 0.165273
C29   C     C_R   0.499880 0.499873 0.902860 -0.070844
C30   C     C_R   0.500134 0.500129 0.097140 -0.070179
C31   C     C_R   0.454768 0.438758 0.952147 0.069838
C32   C     C_R   0.545248 0.561244 0.047853 0.069635
C33   C     C_1   0.499944 0.499982 0.802571 0.211952
C34   C     C_1   0.500063 0.500020 0.197429 0.213138
N1    N     N_1   0.500030 0.499980 0.276710 -0.150749
N2    N     N_1   0.499970 0.500020 0.723290 -0.150909
N3    N     N_3   0.058043 0.370818 0.389978 -0.567867
H1    H     H_    0.005544 0.337850 0.367325 0.238519
H2    H     H_    0.092421 0.330041 0.430827 0.232826
N4    N     N_3   0.941950 0.629195 0.610023 -0.565939
H3    H     H_    0.994447 0.662168 0.632670 0.237824
H4    H     H_    0.907565 0.669967 0.569174 0.234549
N5    N     N_3   0.942047 0.347535 0.566156 -0.570834
H5    H     H_    0.994569 0.312963 0.585760 0.237044
H6    H     H_    0.907685 0.359822 0.624858 0.231576
N6    N     N_3   0.057947 0.652478 0.433844 -0.571864
H7    H     H_    0.005423 0.687052 0.414246 0.237453
H8    H     H_    0.092304 0.640193 0.375138 0.231540
N7    N     N_3   0.941976 0.523302 0.323818 -0.573079
H9    H     H_    0.994478 0.524874 0.281564 0.236103
H10   H     H_    0.907602 0.470260 0.305971 0.232698
N8    N     N_3   0.058018 0.476711 0.676184 -0.573512
H11   H     H_    0.005515 0.475137 0.718437 0.236312
H12   H     H_    0.092389 0.529754 0.694033 0.231960
N9    N     N_3   0.522664 0.088899 0.665207 -0.493752
H13   H     H_    0.470314 0.127341 0.674226 0.234642
H14   H     H_    0.575951 0.126675 0.660519 0.228982
N10   N     N_3   0.492213 0.911098 0.333551 -0.493481
H15   H     H_    0.439319 0.872591 0.335819 0.234360
H16   H     H_    0.545389 0.873387 0.326816 0.229134
N11   N     N_R   0.521446 0.912470 0.666974 0.154069
O9    O     O_R   0.478817 0.936063 0.737563 -0.304218
O10   O     O_R   0.573558 0.850327 0.674606 -0.341064
N12   N     N_R   0.490450 0.087514 0.332106 0.154301
O11   O     O_R   0.435734 0.063937 0.271987 -0.305326
O12   O     O_R   0.540119 0.149622 0.313519 -0.339792
N13   N     N_3   0.592001 0.624516 0.094449 -0.585559
H17   H     H_    0.550740 0.657962 0.135815 0.231913
H18   H     H_    0.636365 0.595242 0.135762 0.230228
N14   N     N_3   0.408015 0.375485 0.905551 -0.585227
H19   H     H_    0.363649 0.404759 0.864241 0.229631
H20   H     H_    0.449276 0.342041 0.864184 0.232356
N15   N     N_3   0.590986 0.623237 0.902675 -0.546013
H21   H     H_    0.568447 0.681961 0.921793 0.264192
H22   H     H_    0.654009 0.619292 0.921726 0.246431
N16   N     N_3   0.409033 0.376762 0.097322 -0.549310
H23   H     H_    0.346010 0.380706 0.078269 0.245181
H24   H     H_    0.431576 0.318040 0.078203 0.264523

loop_
_geom_bond_atom_site_label_1
_geom_bond_atom_site_label_2
_geom_bond_distance
_ccdc_geom_bond_type
O5    Cu1   1.939085 S    
C28   C30   1.412159 A    
C17   C19   1.410058 A    
C8    C11   1.539914 S    
N5    H6    1.044912 S    
C18   N12   1.440207 S    
C31   N14   1.434245 S    
N3    H2    1.044916 S    
N13   H17   1.045588 S    
O5    C3    1.279046 A    
C3    C9    1.421071 S    
C7    C13   1.546515 S    
N12   O12   1.301279 A    
C28   N16   1.433957 S    
C8    C14   1.546508 S    
C5    N5    1.455694 S    
C14   C16   1.452230 S    
Cu1   N2    1.981931 S    
N16   H24   1.045567 S    
C19   C23   1.437375 S    
C27   C32   1.423100 A    
C23   C26   1.200021 T    
N6    H7    1.044915 S    
C24   C25   1.200029 T    
O4    Cu1   1.928103 S    
N8    H12   1.044944 S    
N15   H21   1.045567 S    
C2    C26   1.424292 S    
N10   H15   1.045634 S    
N9    H14   1.045634 S    
N4    H4    1.044915 S    
C30   C32   1.417026 A    
N7    H9    1.044904 S    
Cu1   Cu2   2.637843 S    
C19   C21   1.410067 A    
O2    C2    1.279832 A    
O2    Cu2   1.927943 S    
Cu2   N1    1.981931 S    
N13   H18   1.045591 S    
C21   N10   1.435729 S    
N7    H10   1.044946 S    
N12   O11   1.301332 A    
C20   C24   1.437383 S    
C28   C31   1.423086 A    
N14   H20   1.045587 S    
C12   N7    1.455705 S    
N11   O10   1.301332 A    
N16   H23   1.045558 S    
C29   C33   1.482550 S    
O6    Cu2   1.939083 S    
N5    H5    1.044915 S    
O7    Cu2   1.939073 S    
C6    N6    1.455692 S    
N8    H11   1.044904 S    
N3    H1    1.044933 S    
C5    C11   1.539910 S    
O6    C4    1.279041 A    
C4    C10   1.421047 S    
N4    H3    1.044932 S    
O7    C3    1.279020 A    
C11   N8    1.455705 S    
O3    Cu2   1.928104 S    
O8    C4    1.279015 A    
O4    C2    1.279748 A    
C5    C14   1.546514 S    
N15   H22   1.045557 S    
C6    C13   1.546522 S    
C11   C13   1.546515 S    
O1    C1    1.279885 A    
O1    Cu1   1.927945 S    
C17   N11   1.440221 S    
C34   N1    1.172004 T    
C8    N4    1.455699 S    
C5    C7    1.539910 S    
C6    C12   1.539909 S    
C17   C22   1.405230 A    
C18   C21   1.405167 A    
C7    N3    1.455697 S    
N14   H19   1.045592 S    
O3    C1    1.279701 A    
O8    Cu1   1.939071 S    
C7    C12   1.539913 S    
C18   C20   1.410051 A    
N11   O9    1.301255 A    
C27   C29   1.412165 A    
C20   C22   1.410077 A    
C10   C16   1.197128 T    
C1    C25   1.424304 S    
N6    H8    1.044912 S    
C12   C14   1.546507 S    
C13   C15   1.452247 S    
C9    C15   1.197140 T    
C33   N2    1.172001 T    
C30   C34   1.482554 S    
C29   C31   1.417017 A    
C32   N13   1.434247 S    
C6    C8    1.539913 S    
N9    H13   1.045607 S    
N10   H16   1.045620 S    
C27   N15   1.433965 S    
C22   N9    1.435718 S    
