data_mof_unit_40500.cif
_audit_creation_date              2012-12-11T20:55:35-0500
_audit_creation_method            fapswitch 2.2
_symmetry_space_group_name_H-M    P1
_symmetry_Int_Tables_number       1
_space_group_crystal_system       triclinic
_cell_length_a                    8.273085
_cell_length_b                    19.114566
_cell_length_c                    22.76389
_cell_angle_alpha                 100.359952
_cell_angle_beta                  89.752492
_cell_angle_gamma                 92.156664
_cell_volume                      3538.59494207

loop_
_atom_site_label
_atom_site_type_symbol
_atom_type_description
_atom_site_fract_x
_atom_site_fract_y
_atom_site_fract_z
_atom_type_partial_charge
Ba1   Ba    Ba6+2 0.157290 0.533910 0.474710 1.637883
Ba2   Ba    Ba6+2 0.652900 0.466090 0.525240 1.640084
C1    C     C_3   0.356115 0.702578 0.258867 -0.306798
C2    C     C_R   0.979288 0.271534 0.481948 0.058177
C3    C     C_R   0.158023 0.180154 0.536880 -0.153961
C4    C     C_3   0.919657 0.721957 0.349448 0.358028
C5    C     C_R   0.212848 0.250083 0.536752 -0.007157
C6    C     C_R   0.670923 0.815442 0.455420 -0.161869
C7    C     C_R   0.606395 0.746812 0.456866 0.008805
C8    C     C_R   0.859152 0.800791 0.532609 -0.139567
C9    C     C_R   0.823218 0.727006 0.520718 0.063264
C10   C     C_R   0.003607 0.153844 0.514351 -0.002908
C11   C     C_R   0.118275 0.296516 0.513494 -0.255366
C12   C     C_3   0.388761 0.683016 0.319489 0.333048
C13   C     C_R   0.791839 0.846955 0.497142 -0.000141
C14   C     C_R   0.692008 0.701078 0.484744 -0.260796
C15   C     C_R   0.137118 0.049074 0.594278 -0.078874
C16   C     C_3   0.947024 0.794400 0.331479 -0.369913
C17   C     C_R   0.245742 0.000793 0.608887 -0.058761
C18   C     C_R   0.244487 0.931928 0.576199 -0.070219
C19   C     C_R   0.123174 0.909686 0.533899 -0.106348
C20   C     C_R   0.996152 0.954354 0.527095 0.021286
C21   C     C_R   0.026732 0.028804 0.546530 0.037887
C22   C     C_R   0.839250 0.927219 0.505968 -0.011269
C23   C     C_3   0.482936 0.684525 0.619305 0.308897
C24   C     C_R   0.723331 0.979796 0.500796 0.039012
C25   C     C_R   0.772747 0.053858 0.507395 0.010266
C26   C     C_R   0.934303 0.078679 0.522742 -0.023848
C27   C     C_R   0.555854 0.962175 0.492348 -0.077062
C28   C     C_3   0.818168 0.373048 0.341985 0.296150
C29   C     C_R   0.448665 0.011349 0.479000 -0.078118
C30   C     C_R   0.498184 0.082008 0.485379 -0.058803
C31   C     C_R   0.652588 0.102969 0.506537 -0.072115
C32   C     C_R   0.644717 0.523494 0.335242 -0.304273
C33   C     C_R   0.375936 0.560421 0.947375 -0.023717
C34   C     C_3   0.492444 0.765092 0.637487 -0.386274
C35   C     C_R   0.324418 0.557309 0.887999 0.583672
C36   C     C_R   0.249967 0.433114 0.879679 0.587104
C37   C     C_R   0.300206 0.434457 0.939129 -0.023852
C38   C     C_R   0.363902 0.498554 0.973009 -0.052651
C39   C     C_R   0.439843 0.623976 0.981610 -0.077375
C40   C     C_3   0.801130 0.351464 0.274577 -0.371752
C41   C     C_R   0.491288 0.626143 0.040194 -0.077664
C42   C     C_R   0.480181 0.564846 0.066418 -0.017438
C43   C     C_R   0.416187 0.500823 0.032745 -0.052980
C44   C     C_R   0.289866 0.373133 0.965329 -0.077108
C45   C     C_3   0.891460 0.284128 0.649516 0.362390
C46   C     C_R   0.341934 0.375337 0.023992 -0.075744
C47   C     C_R   0.405376 0.439005 0.058399 -0.023821
C48   C     C_R   0.458402 0.442212 0.117801 0.589244
C49   C     C_R   0.530854 0.566497 0.125705 0.572976
C50   C     C_2   0.065124 0.476298 0.773365 -0.068706
C51   C     C_3   0.019908 0.483416 0.710082 -0.060423
C52   C     C_3   0.999384 0.632902 0.659876 0.300900
C53   C     C_1   0.302711 0.511602 0.693860 0.018465
C54   C     C_2   0.344885 0.510089 0.749546 -0.083083
C55   C     C_2   0.219738 0.491725 0.792743 0.218566
C56   C     C_3   0.885604 0.212678 0.670081 -0.362274
C57   C     C_R   0.712601 0.541392 0.235371 -0.090702
C58   C     C_R   0.752179 0.548603 0.295895 -0.024816
C59   C     C_R   0.501573 0.487118 0.314295 0.030573
C60   C     C_R   0.458030 0.481736 0.253983 -0.107723
C61   C     C_R   0.562451 0.509748 0.213807 0.200590
C62   C     C_2   0.168240 0.479173 0.670813 -0.279514
C63   C     C_3   0.036198 0.662758 0.725285 -0.363075
C64   C     C_3   0.320905 0.315987 0.392298 0.326728
C65   C     C_3   0.332583 0.234892 0.375920 -0.204074
C66   C     C_3   0.195996 0.198316 0.334680 -0.225402
C67   C     C_3   0.381722 0.279823 0.671010 0.310042
C68   C     C_3   0.200681 0.218360 0.272681 -0.310374
C69   C     C_3   0.448083 0.266153 0.729877 -0.357767
C70   C     C_R   0.925549 0.199420 0.479863 -0.146982
H1    H     H_    0.319370 0.632956 0.322409 0.095447
H2    H     H_    0.194637 0.330207 0.402533 -0.012204
H3    H     H_    0.397096 0.334378 0.432532 0.067067
H4    H     H_    0.236792 0.726920 0.258178 0.146794
H5    H     H_    0.452271 0.221425 0.355392 0.123059
H6    H     H_    0.326001 0.212496 0.417585 0.052031
H7    H     H_    0.520121 0.673947 0.322710 -0.054561
H8    H     H_    0.354810 0.653902 0.224104 0.118621
H9    H     H_    0.605545 0.666021 0.606204 0.017038
H10   H     H_    0.400036 0.670933 0.580361 0.071072
H11   H     H_    0.578352 0.780953 0.675303 0.132005
H12   H     H_    0.712601 0.305864 0.263599 0.135729
H13   H     H_    0.535071 0.789548 0.599222 0.057137
H14   H     H_    0.371010 0.784989 0.651138 0.122628
H15   H     H_    0.451284 0.741013 0.248451 0.117570
H16   H     H_    0.885198 0.835721 0.363225 0.070350
H17   H     H_    0.796894 0.282601 0.614735 0.095349
H18   H     H_    0.012475 0.293081 0.630598 -0.058626
H19   H     H_    0.770137 0.205243 0.693539 0.138548
H20   H     H_    0.892850 0.169047 0.631181 0.069005
H21   H     H_    0.987989 0.209888 0.700855 0.115811
H22   H     H_    0.263389 0.250295 0.662637 -0.020431
H23   H     H_    0.758272 0.396398 0.254960 0.076018
H24   H     H_    0.364315 0.338067 0.675468 0.032087
H25   H     H_    0.360062 0.282945 0.766135 0.130154
H26   H     H_    0.563740 0.297015 0.740814 0.156279
H27   H     H_    0.971688 0.724690 0.394817 0.067249
H28   H     H_    0.468775 0.208550 0.726905 0.106253
H29   H     H_    0.824647 0.180109 0.450825 0.080950
H30   H     H_    0.243560 0.147622 0.552849 0.072768
H31   H     H_    0.618466 0.844932 0.424425 0.075807
H32   H     H_    0.938975 0.820781 0.569682 0.074250
H33   H     H_    0.161393 0.350969 0.515039 0.059479
H34   H     H_    0.919846 0.335914 0.254452 0.115756
H35   H     H_    0.649826 0.646282 0.481778 0.069985
H36   H     H_    0.136807 0.101416 0.621823 0.061324
H37   H     H_    0.333436 0.017385 0.644265 0.071593
H38   H     H_    0.334526 0.895274 0.584621 0.076954
H39   H     H_    0.787307 0.710113 0.350132 -0.054016
H40   H     H_    0.124495 0.856813 0.508517 0.131675
H41   H     H_    0.502392 0.911720 0.497766 0.076916
H42   H     H_    0.324109 0.995534 0.467701 0.081611
H43   H     H_    0.414157 0.120869 0.477367 0.083507
H44   H     H_    0.677354 0.157289 0.526113 0.130941
H45   H     H_    0.113323 0.615691 0.637137 0.021889
H46   H     H_    0.331925 0.326886 0.042389 0.121017
H47   H     H_    0.241807 0.323053 0.940455 0.120207
H48   H     H_    0.539735 0.676213 0.064964 0.121931
H49   H     H_    0.798782 0.560010 0.205185 0.114895
H50   H     H_    0.450656 0.672372 0.963152 0.123720
H51   H     H_    0.078201 0.808955 0.332009 0.144086
H52   H     H_    0.468608 0.523174 0.764374 0.104914
H53   H     H_    0.971159 0.465514 0.804318 0.094568
H54   H     H_    0.344044 0.455413 0.238415 0.122075
H55   H     H_    0.677874 0.528042 0.381735 0.082175
H56   H     H_    0.911804 0.586983 0.656600 0.035297
H57   H     H_    0.165835 0.449039 0.625529 0.068002
H58   H     H_    0.898067 0.793174 0.285941 0.124654
H59   H     H_    0.698377 0.387652 0.361032 0.018831
H60   H     H_    0.904797 0.419446 0.351988 0.063913
H61   H     H_    0.168249 0.274574 0.275110 0.160707
H62   H     H_    0.322734 0.210315 0.252657 0.134806
H63   H     H_    0.111205 0.184241 0.243262 0.104175
H64   H     H_    0.208043 0.139801 0.329448 0.107939
H65   H     H_    0.076736 0.210902 0.355609 0.122955
H66   H     H_    0.115972 0.711406 0.728835 0.145398
H67   H     H_    0.098858 0.623626 0.746532 0.081811
H68   H     H_    0.922009 0.676483 0.749771 0.119704
N1    N     N_R   0.263517 0.494049 0.854743 -0.429003
N2    N     N_R   0.516848 0.505955 0.151480 -0.423863
O1    O     O_2   0.108070 0.674980 0.540650 -0.464038
O2    O     O_2   0.687477 0.445030 0.698115 -0.477567
O3    O     O_3   0.864021 0.337479 0.698925 -0.593886
O4    O     O_3   0.861930 0.586170 0.535430 -0.484461
O5    O     O_3   0.451480 0.461630 0.428900 -0.492050
O6    O     O_2   0.599240 0.538720 0.642170 -0.457352
O7    O     O_3   0.425454 0.654159 0.667587 -0.634553
O8    O     O_2   0.532789 0.248929 0.509654 -0.510050
O9    O     O_3   0.490513 0.255645 0.624835 -0.599205
O10   O     O_2   0.332841 0.611080 0.865886 -0.594930
O11   O     O_2   0.195987 0.377606 0.849884 -0.601167
O12   O     O_3   0.375952 0.347151 0.344445 -0.640934
O13   O     O_2   0.454564 0.387968 0.139239 -0.602213
O14   O     O_2   0.586522 0.622246 0.154545 -0.617261
O15   O     O_3   0.366390 0.628250 0.433820 -0.479890
O16   O     O_2   0.278260 0.756043 0.479462 -0.498944
O17   O     O_3   0.931231 0.686460 0.634941 -0.636362
O18   O     O_3   0.339226 0.738083 0.364664 -0.601740
O19   O     O_2   0.211060 0.461230 0.357810 -0.460272
O20   O     O_3   0.958150 0.591500 0.402390 -0.485823
O21   O     O_2   0.085323 0.539454 0.296120 -0.495947
O22   O     O_3   0.996261 0.670441 0.307982 -0.596820
O23   O     O_2   0.702240 0.324970 0.459330 -0.452529
O24   O     O_3   0.948380 0.413820 0.464520 -0.489075
O25   O     O_3   0.443920 0.371740 0.566130 -0.459310
O26   O     O_3   0.874576 0.315286 0.364839 -0.641484
O27   O     O_3   0.358830 0.538360 0.571050 -0.481008
O28   O     O_3   0.852160 0.408490 0.597560 -0.487082
P1    P     P_3+3 0.933470 0.664380 0.557030 0.982905
P2    P     P_3+3 0.383600 0.440030 0.365120 0.983475
P3    P     P_3+3 0.948249 0.586542 0.325042 0.947119
P4    P     P_3+3 0.876840 0.335610 0.442930 0.975565
P5    P     P_3+3 0.855958 0.419787 0.675786 0.977706
P6    P     P_3+3 0.398485 0.718588 0.433307 0.934986
P7    P     P_3+3 0.418300 0.561426 0.645822 0.958657
P8    P     P_3+3 0.418312 0.280396 0.559852 0.921180

loop_
_geom_bond_atom_site_label_1
_geom_bond_atom_site_label_2
_ccdc_geom_bond_type
C57   H49   S    
C23   H9    S    
C53   C54   D    
C45   O3    S    
C9    P1    S    
O6    P7    D    
O18   P6    S    
C4    H39   S    
C17   C18   A    
C65   H5    S    
C67   H24   S    
Ba1   O4    S    
C52   C63   S    
C25   C31   A    
O26   P4    S    
C69   H25   S    
C24   C25   A    
C15   C21   A    
O17   P1    S    
C12   H7    S    
C10   C26   S    
C54   H52   S    
C33   C35   A    
C56   H21   S    
C22   C24   A    
C8    C13   A    
C36   C37   A    
C51   C62   S    
C36   N1    Am   
C70   H29   S    
C34   H11   S    
Ba2   O6    S    
C28   H59   S    
C64   H2    S    
C54   C55   S    
C7    P6    S    
C23   O7    S    
Ba1   Ba2   S    
C2    C11   A    
C67   C69   S    
C14   H35   S    
C52   O17   S    
O19   P2    D    
O3    P5    S    
C32   H55   S    
C68   H61   S    
C56   H19   S    
Ba2   O24   S    
C29   H42   S    
C41   H48   S    
O8    P8    D    
C64   C65   S    
C10   C70   A    
Ba1   O19   S    
C57   C58   A    
C2    P4    S    
O4    P1    S    
C32   C58   A    
C58   P3    S    
C45   H17   S    
C66   H65   S    
C65   H6    S    
C1    H8    S    
O27   P7    S    
C3    C5    A    
O28   P5    S    
C17   H37   S    
C38   C43   A    
C4    C16   S    
C69   H26   S    
C44   C46   A    
C49   O14   D    
O24   P4    S    
C42   C43   A    
C63   H68   S    
C1    H15   S    
C40   H23   S    
C67   O9    S    
C12   H1    S    
C66   H64   S    
C40   H12   S    
C3    C10   A    
C11   H33   S    
C67   H22   S    
C8    C9    A    
C15   H36   S    
C37   C38   A    
C60   H54   S    
C6    C7    A    
O9    P8    S    
C46   H46   S    
O15   P6    S    
C34   H14   S    
O23   P4    D    
C53   P7    S    
C52   H56   S    
Ba1   P1    S    
C32   C59   A    
C16   H16   S    
C65   C66   S    
C5    P8    S    
C12   O18   S    
C39   H50   S    
C41   C42   A    
C60   C61   A    
Ba1   O1    S    
C9    C14   A    
C29   C30   A    
C43   C47   A    
C48   O13   D    
O20   P3    S    
C53   C62   D    
O7    P7    S    
O12   P2    S    
O22   P3    S    
C59   P2    S    
C21   C26   A    
C62   H57   S    
C1    H4    S    
C40   H34   S    
Ba2   O23   S    
C1    C12   S    
C35   N1    Am   
Ba2   O28   S    
C37   C44   A    
C18   H38   S    
C63   H66   S    
C42   C49   A    
O16   P6    D    
C46   C47   A    
C4    O22   S    
Ba1   O20   S    
C6    C13   A    
C68   H63   S    
C45   H18   S    
C20   C22   A    
Ba1   O5    S    
C35   O10   D    
O21   P3    D    
C2    C70   A    
C19   H40   S    
C50   C51   S    
C51   P5    S    
C64   O12   S    
C49   N2    Am   
C27   H41   S    
C3    H30   S    
C13   C22   S    
C31   H44   S    
C23   C34   S    
C7    C14   A    
C39   C41   A    
C50   H53   S    
C34   H13   S    
Ba2   O4    S    
C69   H28   S    
C16   H51   S    
Ba1   P2    S    
C57   C61   A    
C55   N1    S    
C4    H27   S    
C8    H32   S    
C33   C38   A    
Ba2   O5    S    
O1    P1    D    
Ba1   O15   S    
C27   C29   A    
C30   C31   A    
C45   C56   S    
C23   H10   S    
Ba1   O24   S    
C28   H60   S    
C64   H3    S    
O2    P5    D    
Ba1   O27   S    
C15   C17   A    
C61   N2    S    
C44   H47   S    
C30   H43   S    
C59   C60   A    
C33   C39   A    
C6    H31   S    
C16   H58   S    
C50   C55   D    
Ba2   O27   S    
C28   O26   S    
C63   H67   S    
C5    C11   A    
O25   P8    S    
C18   C19   A    
O5    P2    S    
C24   C27   A    
C66   C68   S    
C47   C48   A    
C52   H45   S    
C25   C26   A    
C68   H62   S    
C20   C21   A    
C28   C40   S    
C36   O11   D    
C19   C20   A    
C56   H20   S    
Ba2   O25   S    
Ba2   P4    S    
C48   N2    Am   
