data_mof_unit_20434.cif
_audit_creation_date              2012-12-10T19:45:41-0500
_audit_creation_method            fapswitch 2.2
_symmetry_space_group_name_H-M    P1
_symmetry_Int_Tables_number       1
_space_group_crystal_system       triclinic
_cell_length_a                    10.976726
_cell_length_b                    14.757655
_cell_length_c                    14.768998
_cell_angle_alpha                 64.818319
_cell_angle_beta                  105.244311
_cell_angle_gamma                 102.011367
_cell_volume                      2076.16381262

loop_
_atom_site_label
_atom_site_type_symbol
_atom_type_description
_atom_site_fract_x
_atom_site_fract_y
_atom_site_fract_z
_atom_type_partial_charge
C1    C     C_R   0.477996 0.119349 0.311034 0.838805
C2    C     C_R   0.518432 0.880409 0.688507 0.854695
C3    C     C_R   0.870118 0.007173 0.486883 -0.179120
C4    C     C_R   0.131197 0.994487 0.514863 -0.171320
C5    C     C_R   0.910117 0.928210 0.475102 -0.082758
C6    C     C_R   0.091699 0.075467 0.523556 -0.088803
C7    C     C_R   0.451712 0.185326 0.199952 -0.149805
C8    C     C_R   0.535949 0.811414 0.798311 -0.149262
C9    C     C_R   0.294933 0.228713 0.040690 0.058728
C10   C     C_R   0.695271 0.759979 0.953493 0.082601
C11   C     C_R   0.361467 0.154236 0.127277 -0.042720
C12   C     C_R   0.624001 0.836600 0.875079 -0.070082
C13   C     C_R   0.506696 0.285003 0.168358 -0.228964
C14   C     C_R   0.481325 0.711556 0.823191 -0.244928
C15   C     C_R   0.464409 0.356892 0.070292 0.079624
C16   C     C_R   0.527546 0.634339 0.916084 0.038160
C17   C     C_R   0.349066 0.331142 0.011167 0.102498
C18   C     C_R   0.644827 0.657576 0.975177 0.096983
C19   C     C_R   0.528167 0.456102 0.033809 0.120153
C20   C     C_R   0.467166 0.533418 0.946934 0.109540
C21   C     C_R   0.346736 0.507624 0.895171 -0.149076
C22   C     C_R   0.653076 0.479251 0.080097 -0.224988
C23   C     C_R   0.264016 0.996929 0.506946 0.816580
C24   C     C_R   0.736263 0.003344 0.493382 0.818570
C25   C     C_R   0.291587 0.408490 0.924131 -0.210538
C26   C     C_R   0.708942 0.577918 0.053288 -0.195259
C27   C     C_R   0.702429 0.279027 0.680157 -0.316265
C28   C     C_R   0.300491 0.718523 0.322340 -0.307398
C29   C     C_R   0.676648 0.199490 0.648357 0.194311
C30   C     C_R   0.314656 0.792495 0.360561 0.168437
C31   C     C_R   0.529319 0.292087 0.502514 0.055295
C32   C     C_R   0.486151 0.716216 0.490505 0.067004
C33   C     C_R   0.561393 0.376909 0.531220 0.036822
C34   C     C_R   0.458725 0.630493 0.464512 0.006783
C35   C     C_R   0.641602 0.364201 0.625669 0.093060
C36   C     C_R   0.375535 0.640204 0.371206 0.107131
C37   C     C_R   0.510232 0.471148 0.473587 -0.014985
C38   C     C_R   0.517053 0.539331 0.522104 -0.043321
C39   C     C_R   0.584733 0.514110 0.624550 -0.040875
C40   C     C_R   0.453884 0.500207 0.368965 -0.057812
C41   C     C_R   0.655747 0.433124 0.669945 -0.237589
C42   C     C_R   0.374505 0.576445 0.323305 -0.262488
C43   C     C_R   0.309874 0.186478 0.707114 -0.166739
C44   C     C_R   0.701802 0.850535 0.262946 -0.172606
C45   C     C_R   0.238680 0.113953 0.670184 0.238354
C46   C     C_R   0.770773 0.912955 0.313542 0.216896
C47   C     C_R   0.182816 0.145437 0.564625 0.156928
C48   C     C_R   0.821362 0.868235 0.420182 0.141778
C49   C     C_R   0.198464 0.247993 0.500250 -0.168189
C50   C     C_R   0.798406 0.763390 0.472174 -0.140449
C51   C     C_R   0.259453 0.319252 0.540581 -0.122457
C52   C     C_R   0.739397 0.702770 0.418518 -0.089478
C53   C     C_R   0.316659 0.288557 0.643500 -0.134259
C54   C     C_R   0.688352 0.746146 0.314743 -0.146150
C55   C     C_R   0.961354 0.084991 0.503269 -0.042087
C56   C     C_R   0.040314 0.915282 0.502770 -0.046732
Cu1   Cu    Cu3+1 0.466270 0.918260 0.475690 1.012429
Cu2   Cu    Cu3+1 0.533730 0.081740 0.524310 1.013191
H1    H     H_    0.366369 0.343998 0.674132 0.159404
H2    H     H_    0.638877 0.698689 0.274236 0.156808
H3    H     H_    0.292196 0.562730 0.831307 0.156816
H4    H     H_    0.709799 0.421418 0.138016 0.145552
H5    H     H_    0.712366 0.417327 0.746298 0.177432
H6    H     H_    0.323146 0.593781 0.245329 0.179383
H7    H     H_    0.566971 0.723512 0.547812 0.139547
H8    H     H_    0.456445 0.293725 0.436660 0.131731
H9    H     H_    0.769902 0.274939 0.749828 0.194974
H10   H     H_    0.230324 0.721941 0.253978 0.174506
H11   H     H_    0.356052 0.164635 0.786526 0.126336
H12   H     H_    0.662279 0.882488 0.182003 0.169035
H13   H     H_    0.155107 0.273375 0.419908 0.140142
H14   H     H_    0.834677 0.727869 0.553427 0.150071
H15   H     H_    0.262225 0.398493 0.491768 0.162300
H16   H     H_    0.733474 0.621806 0.457672 0.168396
H17   H     H_    0.202265 0.394621 0.877114 0.164204
H18   H     H_    0.802819 0.590199 0.095701 0.169455
H19   H     H_    0.407860 0.695011 0.765890 0.204838
H20   H     H_    0.580357 0.305790 0.222886 0.167354
N1    N     N_R   0.584450 0.204570 0.560790 -0.216916
N2    N     N_R   0.415550 0.795430 0.439210 -0.222574
O1    O     O_R   0.455540 0.022090 0.338120 -0.525603
O2    O     O_R   0.544460 0.977910 0.661880 -0.531412
O3    O     O_R   0.512510 0.160150 0.379180 -0.584039
O4    O     O_R   0.487490 0.839850 0.620820 -0.579683
O5    O     O_R   0.291160 0.930970 0.479480 -0.544977
O6    O     O_R   0.708840 0.069030 0.520520 -0.522394
O7    O     O_R   0.348130 0.069020 0.520540 -0.595282
O8    O     O_R   0.651870 0.930980 0.479460 -0.598357
C57   C     C_3   0.164652 0.200180 0.985063 -0.362749
C58   C     C_3   0.172125 0.190503 0.887849 -0.776271
H21   H     H_    0.222035 0.259685 0.837550 0.244983
H22   H     H_    0.223180 0.125351 0.906936 0.266110
H23   H     H_    0.074841 0.178549 0.845281 0.265865
H24   H     H_    0.116943 0.129546 0.035137 0.246746
H25   H     H_    0.098990 0.256199 0.966709 0.190887
C59   C     C_3   0.828662 0.787466 0.004960 -0.378717
C60   C     C_3   0.837373 0.770218 0.116134 -0.726730
H26   H     H_    0.828542 0.841190 0.121375 0.273431
H27   H     H_    0.762629 0.711692 0.150770 0.243987
H28   H     H_    0.931141 0.745153 0.161350 0.266291
H29   H     H_    0.895166 0.742468 0.000978 0.184850
H30   H     H_    0.864509 0.866819 0.962375 0.222658
C61   C     C_2   0.212042 0.860198 0.313677 0.930723
O9    O     O_2   0.231579 0.948560 0.300647 -0.590680
O10   O     O_R   0.089741 0.821673 0.279131 -0.756982
H31   H     H_    0.026598 0.873159 0.248969 0.337758
C62   C     C_2   0.754859 0.113948 0.718583 0.886002
O11   O     O_2   0.772398 0.050484 0.693149 -0.579991
O12   O     O_R   0.817722 0.110008 0.815792 -0.789359
H32   H     H_    0.873821 0.053303 0.854346 0.331701
C63   C     C_2   0.575451 0.561220 0.692578 0.796310
O13   O     O_2   0.471597 0.574897 0.697235 -0.619054
O14   O     O_R   0.685952 0.587109 0.753608 -0.772230
H33   H     H_    0.668986 0.620445 0.795695 0.337941
C64   C     C_2   0.499954 0.469400 0.301873 0.807717
O15   O     O_2   0.430089 0.463889 0.224417 -0.602973
O16   O     O_R   0.627113 0.451648 0.326020 -0.773938
H34   H     H_    0.651451 0.434673 0.274353 0.324161
C65   C     C_3   0.220607 0.005664 0.745515 -0.405003
C66   C     C_3   0.087914 0.976689 0.770865 -0.765702
H35   H     H_    0.063352 0.034237 0.790843 0.261206
H36   H     H_    0.015328 0.968283 0.706088 0.270718
H37   H     H_    0.085402 0.903243 0.837174 0.238440
H38   H     H_    0.240036 0.953292 0.716246 0.221638
H39   H     H_    0.289500 0.994622 0.818480 0.228282
C67   C     C_3   0.790156 0.025367 0.251102 -0.394201
C68   C     C_3   0.921225 0.058363 0.223001 -0.796648
H40   H     H_    0.929897 0.024060 0.171420 0.252187
H41   H     H_    0.933691 0.141549 0.182225 0.247668
H42   H     H_    0.997773 0.036591 0.291849 0.268875
H43   H     H_    0.718332 0.046487 0.178810 0.241525
H44   H     H_    0.775022 0.068929 0.291715 0.206428
C69   C     C_2   0.921465 0.180128 0.492955 0.892917
O17   O     O_2   0.950419 0.206092 0.564940 -0.586214
O18   O     O_R   0.848459 0.238577 0.400720 -0.782456
H45   H     H_    0.825208 0.300429 0.403055 0.342168
C70   C     C_2   0.082083 0.814953 0.532255 0.862630
O19   O     O_2   0.052964 0.772477 0.473239 -0.573867
O20   O     O_R   0.159359 0.770875 0.627904 -0.779326
H46   H     H_    0.184084 0.703790 0.639311 0.333832
C71   C     C_2   0.618554 0.931058 0.887394 0.885374
O21   O     O_2   0.687731 0.949382 0.958622 -0.607283
O22   O     O_R   0.525893 0.994904 0.823555 -0.780683
H47   H     H_    0.531365 0.055435 0.840704 0.321681
C72   C     C_2   0.356613 0.050579 0.131394 0.903830
O23   O     O_2   0.259265 0.008402 0.097129 -0.622166
O24   O     O_R   0.467157 0.002335 0.171243 -0.779169
H48   H     H_    0.452502 0.932565 0.170342 0.319966

loop_
_geom_bond_atom_site_label_1
_geom_bond_atom_site_label_2
_ccdc_geom_bond_type
C31   H8    S    
C67   C68   S    
C59   H30   S    
C27   C29   A    
C5    C56   A    
C36   C42   A    
O24   H48   S    
C18   C26   A    
C6    C55   A    
Cu2   O7    S    
C49   C51   A    
C60   H26   S    
C53   H1    S    
O18   H45   S    
C39   C41   A    
C54   H2    S    
C65   H38   S    
C15   C19   A    
C70   O20   S    
C28   H10   S    
C37   C40   A    
C52   H16   S    
C71   O22   S    
C38   C39   A    
C40   C64   S    
C22   H4    S    
C1    O1    A    
C64   O15   D    
C12   C71   S    
C14   H19   S    
C57   H24   S    
C50   H14   S    
C60   H27   S    
C3    C55   A    
C43   C53   A    
C19   C20   A    
C44   C46   A    
C64   O16   S    
C30   C61   S    
C50   C52   A    
C62   O11   D    
C31   C33   A    
C44   H12   S    
C14   C16   A    
C10   C59   S    
C21   H3    S    
C66   H37   S    
C8    C12   A    
C30   N2    A    
C45   C65   S    
C40   C42   A    
C43   H11   S    
C23   O7    A    
C59   H29   S    
C4    C56   A    
C62   O12   S    
Cu1   N2    S    
C3    C24   S    
C71   O21   D    
Cu2   O6    S    
C72   O24   S    
C66   H36   S    
C72   O23   D    
Cu1   Cu2   S    
C45   C47   A    
C58   H22   S    
C5    C48   S    
C46   C48   A    
C6    C47   S    
C19   C22   A    
C47   C49   A    
C9    C57   S    
C4    C23   S    
C11   C72   S    
C27   C35   A    
C55   C69   S    
C33   C37   A    
C51   C53   A    
C32   C34   A    
C57   H25   S    
C7    C11   A    
C68   H41   S    
C37   C38   A    
C32   N2    A    
C24   O8    A    
C26   H18   S    
C29   N1    A    
C67   H44   S    
C16   C20   A    
C59   C60   S    
C2    O4    A    
Cu1   O4    S    
C52   C54   A    
C63   O14   S    
C65   C66   S    
C48   C50   A    
C9    C11   A    
C10   C12   A    
Cu2   N1    S    
C65   H39   S    
C9    C17   A    
C13   C15   A    
C22   C26   A    
C69   O17   D    
C61   O10   S    
Cu1   O1    S    
C2    O2    A    
C4    C6    A    
C41   H5    S    
C68   H40   S    
C42   H6    S    
C60   H28   S    
C66   H35   S    
C58   H23   S    
O14   H33   S    
O10   H31   S    
C15   C17   A    
C21   C25   A    
C13   H20   S    
C8    C14   A    
C63   O13   D    
C34   C38   A    
C46   C67   S    
C2    C8    S    
C51   H15   S    
C3    C5    A    
O20   H46   S    
C31   N1    A    
C1    O3    A    
C70   O19   D    
Cu1   O8    S    
C17   C25   A    
Cu2   O2    S    
C68   H42   S    
C23   O5    A    
C28   C30   A    
C43   C45   A    
Cu2   O3    S    
C56   C70   S    
C58   H21   S    
C67   H43   S    
C10   C18   A    
C39   C63   S    
C33   C35   A    
Cu1   O5    S    
C34   C36   A    
C35   C41   A    
C27   H9    S    
C44   C54   A    
C7    C13   A    
C20   C21   A    
C28   C36   A    
C16   C18   A    
C49   H13   S    
O12   H32   S    
C61   O9    D    
C69   O18   S    
C29   C62   S    
C1    C7    S    
C25   H17   S    
C57   C58   S    
O16   H34   S    
C24   O6    A    
O22   H47   S    
C32   H7    S    
