data_mof_unit_63568.cif
_audit_creation_date              2012-12-11T17:33:55-0500
_audit_creation_method            fapswitch 2.2
_symmetry_space_group_name_H-M    P1
_symmetry_Int_Tables_number       1
_space_group_crystal_system       triclinic
_cell_length_a                    20.026821
_cell_length_b                    20.03916
_cell_length_c                    20.666497
_cell_angle_alpha                 106.586137
_cell_angle_beta                  107.940297
_cell_angle_gamma                 111.103149
_cell_volume                      6586.64300462

loop_
_atom_site_label
_atom_site_type_symbol
_atom_type_description
_atom_site_fract_x
_atom_site_fract_y
_atom_site_fract_z
_atom_type_partial_charge
C1    C     C_R   0.294922 0.271055 0.345681 -0.240416
C2    C     C_R   0.293361 0.461607 0.529188 0.758645
C3    C     C_R   0.553124 0.519044 0.719140 0.723468
C4    C     C_R   0.726751 0.569694 0.497720 -0.218754
C5    C     C_R   0.436063 0.660511 0.433753 0.618277
C6    C     C_R   0.483272 0.491820 0.726695 -0.153181
C7    C     C_R   0.503671 0.730925 0.457534 -0.318392
C8    C     C_R   0.272018 0.515597 0.514206 -0.147579
C9    C     C_R   0.763719 0.720678 0.712008 0.003238
C10   C     C_3   0.594086 0.068623 0.476551 -0.046343
C11   C     C_3   0.462791 0.987583 0.347511 -0.120145
C12   C     C_R   0.770470 0.543749 0.538446 -0.147521
C13   C     C_3   0.468708 0.911220 0.343346 -0.429881
C14   C     C_1   0.505475 0.791557 0.435696 0.179523
C15   C     C_3   0.504806 0.050925 0.432901 -0.003614
C16   C     C_R   0.446379 0.513846 0.290794 -0.000237
C17   C     C_3   0.592272 0.988518 0.470203 -0.477374
C18   C     C_3   0.504483 0.918161 0.424560 0.191299
C19   C     C_3   0.454359 0.935191 0.465434 -0.333670
C20   C     C_3   0.454525 0.013763 0.470255 0.581998
C21   C     C_1   0.505728 0.846527 0.424605 -0.039997
C22   C     C_1   0.502625 0.124287 0.440982 0.002246
C23   C     C_R   0.516238 0.560546 0.289414 0.046838
C24   C     C_1   0.501125 0.185301 0.456556 0.122070
C25   C     C_3   0.064802 0.665120 0.610913 0.409912
C26   C     C_3   0.970835 0.538906 0.486239 0.723086
C27   C     C_3   0.043634 0.533366 0.481295 -0.575396
C28   C     C_R   0.566224 0.331973 0.529039 0.754023
C29   C     C_1   0.222255 0.539894 0.537149 0.098494
C30   C     C_3   0.989837 0.579515 0.570813 -0.204401
C31   C     C_3   0.138564 0.657277 0.606166 0.368079
C32   C     C_3   0.112227 0.567754 0.561945 -0.191172
C33   C     C_3   0.081362 0.521153 0.604352 0.730472
C34   C     C_R   0.499938 0.257632 0.481181 -0.149629
C35   C     C_3   0.008747 0.528089 0.609560 -0.561658
C36   C     C_1   0.176445 0.556851 0.552669 0.170582
C37   C     C_1   0.917704 0.579497 0.570210 0.134926
C38   C     C_1   0.851898 0.567432 0.559292 0.110184
C39   C     C_R   0.476989 0.513556 0.797650 0.133887
C40   C     C_R   0.580151 0.578913 0.354778 -0.096571
C41   C     C_R   0.524479 0.593742 0.852523 -0.114625
C42   C     C_R   0.519944 0.617809 0.920329 -0.188435
C43   C     C_R   0.467336 0.561504 0.934189 0.245784
C44   C     C_R   0.418114 0.482148 0.878571 -0.203260
C45   C     C_R   0.419744 0.447665 0.654221 -0.222526
C46   C     C_R   0.422695 0.457370 0.810565 0.008339
C47   C     C_R   0.457817 0.628614 0.139184 0.777243
C48   C     C_R   0.455382 0.602275 0.194227 -0.335013
C49   C     C_R   0.527066 0.652085 0.128401 -0.020010
C50   C     C_R   0.522065 0.599407 0.239224 0.047585
C51   C     C_R   0.594332 0.632380 0.234625 -0.192496
C52   C     C_R   0.432032 0.265374 0.466129 -0.188519
C53   C     C_R   0.597262 0.659479 0.179936 -0.061979
C54   C     C_R   0.211184 0.195792 0.201775 -0.046723
C55   C     C_R   0.226908 0.185130 0.138911 0.813204
C56   C     C_R   0.569516 0.727577 0.499179 0.650886
C57   C     C_R   0.171918 0.117888 0.069977 -0.316875
C58   C     C_R   0.100783 0.061104 0.063591 0.160711
C59   C     C_R   0.085495 0.072153 0.126307 -0.163115
C60   C     C_R   0.140868 0.138772 0.195546 -0.228648
C61   C     C_R   0.957244 0.834957 0.894619 -0.060970
C62   C     C_R   0.879508 0.778330 0.838973 -0.221463
C63   C     C_R   0.002040 0.899799 0.883954 -0.002950
C64   C     C_R   0.724975 0.500451 0.564667 0.810357
C65   C     C_R   0.848373 0.779203 0.768552 0.046643
C66   C     C_R   0.897667 0.838066 0.754645 -0.340375
C67   C     C_R   0.303816 0.538404 0.469096 -0.213135
C68   C     C_R   0.973937 0.898721 0.812532 0.784748
C69   C     C_R   0.303872 0.343692 0.281583 0.823476
C70   C     C_R   0.267897 0.266881 0.273392 -0.088746
C71   C     C_1   0.749559 0.604812 0.741349 0.264512
C72   C     C_1   0.646222 0.106295 0.445663 0.172132
C73   C     C_1   0.493954 0.018403 0.300055 0.108518
C74   C     C_1   0.632249 0.125647 0.557843 0.086211
C75   C     C_1   0.371278 0.867337 0.428584 0.292146
C76   C     C_1   0.082668 0.708752 0.690475 0.269357
C77   C     C_1   0.374917 0.373479 0.757598 0.123793
C78   C     C_R   0.717175 0.647170 0.707729 0.010971
C79   C     C_1   0.669771 0.685392 0.171186 0.147172
C80   C     C_1   0.987674 0.829573 0.965035 0.148537
C81   C     C_R   0.719188 0.721780 0.646188 -0.093868
F1    F     F_    0.646919 0.776418 0.517651 -0.699830
F2    F     F_    0.058903 0.441199 0.566950 -0.631900
F3    F     F_    0.390257 0.623525 0.091127 -0.663835
F4    F     F_    0.017339 0.960031 0.801182 -0.656788
F5    F     F_    0.296165 0.238722 0.144673 -0.660704
F6    F     F_    0.755598 0.484811 0.623122 -0.656621
F7    F     F_    0.284600 0.367906 0.227049 -0.679815
F8    F     F_    0.256366 0.410493 0.553556 -0.696300
F9    F     F_    0.628581 0.559810 0.777028 -0.730888
F10   F     F_    0.362680 0.632606 0.376235 -0.690498
F11   F     F_    0.376766 0.001884 0.436291 -0.686534
F12   F     F_    0.048423 0.709083 0.573431 -0.697053
F13   F     F_    0.904183 0.462768 0.448244 -0.652572
F14   F     F_    0.202761 0.690464 0.677662 -0.690308
F15   F     F_    0.643039 0.347283 0.562696 -0.647355
H1    H     H_    0.271957 0.222919 0.360225 0.157636
H2    H     H_    0.483534 0.943106 0.524540 0.102550
H3    H     H_    0.620233 0.991641 0.527536 0.183805
H4    H     H_    0.160589 0.690392 0.575466 0.145419
H5    H     H_    0.386182 0.499598 0.255053 0.185796
H6    H     H_    0.956379 0.574240 0.456804 0.089495
H7    H     H_    0.064845 0.567214 0.450749 0.153527
H8    H     H_    0.025402 0.469918 0.447269 0.282017
H9    H     H_    0.022125 0.555127 0.670222 0.153188
H10   H     H_    0.955326 0.467381 0.581855 0.291319
H11   H     H_    0.130268 0.546214 0.662722 0.089115
H12   H     H_    0.295866 0.577788 0.444934 0.212180
H13   H     H_    0.400038 0.581006 0.198883 0.186692
H14   H     H_    0.378696 0.438737 0.890112 0.156621
H15   H     H_    0.647021 0.632351 0.270000 0.143870
H16   H     H_    0.558949 0.679720 0.962294 0.148409
H17   H     H_    0.565268 0.638013 0.842862 0.159282
H18   H     H_    0.842683 0.736561 0.853340 0.150742
H19   H     H_    0.642074 0.624555 0.378266 0.123093
H20   H     H_    0.030589 0.028466 0.121422 0.152994
H21   H     H_    0.128167 0.146618 0.243664 0.173550
H22   H     H_    0.876260 0.839742 0.700613 0.177891
H23   H     H_    0.740876 0.763909 0.624765 0.178876
H24   H     H_    0.184685 0.110618 0.021949 0.197136
H25   H     H_    0.370614 0.217430 0.434619 0.161883
H26   H     H_    0.357754 0.412652 0.639863 0.233112
H27   H     H_    0.628445 0.975438 0.441958 0.191204
H28   H     H_    0.397821 0.970167 0.321871 0.188699
H29   H     H_    0.748773 0.614070 0.478489 0.162260
H30   H     H_    0.507237 0.902467 0.316433 0.184698
H31   H     H_    0.407744 0.857606 0.307238 0.182241
H32   H     H_    0.481301 0.055911 0.531245 0.046163
N1    N     N_R   0.350580 0.347460 0.395120 -0.075424
N2    N     N_2   0.520885 0.647256 0.057203 -0.057597
N3    N     N_2   0.042171 0.992065 0.995381 -0.061027
N4    N     N_R   0.656670 0.543450 0.500220 -0.083008
N5    N     N_2   0.065394 0.971916 0.947355 -0.033594
N6    N     N_R   0.466810 0.505630 0.355080 -0.066292
N7    N     N_R   0.540440 0.385280 0.540260 -0.127330
N8    N     N_R   0.550410 0.547340 0.395070 -0.054238
N9    N     N_R   0.456840 0.343580 0.500270 -0.075539
N10   N     N_R   0.653920 0.498790 0.540240 -0.137478
N11   N     N_R   0.353330 0.392130 0.355100 -0.125003
N12   N     N_R   0.543160 0.656420 0.499730 -0.147616
N13   N     N_R   0.449590 0.452660 0.604930 -0.084487
N14   N     N_1   0.775742 0.571148 0.768735 0.017060
N15   N     N_1   0.687348 0.135971 0.421802 -0.036227
N16   N     N_1   0.518078 0.042418 0.262608 -0.045334
N17   N     N_1   0.662007 0.170197 0.621324 -0.025307
N18   N     N_1   0.306447 0.814266 0.399802 -0.036856
N19   N     N_1   0.096516 0.742879 0.752691 -0.060504
N20   N     N_1   0.336645 0.306223 0.715238 -0.035550
N21   N     N_1   0.727878 0.706148 0.164125 -0.060811
N22   N     N_1   0.012027 0.825277 0.021392 -0.061568
N23   N     N_R   0.346080 0.501210 0.459760 -0.076858
N24   N     N_R   0.646670 0.607870 0.644900 -0.080903
N25   N     N_R   0.649420 0.652540 0.604880 -0.060699
N26   N     N_R   0.343330 0.456550 0.499780 -0.115982
N27   N     N_R   0.533190 0.494370 0.644920 -0.120708
N28   N     N_R   0.459560 0.614720 0.459740 -0.146029
N29   N     N_2   0.469002 0.578554 0.006083 -0.040535
Ni1   Ni    Ni4+2 0.400980 0.400960 0.500020 0.236110
Ni2   Ni    Ni4+2 0.599020 0.599040 0.499980 0.224629
Ni3   Ni    Ni4+2 0.407290 0.503390 0.408250 0.278667
Ni4   Ni    Ni4+2 0.592710 0.496610 0.591750 0.277666

loop_
_geom_bond_atom_site_label_1
_geom_bond_atom_site_label_2
_ccdc_geom_bond_type
C25   C31   S    
C72   N15   T    
C66   C68   A    
C25   F12   S    
C6    C45   A    
C18   C21   S    
C11   C13   S    
C41   C42   A    
C74   N17   T    
N6    Ni3   S    
C11   H28   S    
C33   H11   S    
C3    C6    A    
C16   N6    A    
C78   N24   A    
C39   C41   A    
C54   C60   A    
N27   Ni4   S    
C80   N22   T    
C40   N8    A    
C29   C36   T    
C26   C27   S    
N9    Ni1   S    
N2    N29   D    
C8    C29   S    
C63   N5    S    
C14   C21   T    
C53   C79   S    
C20   H32   S    
C1    N1    A    
C10   C15   S    
N12   Ni2   S    
C56   N12   A    
C49   C53   A    
C67   H12   S    
C40   H19   S    
C10   C17   S    
N4    N10   A    
C23   C40   A    
C28   N7    A    
C27   H8    S    
C81   N25   A    
C18   C19   S    
N23   N26   A    
C27   H7    S    
C61   C63   A    
C42   H16   S    
C63   C68   A    
N8    Ni2   S    
C11   C15   S    
C17   H27   S    
C15   C22   S    
C47   C48   A    
C76   N19   T    
C59   H20   S    
C54   C70   S    
C4    C12   A    
C52   N9    A    
C64   F6    S    
N24   Ni4   S    
C79   N21   T    
C48   C50   A    
C48   H13   S    
C28   C34   A    
C59   C60   A    
C2    N26   A    
C45   N13   A    
C68   F4    S    
N7    Ni4   S    
C69   C70   A    
C7    C56   A    
N1    Ni1   S    
C19   H2    S    
C44   C46   A    
C50   C51   A    
C7    C14   S    
C75   N18   T    
C15   C20   S    
N4    Ni2   S    
C67   N23   A    
N28   Ni3   S    
C47   C49   A    
C11   C73   S    
C1    H1    S    
C5    C7    A    
N13   N27   A    
C23   C50   S    
N6    N8    A    
C43   N29   S    
C58   C59   A    
C31   H4    S    
C17   H3    S    
C24   C34   S    
C30   C37   S    
C51   C53   A    
N25   Ni2   S    
C2    F8    S    
C43   C44   A    
C37   C38   T    
C35   H9    S    
C4    N4    A    
C20   F11   S    
C52   H25   S    
C16   H5    S    
C31   C32   S    
N1    N11   A    
C58   N3    S    
C3    N27   A    
C17   C18   S    
C69   N11   A    
C47   F3    S    
C56   F1    S    
C33   F2    S    
C77   N20   T    
C5    F10   S    
C69   F7    S    
N12   N28   A    
C57   H24   S    
C13   H30   S    
C13   C18   S    
N11   Ni3   S    
C26   C30   S    
C16   C23   A    
C26   F13   S    
C39   C46   A    
C60   H21   S    
C22   C24   T    
C10   C72   S    
C42   C43   A    
C71   N14   T    
C32   C36   S    
C64   N10   A    
C25   C30   S    
N7    N9    A    
C12   C64   A    
C54   C55   A    
C51   H15   S    
C62   C65   A    
C27   C32   S    
C2    C8    A    
C41   H17   S    
N3    N5    D    
C46   C77   S    
C62   H18   S    
C45   H26   S    
C5    N28   A    
C30   C35   S    
C49   N2    S    
C81   H23   S    
C34   C52   A    
C1    C70   A    
C28   F15   S    
C25   C76   S    
N23   Ni3   S    
C19   C20   S    
C55   C57   A    
C35   H10   S    
C32   C33   S    
C3    F9    S    
C10   C74   S    
C57   C58   A    
C55   F5    S    
C31   F14   S    
C19   C75   S    
C33   C35   S    
N10   Ni4   S    
C9    C78   A    
C12   C38   S    
C61   C62   A    
C9    C65   S    
C13   H31   S    
N13   Ni1   S    
N24   N25   A    
C8    C67   A    
C65   C66   A    
C66   H22   S    
N26   Ni1   S    
C6    C39   S    
C61   C80   S    
C4    H29   S    
C71   C78   S    
C26   H6    S    
C9    C81   A    
C73   N16   T    
C44   H14   S    
