data_mof_unit_64783.cif
_audit_creation_date              2013-03-05T16:05:19-0500
_audit_creation_method            fapswitch 2.2
_symmetry_space_group_name_H-M    P1
_symmetry_Int_Tables_number       1
_space_group_crystal_system       triclinic
_cell_length_a                    30.374862
_cell_length_b                    32.029563
_cell_length_c                    21.4817
_cell_angle_alpha                 90.025832
_cell_angle_beta                  134.954223
_cell_angle_gamma                 90.019066
_cell_volume                      14789.9073947

loop_
_atom_site_label
_atom_site_type_symbol
_atom_site_description
_atom_site_fract_x
_atom_site_fract_y
_atom_site_fract_z
_atom_type_partial_charge
O1    O     O_R   0.408400 0.500000 0.355400 -0.563873
O2    O     O_R   0.908400 1.000000 0.355400 -0.563820
O3    O     O_R   0.408460 0.500000 0.461460 -0.598915
O4    O     O_R   0.908460 1.000000 0.461460 -0.598913
C1    C     C_R   0.379919 0.499922 0.380086 0.837710
C2    C     C_R   0.879919 0.999920 0.380086 0.837652
O5    O     O_R   0.499970 0.560460 0.446970 -0.593455
O6    O     O_R   0.499970 0.439540 0.446970 -0.572397
O7    O     O_R   0.999970 0.060460 0.446970 -0.593459
O8    O     O_R   0.999970 0.939540 0.446970 -0.572205
O9    O     O_R   0.500030 0.560470 0.553030 -0.555220
O10   O     O_R   0.500030 0.439530 0.553030 -0.564495
O11   O     O_R   0.000030 0.060470 0.553030 -0.555164
O12   O     O_R   0.000030 0.939530 0.553030 -0.564670
C3    C     C_R   0.499825 0.580014 0.499834 0.830560
C4    C     C_R   0.500012 0.419990 0.499995 0.842884
C5    C     C_R   0.999824 0.080014 0.499833 0.830573
C6    C     C_R   0.000013 0.919990 0.499995 0.842828
Cu1   Cu    Cu3+1 0.499970 0.500000 0.437200 1.026061
Cu2   Cu    Cu3+1 0.999970 1.000000 0.437200 1.026303
Cu3   Cu    Cu3+1 0.500040 0.500000 0.562800 1.069745
Cu4   Cu    Cu3+1 0.000040 1.000000 0.562800 1.069764
O13   O     O_R   0.591550 0.500000 0.538540 -0.599766
O14   O     O_R   0.091550 1.000000 0.538540 -0.599733
O15   O     O_R   0.591610 0.500000 0.644600 -0.529107
O16   O     O_R   0.091610 0.000000 0.644600 -0.529104
C7    C     C_R   0.620047 0.499589 0.619893 0.915563
C8    C     C_R   0.120047 0.999587 0.619893 0.915645
C9    C     C_3   0.458989 0.763486 0.417711 0.338550
C10   C     C_3   0.442257 0.236508 0.437378 0.341288
C11   C     C_3   0.959213 0.263487 0.417712 0.338436
C12   C     C_3   0.942176 0.736509 0.438471 0.341413
C13   C     C_3   0.442969 0.735804 0.458169 0.028440
C14   C     C_3   0.466982 0.264176 0.515347 0.029701
C15   C     C_3   0.942889 0.235804 0.457779 0.028466
C16   C     C_3   0.967970 0.764177 0.516999 0.029553
C17   C     C_1   0.499861 0.624749 0.499923 -0.092068
C18   C     C_1   0.500224 0.375262 0.500164 -0.076453
C19   C     C_1   0.999859 0.124749 0.499921 -0.091963
C20   C     C_1   0.000226 0.875263 0.500165 -0.076443
C21   C     C_1   0.499881 0.875272 0.500132 -0.077088
C22   C     C_1   0.500068 0.124739 0.499907 -0.094030
C23   C     C_1   0.999882 0.375272 0.500130 -0.077166
C24   C     C_1   0.000068 0.624738 0.499908 -0.093946
C25   C     C_3   0.515663 0.735863 0.459105 0.023569
C26   C     C_3   0.475310 0.264169 0.421887 0.005980
C27   C     C_3   0.015968 0.235862 0.459492 0.023654
C28   C     C_3   0.974243 0.764170 0.421338 0.005478
C29   C     C_3   0.500120 0.708114 0.500502 -0.043829
C30   C     C_3   0.500692 0.291909 0.500568 -0.042059
C31   C     C_3   0.000117 0.208114 0.500498 -0.043825
C32   C     C_3   0.000696 0.791909 0.500566 -0.041951
C33   C     C_3   0.556755 0.764223 0.541901 0.022884
C34   C     C_3   0.533634 0.235840 0.484918 0.003405
C35   C     C_3   0.056834 0.264222 0.542284 0.022878
C36   C     C_3   0.032651 0.735839 0.483272 0.002894
C37   C     C_3   0.499619 0.791913 0.499579 -0.044452
C38   C     C_3   0.499914 0.208108 0.499694 -0.041190
C39   C     C_3   0.999621 0.291913 0.499577 -0.044462
C40   C     C_3   0.999915 0.708108 0.499702 -0.041169
C41   C     C_3   0.540752 0.736543 0.582373 0.334777
C42   C     C_3   0.558364 0.263523 0.562896 0.339375
C43   C     C_3   0.040527 0.236543 0.582366 0.334790
C44   C     C_3   0.058450 0.763523 0.561809 0.339942
C45   C     C_3   0.484071 0.764172 0.540986 0.023155
C46   C     C_3   0.525306 0.235850 0.578388 0.030220
C47   C     C_3   0.983766 0.264172 0.540592 0.023232
C48   C     C_3   0.026378 0.735850 0.578942 0.029981
C49   C     C_1   0.499985 0.662344 0.500191 0.078037
C50   C     C_1   0.500472 0.337672 0.500380 0.085155
C51   C     C_1   0.999982 0.162343 0.500187 0.078108
C52   C     C_1   0.000476 0.837673 0.500380 0.085246
C53   C     C_1   0.499750 0.837680 0.499881 0.086175
C54   C     C_1   0.500000 0.162335 0.499797 0.081506
C55   C     C_1   0.999752 0.337680 0.499878 0.086142
C56   C     C_1   1.000000 0.662335 0.499802 0.081483
C57   C     C_3   0.270336 0.491320 0.328423 0.103634
C58   C     C_3   0.271144 0.537850 0.254528 0.118268
C59   C     C_3   0.770335 0.991255 0.328399 0.103576
C60   C     C_3   0.771145 0.037866 0.254619 0.118333
C61   C     C_3   0.229387 0.529101 0.269906 0.116531
C62   C     C_3   0.729387 0.029054 0.269975 0.116581
C63   C     C_3   0.188504 0.500205 0.188607 -0.122368
C64   C     C_3   0.688504 0.000203 0.188605 -0.122370
C65   C     C_3   0.229445 0.462364 0.247113 0.020790
C66   C     C_3   0.229875 0.509204 0.172696 0.066541
C67   C     C_3   0.729444 0.962342 0.247018 0.020672
C68   C     C_3   0.729876 0.009265 0.172716 0.066531
C69   C     C_3   0.270743 0.471649 0.231654 0.317605
C70   C     C_3   0.770742 0.971690 0.231582 0.317694
C71   C     C_3   0.311916 0.500079 0.312805 -0.182350
C72   C     C_3   0.811916 0.000075 0.312803 -0.182335
C73   C     C_3   0.729423 0.536450 0.747741 0.292942
C74   C     C_3   0.729879 0.470092 0.767254 0.292723
C75   C     C_3   0.229423 0.036464 0.747677 0.292981
C76   C     C_3   0.229880 0.970120 0.767306 0.293025
C77   C     C_3   0.770802 0.507297 0.828055 -0.051062
C78   C     C_3   0.270803 0.007341 0.828041 -0.051128
C79   C     C_3   0.811793 0.499925 0.811045 -0.119187
C80   C     C_3   0.311793 0.999925 0.811042 -0.119222
C81   C     C_3   0.770628 0.529658 0.731227 0.065060
C82   C     C_3   0.770940 0.462414 0.750801 0.048331
C83   C     C_3   0.270627 0.029628 0.731173 0.065181
C84   C     C_3   0.270941 0.962399 0.750864 0.048029
C85   C     C_3   0.729472 0.492201 0.670809 0.094719
C86   C     C_3   0.229472 0.992156 0.670820 0.094624
C87   C     C_3   0.687966 0.499411 0.687260 -0.266970
C88   C     C_3   0.187966 0.999410 0.687260 -0.266948
O17   O     O_R   0.447050 0.000000 0.355340 -0.570019
O18   O     O_R   0.947050 0.500000 0.355340 -0.570151
O19   O     O_R   0.553050 1.000000 0.461450 -0.549424
O20   O     O_R   0.053050 0.500000 0.461450 -0.549498
C89   C     C_R   0.500072 0.000203 0.379989 0.941745
C90   C     C_R   0.000072 0.500203 0.379990 0.941781
O21   O     O_R   0.447010 0.939550 0.446880 -0.568387
O22   O     O_R   0.447010 0.060450 0.446880 -0.568962
O23   O     O_R   0.947010 0.439550 0.446880 -0.568520
O24   O     O_R   0.947010 0.560450 0.446880 -0.568900
O25   O     O_R   0.553010 0.939540 0.552990 -0.571032
O26   O     O_R   0.553010 0.060460 0.552990 -0.571130
O27   O     O_R   0.053010 0.439540 0.552990 -0.570955
O28   O     O_R   0.053010 0.560460 0.552990 -0.571152
C91   C     C_R   0.499976 0.920006 0.500201 0.842381
C92   C     C_R   0.500033 0.079999 0.499929 0.806461
C93   C     C_R   0.999976 0.420006 0.500199 0.842388
C94   C     C_R   0.000033 0.579999 0.499929 0.806554
Cu5   Cu    Cu3+1 0.437240 0.000000 0.437100 1.047502
Cu6   Cu    Cu3+1 0.937240 0.500000 0.437100 1.047396
Cu7   Cu    Cu3+1 0.562770 0.000000 0.562750 1.055909
Cu8   Cu    Cu3+1 0.062770 0.500000 0.562750 1.055758
O29   O     O_R   0.446960 0.000000 0.538400 -0.593283
O30   O     O_R   0.946960 0.500000 0.538400 -0.593201
O31   O     O_R   0.552960 0.000000 0.644510 -0.588015
O32   O     O_R   0.052960 0.500000 0.644510 -0.588052
C95   C     C_R   0.500028 0.000380 0.620035 0.802910
C96   C     C_R   0.000028 0.500381 0.620035 0.803014
O33   O     O_R   0.000050 0.534990 0.091550 -0.553113
O34   O     O_R   0.000050 0.465010 0.091550 -0.546248
O35   O     O_R   0.500050 0.034990 0.091550 -0.553105
O36   O     O_R   0.500050 0.965010 0.091550 -0.546289
C97   C     C_R   0.998637 0.499938 0.118902 0.881744
C98   C     C_R   0.498651 0.999938 0.118917 0.881719
O37   O     O_R   0.091570 0.534990 0.091500 -0.595757
O38   O     O_R   0.091570 0.465010 0.091500 -0.571274
O39   O     O_R   0.591570 0.034990 0.091500 -0.595744
O40   O     O_R   0.591570 0.965010 0.091500 -0.571321
C99   C     C_R   0.120414 0.500040 0.120419 0.833757
C100  C     C_R   0.620414 0.000040 0.120417 0.833843
Cu9   Cu    Cu3+1 1.000000 0.541440 0.999930 1.023853
Cu10  Cu    Cu3+1 0.000000 0.458560 0.999930 1.071845
Cu11  Cu    Cu3+1 0.500000 0.041440 0.999930 1.023842
Cu12  Cu    Cu3+1 0.500000 0.958560 0.999930 1.071670
O41   O     O_R   0.999950 0.535010 0.908310 -0.602268
O42   O     O_R   0.999950 0.464990 0.908310 -0.549936
O43   O     O_R   0.499950 0.035010 0.908310 -0.602275
O44   O     O_R   0.499950 0.964990 0.908310 -0.549979
O45   O     O_R   0.908430 0.535000 0.908360 -0.578906
O46   O     O_R   0.908430 0.465000 0.908360 -0.574878
O47   O     O_R   0.408430 0.035000 0.908360 -0.578916
O48   O     O_R   0.408430 0.965000 0.908360 -0.574909
C101  C     C_R   0.000897 0.499955 0.880408 0.838774
C102  C     C_R   0.500892 0.999955 0.880402 0.838838
C103  C     C_R   0.879684 0.499982 0.879174 0.846555
C104  C     C_R   0.379685 0.999982 0.879172 0.846591
C105  C     C_3   0.544254 0.024825 0.314204 0.279288
C106  C     C_3   0.509247 0.961317 0.280044 0.297641
C107  C     C_3   0.044162 0.524887 0.314106 0.279321
C108  C     C_3   0.009354 0.461331 0.280149 0.297505
C109  C     C_3   0.054286 0.485981 0.282892 -0.047635
C110  C     C_3   0.554261 0.985904 0.282876 -0.047722
C111  C     C_3   0.998138 0.499506 0.186366 -0.268553
C112  C     C_3   0.498159 0.999507 0.186387 -0.268680
C113  C     C_3   0.988567 0.538095 0.218585 0.245146
C114  C     C_3   0.953981 0.474625 0.184760 0.252219
C115  C     C_3   0.488701 0.038109 0.218715 0.245048
C116  C     C_3   0.453921 0.974686 0.184695 0.252231
C117  C     C_3   0.443044 0.013584 0.215215 -0.340529
C118  C     C_3   0.942993 0.513506 0.215175 -0.340741
C119  C     C_3   0.499794 0.999944 0.311885 -0.293877
C120  C     C_3   0.999792 0.499943 0.311885 -0.293915
H1    H     H_    0.397505 0.025012 0.187122 0.224082
H2    H     H_    0.897423 0.524873 0.187056 0.223994
C121  C     C_3   0.491156 0.961248 0.719467 0.099810
C122  C     C_3   0.556234 0.013888 0.784825 0.062446
C123  C     C_3   0.991084 0.461258 0.719394 0.099761
C124  C     C_3   0.056267 0.513839 0.784855 0.062523
C125  C     C_3   0.046031 0.474989 0.815188 0.291769
C126  C     C_3   0.546073 0.975030 0.815234 0.291804
C127  C     C_3   0.001644 0.499747 0.813011 -0.157995
C128  C     C_3   0.501636 0.999748 0.813002 -0.157984
C129  C     C_3   0.946372 0.486232 0.716722 0.145270
C130  C     C_3   0.011083 0.538740 0.781338 0.109267
C131  C     C_3   0.446392 0.986183 0.716740 0.145216
C132  C     C_3   0.510999 0.038749 0.781254 0.109275
C133  C     C_3   0.455075 0.025563 0.684285 -0.202207
C134  C     C_3   0.955131 0.525605 0.684343 -0.202100
C135  C     C_3   0.500641 0.000397 0.688656 -0.099417
C136  C     C_3   0.000645 0.500398 0.688659 -0.099477
H3    H     H_    0.417481 0.046380 0.629706 0.165230
H4    H     H_    0.917577 0.546456 0.629807 0.165364
C137  C     C_3   0.378340 0.719923 0.410097 -0.744531
H5    H     H_    0.346538 0.746779 0.385387 0.249727
H6    H     H_    0.360364 0.700019 0.353844 0.248261
H7    H     H_    0.380654 0.701241 0.455834 0.230398
C138  C     C_3   0.428777 0.279935 0.531923 -0.729597
H8    H     H_    0.409350 0.253017 0.538592 0.242749
H9    H     H_    0.458840 0.298654 0.593369 0.234892
H10   H     H_    0.390133 0.299758 0.476085 0.254287
C139  C     C_3   0.878172 0.219923 0.409269 -0.744653
H11   H     H_    0.846332 0.246780 0.384351 0.249736
H12   H     H_    0.860401 0.200020 0.353126 0.248328
H13   H     H_    0.880251 0.201241 0.454784 0.230316
C140  C     C_3   0.930880 0.779933 0.535450 -0.729501
H14   H     H_    0.911988 0.753013 0.543038 0.242690
H15   H     H_    0.961571 0.798653 0.596909 0.235203
H16   H     H_    0.891896 0.799756 0.480058 0.254036
N1    N     N_R   0.294700 0.439725 0.213554 0.150665
O49   O     O_R   0.281185 0.440635 0.141081 -0.288746
O50   O     O_R   0.329881 0.410050 0.270245 -0.362635
N2    N     N_R   0.794696 0.939810 0.213401 0.150663
O51   O     O_R   0.781179 0.940785 0.140928 -0.288803
O52   O     O_R   0.829874 0.910110 0.270016 -0.362882
C141  C     C_3   0.793334 0.516813 0.916130 -0.630332
H17   H     H_    0.752791 0.521957 0.906651 0.253177
H18   H     H_    0.820939 0.490272 0.961455 0.263631
H19   H     H_    0.822818 0.545248 0.945069 0.263734
C142  C     C_3   0.293337 0.016912 0.916100 -0.630122
H20   H     H_    0.252795 0.022084 0.906614 0.253220
H21   H     H_    0.320939 0.990385 0.961470 0.263612
H22   H     H_    0.322827 0.045344 0.944993 0.263625
N3    N     N_R   0.708336 0.577409 0.747572 0.146595
O53   O     O_R   0.748874 0.605733 0.803514 -0.294183
O54   O     O_R   0.649358 0.586188 0.691042 -0.339864
N4    N     N_R   0.710031 0.436736 0.789202 0.153052
O55   O     O_R   0.751340 0.416290 0.862450 -0.259479
O56   O     O_R   0.652284 0.424689 0.732900 -0.325341
N5    N     N_R   0.208334 0.077438 0.747438 0.146553
O57   O     O_R   0.248872 0.105775 0.803326 -0.294403
O58   O     O_R   0.149355 0.086214 0.690907 -0.340072
N6    N     N_R   0.210036 0.936795 0.789312 0.152963
O59   O     O_R   0.251346 0.916385 0.862611 -0.259825
O60   O     O_R   0.152300 0.924723 0.733003 -0.325841
C143  C     C_3   0.792951 0.564362 0.710582 -0.743002
H23   H     H_    0.752267 0.579969 0.648325 0.239693
H24   H     H_    0.819979 0.587661 0.764625 0.266769
H25   H     H_    0.822945 0.551199 0.703509 0.207488
C144  C     C_3   0.792849 0.419677 0.750761 -0.675194
H26   H     H_    0.751944 0.399964 0.698415 0.246579
H27   H     H_    0.822308 0.423238 0.738127 0.209726
H28   H     H_    0.820128 0.404298 0.815355 0.275286
C145  C     C_3   0.292953 0.064299 0.710473 -0.743323
H29   H     H_    0.252270 0.079891 0.648192 0.239670
H30   H     H_    0.319984 0.087617 0.764481 0.266743
H31   H     H_    0.322946 0.051108 0.703421 0.207480
C146  C     C_3   0.292849 0.919645 0.750890 -0.674482
H32   H     H_    0.251943 0.899923 0.698579 0.247067
H33   H     H_    0.322305 0.923175 0.738245 0.209705
H34   H     H_    0.320130 0.904294 0.815510 0.275197
C147  C     C_3   0.707864 0.483441 0.582977 -0.756962
H35   H     H_    0.748821 0.478480 0.593398 0.225409
H36   H     H_    0.678401 0.454978 0.552867 0.241828
H37   H     H_    0.680734 0.510381 0.538140 0.244337
C148  C     C_3   0.207861 0.983344 0.583002 -0.756728
H38   H     H_    0.248818 0.978357 0.593431 0.225387
H39   H     H_    0.178394 0.954883 0.552939 0.242009
H40   H     H_    0.180736 0.010272 0.538121 0.244281
C149  C     C_3   0.115571 0.468878 0.319609 -0.705679
H41   H     H_    0.147167 0.461896 0.390653 0.259323
H42   H     H_    0.106908 0.439840 0.284138 0.243568
H43   H     H_    0.137576 0.492126 0.310553 0.213083
C150  C     C_3   0.615496 0.968717 0.319547 -0.705419
H44   H     H_    0.647042 0.961649 0.390546 0.259433
H45   H     H_    0.606739 0.939716 0.283924 0.243612
H46   H     H_    0.637607 0.991954 0.310654 0.212965
N7    N     N_R   0.592416 0.052961 0.385338 0.172944
O61   O     O_R   0.650051 0.048032 0.426129 -0.337525
O62   O     O_R   0.577882 0.083019 0.408841 -0.323130
N8    N     N_R   0.519574 0.918595 0.311348 0.164347
O63   O     O_R   0.525078 0.888714 0.276233 -0.285188
O64   O     O_R   0.522896 0.909984 0.373694 -0.356666
N9    N     N_R   0.092242 0.553103 0.385105 0.173022
O65   O     O_R   0.149809 0.548429 0.425445 -0.337418
O66   O     O_R   0.077676 0.583063 0.408737 -0.323391
N10   N     N_R   0.019812 0.418623 0.311578 0.164383
O67   O     O_R   0.025395 0.388750 0.276539 -0.285182
O68   O     O_R   0.023164 0.410013 0.373952 -0.356508
N11   N     N_R   0.976159 0.580100 0.183261 0.167273
O69   O     O_R   0.016663 0.609814 0.231524 -0.283108
O70   O     O_R   0.924397 0.587910 0.102498 -0.327168
N12   N     N_R   0.904895 0.445698 0.117330 0.154333
O71   O     O_R   0.868069 0.430292 0.122712 -0.258445
O72   O     O_R   0.901475 0.431869 0.057125 -0.306097
N13   N     N_R   0.476415 0.080129 0.183505 0.167388
O73   O     O_R   0.517038 0.109778 0.231814 -0.283164
O74   O     O_R   0.424658 0.088011 0.102780 -0.326868
N14   N     N_R   0.404759 0.945823 0.117175 0.154182
O75   O     O_R   0.367828 0.930505 0.122433 -0.258638
O76   O     O_R   0.401407 0.931923 0.057072 -0.306066
N15   N     N_R   0.095538 0.446531 0.883557 0.123866
O77   O     O_R   0.131259 0.429858 0.877203 -0.311690
O78   O     O_R   0.101071 0.434854 0.946749 -0.338852
N16   N     N_R   0.595633 0.946616 0.883665 0.123830
O79   O     O_R   0.631394 0.929974 0.877360 -0.311718
O80   O     O_R   0.601175 0.934943 0.946868 -0.339017
N17   N     N_R   0.413691 0.777323 0.326379 0.149563
O81   O     O_R   0.382211 0.749927 0.263208 -0.324455
O82   O     O_R   0.404653 0.816895 0.307416 -0.284618
N18   N     N_R   0.377840 0.222679 0.367733 0.143735
O83   O     O_R   0.333395 0.250079 0.319702 -0.314724
O84   O     O_R   0.364355 0.183108 0.353108 -0.326749
N19   N     N_R   0.914164 0.277324 0.326386 0.149600
O85   O     O_R   0.882854 0.249928 0.263216 -0.324184
O86   O     O_R   0.905183 0.316896 0.307428 -0.284336
N20   N     N_R   0.877666 0.722681 0.370033 0.143611
O87   O     O_R   0.833160 0.750084 0.322833 -0.315632
O88   O     O_R   0.864158 0.683111 0.355661 -0.327241
C151  C     C_3   0.480057 0.917299 0.683764 -0.777122
H47   H     H_    0.475846 0.895226 0.719132 0.255697
H48   H     H_    0.436530 0.916619 0.612518 0.223463
H49   H     H_    0.519584 0.907738 0.693240 0.242505
C152  C     C_3   0.619259 0.029962 0.825949 -0.728276
H50   H     H_    0.648328 0.038014 0.895962 0.227398
H51   H     H_    0.643253 0.005563 0.822250 0.268875
H52   H     H_    0.612721 0.058235 0.790312 0.225505
C153  C     C_3   0.979896 0.417319 0.683602 -0.777066
H53   H     H_    0.975646 0.395249 0.718931 0.255683
H54   H     H_    0.936365 0.416678 0.612356 0.223465
H55   H     H_    0.019402 0.407723 0.693052 0.242502
C154  C     C_3   0.119322 0.529858 0.826010 -0.728388
H56   H     H_    0.148409 0.537883 0.896040 0.227373
H57   H     H_    0.143268 0.505439 0.822261 0.268874
H58   H     H_    0.112840 0.558138 0.790432 0.225494
C155  C     C_3   0.884344 0.470116 0.678813 -0.847365
H59   H     H_    0.852552 0.464104 0.607352 0.246042
H60   H     H_    0.891709 0.440694 0.712381 0.242056
H61   H     H_    0.863270 0.493622 0.689107 0.215609
C156  C     C_3   0.022463 0.583314 0.814532 -0.777877
H62   H     H_    0.028771 0.603971 0.779852 0.226744
H63   H     H_    0.981979 0.594401 0.801527 0.243640
H64   H     H_    0.065007 0.584480 0.886266 0.235442
C157  C     C_3   0.384394 0.970012 0.678860 -0.847209
H65   H     H_    0.352618 0.963966 0.607413 0.246053
H66   H     H_    0.391816 0.940600 0.712495 0.242136
H67   H     H_    0.363267 0.993502 0.689093 0.215553
C158  C     C_3   0.522288 0.083334 0.814352 -0.777930
H68   H     H_    0.528546 0.103997 0.779620 0.226739
H69   H     H_    0.481783 0.094383 0.801332 0.243573
H70   H     H_    0.564833 0.084543 0.886081 0.235535
C159  C     C_3   0.466633 0.780009 0.587995 -0.731934
H71   H     H_    0.459116 0.753133 0.612188 0.251827
H72   H     H_    0.504624 0.799922 0.644511 0.254817
H73   H     H_    0.423269 0.798676 0.541733 0.226295
C160  C     C_3   0.554056 0.220089 0.667354 -0.733140
H74   H     H_    0.568928 0.247006 0.711163 0.256227
H75   H     H_    0.519284 0.201345 0.658656 0.219915
H76   H     H_    0.595018 0.200288 0.697581 0.253425
C161  C     C_3   0.965982 0.280008 0.587161 -0.732135
H77   H     H_    0.958296 0.253131 0.611143 0.251777
H78   H     H_    0.003873 0.299921 0.643781 0.254804
H79   H     H_    0.922635 0.298675 0.540682 0.226307
C162  C     C_3   0.056340 0.720090 0.668526 -0.732349
H80   H     H_    0.071795 0.747008 0.712610 0.256378
H81   H     H_    0.022102 0.701346 0.661060 0.219811
H82   H     H_    0.097080 0.700290 0.697705 0.253552
N21   N     N_R   0.586153 0.722710 0.673709 0.147563
O89   O     O_R   0.617396 0.750109 0.736872 -0.310305
O90   O     O_R   0.595924 0.683140 0.692692 -0.278393
N22   N     N_R   0.622757 0.277424 0.632513 0.144411
O91   O     O_R   0.667263 0.250069 0.680604 -0.321655
O92   O     O_R   0.636162 0.317011 0.647049 -0.315049
N23   N     N_R   0.085680 0.222709 0.673698 0.147612
O93   O     O_R   0.116751 0.250108 0.736856 -0.310130
O94   O     O_R   0.095404 0.183139 0.692682 -0.278572
N24   N     N_R   0.122935 0.777422 0.630222 0.144421
O95   O     O_R   0.167504 0.750066 0.677472 -0.321882
O96   O     O_R   0.136360 0.817009 0.644534 -0.316478
C163  C     C_3   0.621397 0.780022 0.589916 -0.698528
H83   H     H_    0.653093 0.753123 0.614395 0.247463
H84   H     H_    0.619063 0.798757 0.544210 0.240226
H85   H     H_    0.639498 0.799837 0.646329 0.254671
C164  C     C_3   0.571775 0.220044 0.468250 -0.670968
H86   H     H_    0.591153 0.246944 0.461456 0.237638
H87   H     H_    0.610451 0.200245 0.524103 0.259107
H88   H     H_    0.541689 0.201283 0.406852 0.250317
C165  C     C_3   0.121566 0.280021 0.590739 -0.698535
H89   H     H_    0.153300 0.253121 0.615427 0.247563
H90   H     H_    0.119467 0.298756 0.545255 0.240085
H91   H     H_    0.139461 0.299835 0.647043 0.254710
C166  C     C_3   0.069678 0.720043 0.464732 -0.669920
H92   H     H_    0.088525 0.746945 0.457025 0.237687
H93   H     H_    0.108691 0.700242 0.520137 0.259383
H94   H     H_    0.038964 0.701283 0.403322 0.250171
C167  C     C_3   0.533148 0.720146 0.412105 -0.706394
H95   H     H_    0.540730 0.747085 0.388108 0.257889
H96   H     H_    0.576490 0.701455 0.458319 0.229099
H97   H     H_    0.495133 0.700310 0.355448 0.250877
C168  C     C_3   0.446512 0.279928 0.332899 -0.672139
H98   H     H_    0.431564 0.253011 0.289054 0.252936
H99   H     H_    0.405594 0.299765 0.302753 0.267707
H100  H     H_    0.481287 0.298633 0.341551 0.227189
C169  C     C_3   0.033799 0.220145 0.412935 -0.706506
H101  H     H_    0.041552 0.247085 0.389150 0.257800
H102  H     H_    0.077124 0.201454 0.459365 0.229134
H103  H     H_    0.995885 0.200310 0.356173 0.250926
C170  C     C_3   0.944232 0.779930 0.331734 -0.671298
H104  H     H_    0.928698 0.753013 0.287612 0.252746
H105  H     H_    0.903539 0.799768 0.302640 0.267726
H106  H     H_    0.978473 0.798633 0.339153 0.227505
C171  C     C_3   0.206465 0.562821 0.291388 -0.737936
H107  H     H_    0.180958 0.587105 0.239398 0.244667
H108  H     H_    0.174908 0.549090 0.295037 0.236200
H109  H     H_    0.246764 0.577427 0.355516 0.239567
C172  C     C_3   0.706457 0.062724 0.291530 -0.738053
H110  H     H_    0.674896 0.048953 0.295137 0.236072
H111  H     H_    0.746753 0.077305 0.355696 0.239602
H112  H     H_    0.680952 0.087037 0.239599 0.244685
C173  C     C_3   0.291851 0.481128 0.415704 -0.745740
H113  H     H_    0.250862 0.475264 0.404857 0.230650
H114  H     H_    0.321539 0.452807 0.444599 0.237933
H115  H     H_    0.318732 0.507765 0.461780 0.247574
C174  C     C_3   0.295964 0.580523 0.260379 -0.817248
H116  H     H_    0.256512 0.601865 0.211259 0.247809
H117  H     H_    0.324699 0.593653 0.327314 0.222264
H118  H     H_    0.324991 0.577420 0.246914 0.242343
C175  C     C_3   0.791852 0.980989 0.415656 -0.745646
H119  H     H_    0.750863 0.975086 0.404794 0.230653
H120  H     H_    0.821548 0.952674 0.444487 0.237925
H121  H     H_    0.818725 0.007607 0.461792 0.247596
C176  C     C_3   0.795967 0.080559 0.260577 -0.817435
H122  H     H_    0.756515 0.101913 0.211508 0.247816
H123  H     H_    0.824700 0.093647 0.327544 0.222304
H124  H     H_    0.824996 0.077503 0.247108 0.242330
C177  C     C_3   0.207404 0.419068 0.244335 -0.679914
H125  H     H_    0.248156 0.399305 0.296640 0.245067
H126  H     H_    0.176875 0.421561 0.255318 0.217032
H127  H     H_    0.181254 0.404412 0.179382 0.268814
C178  C     C_3   0.206473 0.520800 0.084757 -0.746605
H128  H     H_    0.246566 0.526918 0.093583 0.253341
H129  H     H_    0.178344 0.494945 0.037377 0.279529
H130  H     H_    0.177222 0.549266 0.058468 0.210800
C179  C     C_3   0.707404 0.919026 0.244139 -0.679635
H131  H     H_    0.748157 0.899249 0.296391 0.245210
H132  H     H_    0.676882 0.921474 0.255140 0.217058
H133  H     H_    0.681248 0.904413 0.179148 0.268780
C180  C     C_3   0.706475 0.020934 0.084807 -0.746497
H134  H     H_    0.746570 0.027080 0.093649 0.253352
H135  H     H_    0.678337 0.995104 0.037356 0.279455
H136  H     H_    0.677233 0.049401 0.058597 0.210872

loop_
_geom_bond_atom_site_label_1
_geom_bond_atom_site_label_2
_geom_bond_distance
_ccdc_geom_bond_type
C146  H33   1.109281 S    
C131  C157  1.519993 S    
C161  H77   1.109603 S    
C35   C39   1.548288 S    
C154  H57   1.109238 S    
C175  H119  1.108862 S    
C22   C92   1.432994 S    
O42   C101  1.280324 A    
C141  H17   1.109520 S    
O39   C100  1.280170 A    
C59   C67   1.544643 S    
C156  H62   1.109758 S    
C141  H19   1.109146 S    
C115  C117  1.548515 S    
C155  H59   1.109505 S    
C111  C113  1.541082 S    
C121  C135  1.537322 S    
N10   O67   1.300231 A    
C17   C49   1.204132 T    
C168  H99   1.109666 S    
O35   C98   1.282088 A    
C144  H28   1.109416 S    
C150  H44   1.109471 S    
C9    C13   1.541533 S    
C80   C84   1.544830 S    
C5    C19   1.432858 S    
C11   C39   1.541366 S    
Cu9   O41   1.977738 S    
C129  C134  1.551441 S    
C163  H85   1.109590 S    
C123  C153  1.522093 S    
O9    C3    1.299355 A    
O17   Cu5   1.978151 S    
Cu12  O44   1.977923 S    
C124  C154  1.522964 S    
O8    Cu2   1.947944 S    
C106  C116  1.529751 S    
O37   Cu9   1.979338 S    
N11   O70   1.300249 A    
Cu11  O43   1.977738 S    
O22   C92   1.299916 A    
O36   Cu12  1.977809 S    
C96   C136  1.460991 S    
C112  C115  1.541090 S    
C73   N3    1.458985 S    
C138  H9    1.109638 S    
C107  C120  1.537984 S    
C76   C88   1.538331 S    
O6    C4    1.299297 A    
C29   C49   1.466025 S    
C137  H7    1.109649 S    
Cu8   O32   1.978149 S    
N4    O56   1.299882 A    
N22   O92   1.300250 A    
N22   O91   1.300213 A    
C160  H75   1.109700 S    
C140  H15   1.109642 S    
O43   C102  1.282403 A    
C23   C55   1.204064 T    
C162  H82   1.109615 S    
O21   C91   1.299796 A    
C148  H38   1.108912 S    
C65   C177  1.522413 S    
C73   C81   1.538564 S    
C42   C46   1.541582 S    
C74   N4    1.459047 S    
C179  H133  1.109593 S    
C74   C77   1.540948 S    
N20   O87   1.300242 A    
C108  C120  1.535562 S    
C40   C56   1.466086 S    
C77   C141  1.520043 S    
O41   C101  1.282416 A    
C131  C133  1.551441 S    
C60   C72   1.541464 S    
C151  H49   1.109798 S    
Cu1   O13   1.979885 S    
C27   C169  1.520605 S    
C32   C52   1.465797 S    
C178  H130  1.109796 S    
C70   C72   1.532736 S    
C142  H20   1.109519 S    
C113  N11   1.457785 S    
C12   N20   1.457800 S    
C177  H127  1.109592 S    
C41   N21   1.457892 S    
O19   C89   1.293286 A    
C105  N7    1.458189 S    
C158  H70   1.109909 S    
C118  H2    1.110147 S    
Cu7   O31   1.978149 S    
C101  C127  1.463930 S    
C108  C109  1.541148 S    
C79   C81   1.543709 S    
C132  C158  1.522067 S    
O5    Cu1   1.947753 S    
C76   C84   1.537553 S    
C15   C31   1.548554 S    
C164  H86   1.109623 S    
C175  H121  1.109511 S    
O48   C104  1.280071 A    
C102  C128  1.463929 S    
C156  H64   1.109910 S    
C155  H61   1.107119 S    
C148  H39   1.109651 S    
C57   C71   1.544349 S    
C64   C68   1.544642 S    
C147  H36   1.109651 S    
O34   C97   1.278161 A    
C95   C135  1.460995 S    
C16   C48   1.551627 S    
O25   C91   1.299905 A    
C167  H95   1.109659 S    
C83   C145  1.522134 S    
C30   C50   1.465797 S    
C60   C68   1.545102 S    
C121  C126  1.535935 S    
C8    C88   1.460006 S    
C2    C72   1.461828 S    
C106  N8    1.458095 S    
C180  H134  1.109491 S    
O23   Cu6   1.947739 S    
Cu5   O29   1.978557 S    
C75   C88   1.538460 S    
C41   C45   1.541577 S    
C28   C32   1.548344 S    
C63   C66   1.544640 S    
C159  H73   1.109665 S    
C74   C82   1.537551 S    
C152  H50   1.109551 S    
O31   C95   1.291164 A    
C19   C51   1.204132 T    
C124  C125  1.535052 S    
N21   O89   1.300223 A    
N20   O88   1.300127 A    
N23   O93   1.300223 A    
O18   Cu6   1.978151 S    
C165  H90   1.109682 S    
C159  H71   1.109604 S    
C153  H55   1.109796 S    
O27   Cu8   1.947650 S    
C14   C46   1.551641 S    
C25   C167  1.520610 S    
C169  H101  1.109660 S    
Cu9   Cu10  2.654613 S    
C107  C109  1.545284 S    
C176  H122  1.109569 S    
C108  C114  1.529773 S    
C85   C87   1.548384 S    
C12   C16   1.541241 S    
Cu1   Cu3   2.696600 S    
O8    C6    1.299293 A    
C149  H43   1.105699 S    
C123  C125  1.535938 S    
C97   C111  1.460051 S    
C126  C128  1.536341 S    
C75   N5    1.458985 S    
C37   C53   1.465910 S    
C153  H54   1.109711 S    
N24   O95   1.300207 A    
C3    C17   1.432861 S    
C10   N18   1.457822 S    
C39   C47   1.548478 S    
C33   C41   1.541350 S    
N17   O82   1.300183 A    
C76   C78   1.540957 S    
C166  H94   1.109728 S    
C36   C44   1.541635 S    
C69   C71   1.532730 S    
O18   C90   1.291960 A    
C70   N2    1.458170 S    
C16   C32   1.548298 S    
C147  H35   1.108908 S    
C143  H25   1.107559 S    
C57   C65   1.544644 S    
N5    O57   1.300253 A    
C137  H6    1.109723 S    
C68   C180  1.521563 S    
O38   C99   1.281416 A    
C125  N15   1.459598 S    
N2    O51   1.300042 A    
C173  H114  1.109665 S    
N18   O84   1.300125 A    
C36   C166  1.520745 S    
C155  H60   1.109465 S    
C133  H3    1.110188 S    
C157  H66   1.109471 S    
C14   C138  1.520664 S    
C167  H97   1.109592 S    
N16   O80   1.299620 A    
C74   C87   1.538329 S    
O6    Cu1   1.947944 S    
C10   C14   1.541250 S    
O26   Cu7   1.948031 S    
O10   C4    1.299290 A    
C42   N22   1.458019 S    
C60   C62   1.545434 S    
C77   C79   1.543529 S    
C170  H106  1.109640 S    
C178  H129  1.105291 S    
C145  H31   1.107557 S    
C11   N19   1.457880 S    
N1    O49   1.300038 A    
O9    Cu3   1.948237 S    
Cu11  O47   1.978929 S    
C180  H136  1.109795 S    
Cu5   Cu7   2.698328 S    
O27   C93   1.299903 A    
N13   O73   1.300064 A    
O4    Cu4   1.979887 S    
C15   C47   1.551932 S    
O30   C96   1.295881 A    
C152  H52   1.109695 S    
C139  H11   1.109608 S    
C163  H83   1.109641 S    
C171  H109  1.109585 S    
C1    C71   1.461826 S    
O46   C103  1.280075 A    
C107  N9    1.458116 S    
C79   C103  1.459381 S    
C142  H21   1.105108 S    
C106  C110  1.541135 S    
C174  H118  1.109659 S    
N19   O86   1.300184 A    
C129  C155  1.519977 S    
C105  C119  1.538005 S    
O40   Cu12  1.978960 S    
N14   O76   1.299710 A    
C73   C77   1.538264 S    
C169  H103  1.109594 S    
C38   C54   1.466086 S    
C164  H87   1.109601 S    
C78   C142  1.520049 S    
C109  C111  1.549193 S    
C176  H124  1.109659 S    
Cu3   O15   1.979294 S    
C20   C52   1.204008 T    
C10   C26   1.541266 S    
C82   C144  1.522518 S    
O14   C8    1.290734 A    
C35   C165  1.520623 S    
C61   C63   1.543340 S    
C59   C62   1.544183 S    
C149  H41   1.109474 S    
C141  H18   1.105125 S    
N9    O66   1.300578 A    
O11   C5    1.299357 A    
O12   Cu4   1.948052 S    
N10   O68   1.299742 A    
C171  H107  1.109518 S    
C168  H98   1.109637 S    
C86   C88   1.548385 S    
C113  C118  1.548505 S    
C117  H1    1.110157 S    
O5    C3    1.299347 A    
N6    O59   1.300279 A    
O25   Cu7   1.947650 S    
C121  C151  1.522091 S    
C163  H84   1.109682 S    
C21   C53   1.204061 T    
C172  H111  1.109584 S    
C110  C150  1.521114 S    
C62   C172  1.522590 S    
N8    O63   1.300235 A    
C33   C163  1.520625 S    
O20   Cu8   1.978559 S    
O23   C93   1.299798 A    
C178  H128  1.109491 S    
C112  C116  1.539200 S    
C133  C135  1.546400 S    
C150  H46   1.105703 S    
C18   C50   1.204011 T    
C172  H110  1.106492 S    
C76   N6    1.459042 S    
N7    O61   1.300035 A    
C84   C86   1.547057 S    
C160  H74   1.109626 S    
C145  H29   1.109597 S    
C140  H14   1.109642 S    
C162  H81   1.109703 S    
C174  H116  1.109570 S    
C84   C146  1.522523 S    
C31   C51   1.466022 S    
O1    C1    1.295356 A    
C130  C134  1.549716 S    
C27   C35   1.551516 S    
O36   C98   1.278157 A    
C130  C156  1.522065 S    
C179  H132  1.109568 S    
C13   C29   1.548558 S    
C143  H23   1.109598 S    
C139  H13   1.109652 S    
C82   C85   1.547054 S    
C28   C36   1.551704 S    
N12   O71   1.300201 A    
C137  H5    1.109604 S    
C151  H48   1.109712 S    
C58   C174  1.522346 S    
C128  C131  1.541437 S    
O19   Cu7   1.978559 S    
C177  H126  1.109555 S    
O22   Cu5   1.947351 S    
Cu11  Cu12  2.654613 S    
C158  H69   1.109632 S    
C114  C118  1.548177 S    
C107  C113  1.531637 S    
C64   C100  1.463621 S    
C132  C133  1.549715 S    
C146  H34   1.109416 S    
C161  H78   1.109715 S    
C11   C27   1.541309 S    
C175  H120  1.109662 S    
C23   C93   1.432798 S    
O20   C90   1.293279 A    
C156  H63   1.109631 S    
C123  C129  1.542155 S    
O40   C100  1.281409 A    
C144  H27   1.109265 S    
C111  C114  1.539219 S    
O1    Cu1   1.979292 S    
C109  C149  1.521116 S    
O2    Cu2   1.979292 S    
C29   C41   1.541451 S    
C134  C136  1.546396 S    
C32   C44   1.541353 S    
C168  H100  1.109635 S    
C65   C69   1.536476 S    
C27   C31   1.548328 S    
C34   C42   1.541637 S    
C157  H65   1.109504 S    
C80   C83   1.543708 S    
C36   C40   1.548499 S    
C157  H67   1.107115 S    
N15   O77   1.300241 A    
C126  N16   1.459596 S    
O7    Cu2   1.947753 S    
N11   O69   1.300068 A    
C57   C61   1.544179 S    
C26   C34   1.551710 S    
C31   C43   1.541446 S    
N3    O54   1.299831 A    
C46   C160  1.520774 S    
O4    C2    1.290659 A    
C63   C65   1.545602 S    
C68   C70   1.540323 S    
C172  H112  1.109519 S    
C78   C80   1.543528 S    
C11   C15   1.541533 S    
C30   C42   1.541369 S    
N1    O50   1.300452 A    
N4    O55   1.300278 A    
C12   C40   1.541368 S    
C44   C48   1.541573 S    
C160  H76   1.109602 S    
C44   N24   1.457999 S    
C165  H89   1.109647 S    
C140  H16   1.109648 S    
C105  C110  1.545288 S    
O33   C97   1.282091 A    
C33   C37   1.548287 S    
Cu10  O46   1.979307 S    
O16   C8    1.294511 A    
C37   C45   1.548475 S    
O3    C1    1.290654 A    
C66   C69   1.540320 S    
Cu6   Cu8   2.698328 S    
C66   C178  1.521553 S    
C118  C120  1.554900 S    
C161  H79   1.109664 S    
C43   N23   1.457890 S    
N21   O90   1.300172 A    
C28   C170  1.520694 S    
C149  H42   1.109405 S    
C58   C61   1.545431 S    
C12   C28   1.541261 S    
C110  C112  1.549237 S    
C122  C135  1.541178 S    
C86   C148  1.522787 S    
C121  C131  1.542160 S    
O11   Cu4   1.948237 S    
C26   C168  1.520677 S    
C153  H53   1.109595 S    
C34   C164  1.520767 S    
N24   O96   1.300252 A    
C85   C147  1.522788 S    
C79   C82   1.544828 S    
C40   C48   1.548515 S    
N17   O81   1.300225 A    
Cu4   O16   1.979294 S    
C67   C70   1.536471 S    
C9    C25   1.541308 S    
C166  H93   1.109602 S    
C124  C136  1.541185 S    
Cu9   O45   1.978929 S    
C148  H40   1.109501 S    
N19   O85   1.300224 A    
Cu12  O48   1.979307 S    
C154  H56   1.109548 S    
O12   C6    1.299291 A    
C116  N14   1.457941 S    
C64   C67   1.545610 S    
C134  H4    1.110186 S    
C147  H37   1.109503 S    
N2    O52   1.300452 A    
C173  H113  1.108856 S    
C75   C78   1.538258 S    
C13   C45   1.551930 S    
C138  H8    1.109635 S    
O34   Cu10  1.977809 S    
O37   C99   1.280166 A    
C167  H96   1.109658 S    
C24   C94   1.432990 S    
N7    O62   1.300574 A    
O29   C95   1.295871 A    
C170  H105  1.109681 S    
C122  C132  1.542622 S    
C145  H30   1.109347 S    
C48   C162  1.520784 S    
O21   Cu5   1.947739 S    
C47   C161  1.520923 S    
C127  C129  1.541438 S    
O35   Cu11  1.977995 S    
C180  H135  1.105287 S    
C62   C64   1.543330 S    
C38   C46   1.548522 S    
Cu2   O14   1.979885 S    
C152  H51   1.109238 S    
O38   Cu10  1.978960 S    
C7    C87   1.459999 S    
C123  C136  1.537311 S    
C171  H108  1.106487 S    
O45   C103  1.280092 A    
N12   O72   1.299709 A    
O17   C89   1.291966 A    
C165  H91   1.109589 S    
C58   C66   1.545100 S    
O44   C102  1.280334 A    
C159  H72   1.109715 S    
C57   C173  1.522612 S    
O33   Cu9   1.977995 S    
O2    C2    1.295353 A    
O24   Cu6   1.947351 S    
Cu6   O30   1.978557 S    
C169  H102  1.109661 S    
C176  H123  1.109924 S    
C81   C85   1.546448 S    
C43   C47   1.541577 S    
C14   C30   1.548313 S    
C9    C37   1.541366 S    
C75   C83   1.538566 S    
C122  C152  1.522961 S    
C67   C179  1.522418 S    
C108  N10   1.458084 S    
O32   C96   1.291155 A    
N23   O94   1.300176 A    
N9    O65   1.299997 A    
C69   N1    1.458170 S    
O10   Cu3   1.948052 S    
C122  C126  1.535058 S    
C35   C43   1.541348 S    
O28   C94   1.299903 A    
C127  C130  1.543082 S    
C80   C104  1.459377 S    
C16   C140  1.520633 S    
C164  H88   1.109724 S    
N6    O60   1.299881 A    
C25   C29   1.548330 S    
C9    N17   1.457879 S    
N15   O78   1.299617 A    
C59   C72   1.544345 S    
O39   Cu11  1.979338 S    
C22   C54   1.204212 T    
C63   C99   1.463624 S    
O7    C5    1.299345 A    
C116  C117  1.548180 S    
C60   C176  1.522351 S    
O13   C7    1.290731 A    
N5    O58   1.299830 A    
Cu10  O42   1.977923 S    
C115  N13   1.457780 S    
C154  H58   1.109695 S    
N8    O64   1.299741 A    
O3    Cu3   1.979887 S    
C146  H32   1.109713 S    
C39   C55   1.465910 S    
C173  H115  1.109512 S    
C61   C171  1.522593 S    
N18   O83   1.300245 A    
C98   C112  1.460045 S    
C34   C38   1.548500 S    
C138  H10   1.109646 S    
C150  H45   1.109410 S    
N16   O79   1.300238 A    
N14   O75   1.300204 A    
C105  C115  1.531748 S    
C89   C119  1.457060 S    
O47   C104  1.280094 A    
Cu2   Cu4   2.696600 S    
C144  H26   1.109711 S    
C58   C71   1.541456 S    
O15   C7    1.294512 A    
O24   C94   1.299915 A    
C162  H80   1.109634 S    
C26   C30   1.548345 S    
C90   C120  1.457032 S    
C21   C91   1.432798 S    
C45   C159  1.520931 S    
C15   C139  1.520883 S    
N13   O74   1.300258 A    
C73   C87   1.538455 S    
C59   C175  1.522610 S    
C179  H131  1.109599 S    
C166  H92   1.109631 S    
C10   C38   1.541383 S    
C13   C137  1.520880 S    
C139  H12   1.109725 S    
C117  C119  1.554888 S    
C83   C86   1.546449 S    
C170  H104  1.109644 S    
C124  C130  1.542621 S    
C151  H47   1.109594 S    
C81   C143  1.522135 S    
C125  C127  1.536350 S    
C128  C132  1.543085 S    
C25   C33   1.551519 S    
C142  H22   1.109164 S    
C6    C20   1.432604 S    
C174  H117  1.109925 S    
C177  H125  1.109601 S    
C114  N12   1.457953 S    
N3    O53   1.300252 A    
C106  C119  1.535564 S    
C143  H24   1.109348 S    
C24   C56   1.204212 T    
C158  H68   1.109757 S    
O28   Cu8   1.948031 S    
O26   C92   1.299905 A    
C4    C18   1.432610 S    
