data_mof_unit_37531.cif
_audit_creation_date              2013-03-05T16:12:47-0500
_audit_creation_method            fapswitch 2.2
_symmetry_space_group_name_H-M    P1
_symmetry_Int_Tables_number       1
_space_group_crystal_system       triclinic
_cell_length_a                    8.353607
_cell_length_b                    16.158692
_cell_length_c                    18.773621
_cell_angle_alpha                 111.589035
_cell_angle_beta                  90.543829
_cell_angle_gamma                 84.248605
_cell_volume                      2343.46100283

loop_
_atom_site_label
_atom_site_type_symbol
_atom_site_description
_atom_site_fract_x
_atom_site_fract_y
_atom_site_fract_z
_atom_type_partial_charge
P1    P     P_3+3 0.582960 0.413890 0.320860 0.508389
O1    O     O_2   0.402610 0.439360 0.314250 -0.339488
O2    O     O_3   0.648560 0.446300 0.404730 -0.362244
O3    O     O_3   0.108870 0.604000 0.387500 -0.368724
O4    O     O_2   0.242243 0.536446 0.250913 -0.252655
O5    O     O_3   0.590111 0.297187 0.288765 -0.562427
O6    O     O_3   0.125815 0.703392 0.294333 -0.517719
H1    H     H_    0.121959 0.769522 0.411722 0.156237
C1    C     C_3   0.054396 0.860202 0.354474 -0.773260
H2    H     H_    0.179582 0.872103 0.344941 0.295331
H3    H     H_    0.980171 0.863182 0.305910 0.243650
P2    P     P_3+3 0.071690 0.707860 0.593450 0.520159
P3    P     P_3+3 0.506516 0.765858 0.448932 0.538065
O7    O     O_2   0.241370 0.719440 0.573960 -0.285530
O8    O     O_3   0.507090 0.652150 0.432150 -0.314404
O9    O     O_2   0.359450 0.813515 0.503243 -0.346690
O10   O     O_3   0.067546 0.738441 0.693418 -0.580901
O11   O     O_3   0.459370 0.781427 0.363301 -0.493681
C2    C     C_3   0.603679 0.774048 0.322388 0.191470
H4    H     H_    0.672898 0.707559 0.310045 0.055874
H5    H     H_    0.678516 0.827585 0.355078 0.016129
C3    C     C_3   0.567239 0.787058 0.246965 -0.037207
H6    H     H_    0.493918 0.852373 0.259257 0.152589
C4    C     C_3   0.665500 0.751954 0.698227 0.459693
H7    H     H_    0.774984 0.711718 0.666140 0.034964
C5    C     C_3   0.719799 0.835749 0.763221 0.252158
H8    H     H_    0.819211 0.811199 0.792065 0.127294
Ba1   Ba    Ba6+2 0.333520 0.539550 0.472180 1.697420
C6    C     C_3   0.743529 0.256012 0.257732 0.351827
H9    H     H_    0.839284 0.300243 0.282125 0.108515
C7    C     C_3   0.747464 0.228561 0.170487 -1.079662
H10   H     H_    0.639230 0.195185 0.145490 0.264889
H11   H     H_    0.856410 0.182052 0.144379 0.249821
H12   H     H_    0.753709 0.287575 0.154731 0.268510
C8    C     C_3   0.175377 0.679893 0.714912 0.111104
H13   H     H_    0.289903 0.664739 0.681347 0.131668
H14   H     H_    0.121878 0.616134 0.703493 0.125480
C9    C     C_3   0.214886 0.722586 0.800817 -0.166078
H15   H     H_    0.340922 0.698762 0.807794 0.103905
P4    P     P_3+3 0.606720 0.586180 0.679160 0.486883
O12   O     O_2   0.787080 0.560670 0.685800 -0.369293
O13   O     O_3   0.541120 0.553770 0.595290 -0.351587
O14   O     O_3   0.080800 0.396070 0.612520 -0.367175
O15   O     O_3   0.581049 0.702903 0.730158 -0.629707
P5    P     P_3+3 0.699648 0.233991 0.547962 0.517852
O16   O     O_3   0.164600 0.390590 0.443970 -0.342740
O17   O     O_3   0.682580 0.347920 0.567870 -0.399191
O18   O     O_2   0.872760 0.198160 0.515200 -0.393910
O19   O     O_3   0.693541 0.222425 0.638028 -0.517924
Ba2   Ba    Ba6+2 0.856270 0.460520 0.527840 1.680765
P6    P     P_3+3 0.091891 0.597919 0.293458 0.551804
C10   C     C_3   0.053180 0.769222 0.360829 0.395350
H16   H     H_    0.926900 0.757953 0.368534 -0.050116
H17   H     H_    0.004760 0.913591 0.408105 0.209957
O20   O     O_3   0.025080 0.609480 0.556050 -0.386301
C11   C     C_3   0.212216 0.271370 0.261982 0.741838
H18   H     H_    0.320408 0.288222 0.295720 0.088092
C12   C     C_3   0.262600 0.198972 0.182906 -0.749443
H19   H     H_    0.153267 0.177977 0.149703 0.205622
H20   H     H_    0.336740 0.227386 0.150567 0.166391
P7    P     P_3+3 0.127913 0.276727 0.398290 0.535476
O21   O     O_2   0.948320 0.280590 0.426090 -0.307106
O22   O     O_3   0.103678 0.238784 0.298673 -0.651002
H21   H     H_    0.682689 0.788665 0.218764 0.060716
C13   C     C_3   0.702326 0.307032 0.696958 0.552638
H22   H     H_    0.797677 0.341612 0.683843 0.140069
H23   H     H_    0.589183 0.350218 0.702452 0.101278
C14   C     C_3   0.733496 0.300582 0.775385 -0.842558
H24   H     H_    0.749493 0.368101 0.817737 0.194328
H25   H     H_    0.633073 0.275058 0.796108 0.294267
H26   H     H_    0.844251 0.257343 0.774955 0.285625
P8    P     P_3+3 0.093663 0.405055 0.708403 0.460207
C15   C     C_3   0.150976 0.228276 0.661532 0.673111
O23   O     O_2   0.949057 0.470705 0.752626 -0.415989
O24   O     O_3   0.062369 0.302261 0.717635 -0.630899
H27   H     H_    0.110000 0.222228 0.603475 0.062190
C16   C     C_3   0.130044 0.139727 0.673832 -0.635815
H28   H     H_    0.157911 0.149149 0.734269 0.220857
C17   C     C_R   0.517836 0.451046 0.037508 0.078812
C18   C     C_R   0.453089 0.402638 0.077533 -0.077073
C19   C     C_R   0.310821 0.415448 0.936555 -0.147036
C20   C     C_R   0.453405 0.453441 0.966974 0.072568
C21   C     C_R   0.251526 0.417383 0.867424 -0.083625
C22   C     C_R   0.333333 0.455168 0.823867 0.027037
C23   C     C_R   0.472095 0.497544 0.854202 0.027822
C24   C     C_R   0.529865 0.498536 0.926654 0.047447
C25   C     C_R   0.280144 0.452884 0.751302 0.307480
C26   C     C_R   0.370863 0.487366 0.708066 -0.476871
C27   C     C_R   0.506175 0.531571 0.737363 0.168347
C28   C     C_R   0.551762 0.540605 0.812922 -0.090069
C29   C     C_R   0.653416 0.497268 0.068731 0.075121
C30   C     C_R   0.714124 0.499728 0.141530 0.087576
C31   C     C_R   0.634142 0.457451 0.183759 -0.021100
C32   C     C_R   0.508653 0.406625 0.148786 -0.072655
H29   H     H_    0.331906 0.482683 0.651723 0.175837
H30   H     H_    0.140509 0.388320 0.848824 0.173371
H31   H     H_    0.451810 0.368216 0.175753 0.159847
C33   C     C_R   0.671204 0.594109 0.849725 0.014510
C34   C     C_R   0.725025 0.597197 0.920671 -0.118382
C35   C     C_R   0.663771 0.545023 0.958218 0.018981
C36   C     C_R   0.728850 0.541070 0.027423 0.088565
C37   C     C_R   0.873458 0.576088 0.054200 -0.229060
C38   C     C_R   0.854566 0.543704 0.171305 -0.042467
C39   C     C_R   0.936344 0.577886 0.123381 -0.172635
C40   C     C_R   0.903200 0.551246 0.246836 0.144602
C41   C     C_R   0.807924 0.518751 0.290374 -0.315591
C42   C     C_R   0.681956 0.466679 0.259250 0.176464
H32   H     H_    0.723027 0.635591 0.824644 0.210437
H33   H     H_    0.838763 0.529753 0.349011 0.169862
H34   H     H_    0.239099 0.385357 0.965887 0.141813
H35   H     H_    0.357691 0.360784 0.055349 0.135182
H36   H     H_    0.812952 0.643334 0.945506 0.182011
H37   H     H_    0.946124 0.599519 0.019692 0.151582
C43   C     C_2   0.413311 0.233663 0.470332 -0.350127
C44   C     C_R   0.808955 0.749641 0.512607 -0.451943
C45   C     C_2   0.263832 0.107934 0.394953 0.310131
C46   C     C_2   0.271913 0.197416 0.424682 0.050362
C47   C     C_2   0.539357 0.180615 0.481511 0.331392
C48   C     C_3   0.552386 0.080963 0.435641 0.028885
C49   C     C_3   0.388120 0.044983 0.413193 0.009013
C50   C     C_2   0.663490 0.025182 0.468838 -0.169084
C51   C     C_2   0.614209 0.961746 0.491549 -0.157909
C52   C     C_R   0.869229 0.926417 0.549420 0.092927
C53   C     C_R   0.727381 0.898187 0.512129 -0.037351
C54   C     C_R   0.975460 0.868920 0.571878 -0.157766
C55   C     C_R   0.943373 0.780729 0.555339 0.215368
C56   C     C_R   0.695284 0.808794 0.494594 0.197018
H38   H     H_    0.080774 0.893779 0.603309 0.190887
H39   H     H_    0.410544 0.305801 0.497927 0.182159
H40   H     H_    0.788380 0.680210 0.496962 0.187042
H41   H     H_    0.790745 0.033241 0.468681 0.184862
H42   H     H_    0.488530 0.950981 0.488792 0.214236
N1    N     N_R   0.783237 0.898980 0.733835 0.225894
O25   O     O_R   0.690721 0.941688 0.699716 -0.315749
O26   O     O_R   0.927819 0.921798 0.750927 -0.356829
N2    N     N_R   0.591613 0.880817 0.821507 0.249982
O27   O     O_R   0.524377 0.960387 0.830475 -0.299341
O28   O     O_R   0.562195 0.847130 0.872632 -0.387142
C57   C     C_2   0.779513 0.173213 0.276232 0.719500
H43   H     H_    0.883120 0.126035 0.249359 0.040034
O29   O     O_2   0.694239 0.158093 0.321495 -0.545293
N3    N     N_R   0.111480 0.694824 0.848613 0.270065
O30   O     O_R   0.957520 0.718398 0.854254 -0.398556
O31   O     O_R   0.174889 0.653360 0.891415 -0.391058
C58   C     C_2   0.206616 0.823330 0.828085 0.833529
H44   H     H_    0.267777 0.853766 0.794882 0.067715
O32   O     O_2   0.132271 0.871448 0.886833 -0.504234
N4    N     N_R   0.132947 0.351755 0.253682 0.203610
O33   O     O_R   0.102396 0.355991 0.186870 -0.461697
O34   O     O_R   0.079977 0.418029 0.315116 -0.391402
C59   C     C_2   0.358509 0.116812 0.186431 0.671108
H45   H     H_    0.390852 0.060609 0.133517 0.059795
O35   O     O_2   0.402131 0.112049 0.247079 -0.554117
N5    N     N_R   0.320068 0.241256 0.667190 0.206017
O36   O     O_R   0.377955 0.280941 0.626225 -0.513472
O37   O     O_R   0.398317 0.235513 0.725569 -0.434999
C60   C     C_2   0.244670 0.063636 0.622296 0.505449
H46   H     H_    0.346271 0.036610 0.646334 0.145698
O38   O     O_2   0.225708 0.032791 0.553238 -0.635036
C61   C     C_2   0.964024 0.111864 0.658525 0.669629
H47   H     H_    0.913328 0.102400 0.603193 0.073232
O39   O     O_2   0.889124 0.094481 0.705889 -0.487790
C62   C     C_2   0.092258 0.613866 0.137631 0.729851
H48   H     H_    0.097631 0.685661 0.160155 0.059568
O40   O     O_2   0.215249 0.563577 0.115660 -0.523190
N6    N     N_R   0.137340 0.069395 0.345552 0.241429
O41   O     O_R   0.989624 0.086979 0.371908 -0.384646
O42   O     O_R   0.173034 0.001241 0.282260 -0.392226
N7    N     N_R   0.481505 0.715592 0.194509 0.271472
O43   O     O_R   0.443254 0.717224 0.127697 -0.358083
O44   O     O_R   0.445861 0.649236 0.212689 -0.319538
N8    N     N_R   0.559789 0.775537 0.645698 0.208942
O45   O     O_R   0.542047 0.711317 0.581181 -0.356462
O46   O     O_R   0.443588 0.839881 0.671573 -0.369493

loop_
_geom_bond_atom_site_label_1
_geom_bond_atom_site_label_2
_geom_bond_distance
_ccdc_geom_bond_type
P5    C47   1.871126 S    
C25   C26   1.404541 A    
C60   H46   1.085443 S    
N7    O44   1.300011 A    
N7    O43   1.300418 A    
C62   H48   1.084322 S    
C22   C25   1.417563 A    
C19   H34   1.077174 S    
C39   C62   1.461716 S    
C19   C20   1.413277 A    
C44   C56   1.406951 A    
C52   C53   1.399963 A    
C23   C24   1.433979 A    
C10   H16   1.108006 S    
Ba1   O16   2.791733 S    
C5    H8    1.106239 S    
C36   C37   1.395818 A    
C44   C55   1.398639 A    
O19   C13   1.415606 S    
P3    O11   1.751721 S    
P2    Ba1   3.421930 S    
O2    Ba1   2.943508 S    
C62   O40   1.216599 D    
N4    O34   1.295617 A    
O6    C10   1.402116 S    
O11   C2    1.406697 S    
C9    H15   1.107753 S    
P4    Ba2   3.399730 S    
C52   C54   1.394397 A    
P2    C55   1.843849 S    
C41   C42   1.400245 A    
C34   H36   1.077094 S    
C12   H20   1.110054 S    
C33   H32   1.073633 S    
C45   C46   1.353406 D    
C44   H40   1.081522 S    
P1    O1    1.537631 D    
P5    O17   1.729492 S    
P7    O22   1.757374 S    
C47   C48   1.514103 S    
C35   C36   1.424185 A    
C30   C38   1.433924 A    
O3    Ba1   2.811343 S    
Ba1   Ba2   4.549549 S    
C22   C23   1.412951 A    
O2    Ba2   2.831639 S    
C2    H4    1.112281 S    
C14   H24   1.108689 S    
C13   H23   1.098918 S    
C15   N5    1.445903 S    
P1    Ba1   3.399212 S    
C59   H45   1.084722 S    
C7    H11   1.110684 S    
P4    C27   1.885083 S    
C24   C35   1.412407 A    
C1    H2    1.109864 S    
H1    C10   1.108926 S    
C17   C29   1.420893 A    
P4    O13   1.577365 S    
C54   C55   1.395842 A    
C26   H29   1.081655 S    
C60   O38   1.220960 D    
N6    O42   1.300602 A    
C15   O24   1.413246 S    
C45   N6    1.432737 S    
N6    O41   1.298485 A    
C1    C10   1.519105 S    
C29   C36   1.414933 A    
P8    O24   1.776832 S    
C51   H42   1.078942 S    
C58   O32   1.221395 D    
Ba1   O20   2.928995 S    
N8    O46   1.301628 A    
C58   H44   1.083260 S    
O17   Ba2   2.745265 S    
C48   C50   1.515586 S    
C6    C57   1.503453 S    
C57   H43   1.085257 S    
C7    H12   1.103359 S    
O16   P7    1.778033 S    
P7    C46   1.865977 S    
P1    O5    1.750621 S    
C43   C46   1.490898 S    
C8    C9    1.550034 S    
C4    H7    1.106852 S    
N2    O28   1.301405 A    
C29   C30   1.441364 A    
O3    P6    1.737007 S    
C32   H31   1.077881 S    
C12   H19   1.110626 S    
C16   H28   1.113423 S    
C45   C49   1.505940 S    
P1    O2    1.577365 S    
C8    H13   1.106015 S    
C61   O39   1.220909 D    
C11   N4    1.457592 S    
C9    C58   1.510546 S    
C6    H9    1.107766 S    
C54   H38   1.081696 S    
C21   C22   1.403599 A    
P5    O19   1.769930 S    
P6    C40   1.883011 S    
C13   C14   1.531901 S    
C2    C3    1.529658 S    
C50   C51   1.345933 D    
C11   O22   1.395800 S    
C38   C40   1.436106 A    
C31   C32   1.402551 A    
N4    O33   1.302559 A    
C48   C49   1.538572 S    
C37   C39   1.387791 A    
C1    H3    1.110673 S    
N5    O36   1.291756 A    
C43   C47   1.354543 D    
O13   Ba2   2.944287 S    
C53   C56   1.411663 A    
C12   C59   1.503088 S    
P8    O23   1.545289 D    
P4    O12   1.537935 D    
P1    C42   1.906540 S    
C13   H22   1.096108 S    
P3    O8    1.745701 S    
N1    O25   1.301093 A    
C4    O15   1.398215 S    
C43   H39   1.085413 S    
N3    O31   1.300826 A    
C11   H18   1.097132 S    
C51   C53   1.479284 S    
O12   Ba2   2.839106 S    
P8    C25   1.852577 S    
N8    O45   1.291654 A    
P5    O18   1.546540 D    
O14   P8    1.755001 S    
C37   H37   1.079607 S    
C8    H14   1.111329 S    
C3    H6    1.111829 S    
N5    O37   1.298526 A    
C7    H10   1.109947 S    
C4    C5    1.557145 S    
P2    O7    1.513744 D    
N2    O27   1.301814 A    
C19   C21   1.394734 A    
C17   C20   1.436900 A    
C23   C28   1.423747 A    
O14   Ba2   2.810719 S    
C40   C41   1.410382 A    
O16   Ba2   2.928217 S    
Ba2   O20   2.791191 S    
C34   C35   1.414247 A    
C3    N7    1.460061 S    
C61   H47   1.081454 S    
O6    P6    1.749661 S    
C6    C7    1.531007 S    
C5    N1    1.468999 S    
C20   C24   1.421363 A    
C31   C42   1.426883 A    
P2    O10   1.755828 S    
C57   O29   1.219979 D    
O8    Ba1   2.744664 S    
C50   H41   1.084020 S    
C14   H26   1.100304 S    
Ba2   O21   2.861147 S    
C21   H30   1.078425 S    
C18   H35   1.077196 S    
Ba1   O13   2.831077 S    
C30   C31   1.428892 A    
C15   H27   1.111723 S    
C11   C12   1.544256 S    
C9    N3    1.463273 S    
C59   O35   1.219037 D    
P7    O21   1.580871 D    
C4    N8    1.445717 S    
P2    O20   1.571366 S    
C5    N2    1.467614 S    
C16   C61   1.493668 S    
C3    H21   1.111716 S    
C17   C18   1.412114 A    
P3    C56   1.859770 S    
P4    O15   1.764633 S    
O5    C6    1.408053 S    
C26   C27   1.396894 A    
C14   H25   1.104007 S    
C33   C34   1.386679 A    
P3    O9    1.548629 D    
C38   C39   1.426272 A    
N1    O26   1.300961 A    
C15   C16   1.557329 S    
N3    O30   1.298128 A    
O4    P6    1.545084 D    
O1    Ba1   2.838610 S    
C1    H17   1.107675 S    
O10   C8    1.404462 S    
O7    Ba1   2.860976 S    
C27   C28   1.423743 A    
C18   C32   1.392748 A    
C28   C33   1.393058 A    
C16   C60   1.506966 S    
C2    H5    1.107360 S    
C41   H33   1.081472 S    
