data_mof_unit_12633.cif
_audit_creation_date              2012-12-11T15:48:44-0500
_audit_creation_method            fapswitch 2.2
_symmetry_space_group_name_H-M    P1
_symmetry_Int_Tables_number       1
_space_group_crystal_system       triclinic
_cell_length_a                    10.980569
_cell_length_b                    10.939276
_cell_length_c                    18.742428
_cell_angle_alpha                 90.33554
_cell_angle_beta                  89.699153
_cell_angle_gamma                 60.212246
_cell_volume                      1953.74614507

loop_
_atom_site_label
_atom_site_type_symbol
_atom_type_description
_atom_site_fract_x
_atom_site_fract_y
_atom_site_fract_z
_atom_type_partial_charge
C1    C     C_R   0.294028 0.621270 0.615682 0.555323
C2    C     C_3   0.699615 0.529202 0.798809 -0.047418
C3    C     C_3   0.698283 0.670122 0.813074 0.034254
C4    C     C_3   0.668613 0.645553 0.676873 0.042688
C5    C     C_3   0.807467 0.644228 0.689483 -0.239040
C6    C     C_3   0.669191 0.522150 0.719159 -0.211568
C7    C     C_R   0.704874 0.102812 0.815211 0.028384
C8    C     C_R   0.801527 0.126332 0.778197 0.054612
C9    C     C_R   0.786482 0.154518 0.705191 0.012084
C10   C     C_R   0.585691 0.120947 0.704309 -0.174305
C11   C     C_R   0.591905 0.109093 0.777198 -0.171178
C12   C     C_R   0.652861 0.621581 0.601264 0.538061
C13   C     C_3   0.954045 0.029229 0.771539 -0.263543
C14   C     C_3   0.940127 0.060111 0.692677 -0.274341
C15   C     C_R   0.678574 0.150586 0.667656 0.009570
C16   C     C_R   0.217331 0.653511 0.843426 0.013774
C17   C     C_R   0.263663 0.524104 0.808001 0.009509
C18   C     C_R   0.287179 0.512958 0.734423 0.014413
C19   C     C_R   0.253578 0.745872 0.732524 -0.185499
C20   C     C_R   0.237865 0.753702 0.806742 -0.178635
C21   C     C_3   0.216516 0.418070 0.807847 -0.254908
C22   C     C_3   0.229071 0.415826 0.726705 -0.243717
C23   C     C_R   0.630502 0.223698 0.600672 0.539634
C24   C     C_R   0.270464 0.628000 0.693896 0.000606
C25   C     C_R   0.651361 0.657333 0.164928 0.018818
C26   C     C_R   0.747388 0.535304 0.201420 0.033074
C27   C     C_R   0.743509 0.529834 0.274271 0.037142
C28   C     C_R   0.531172 0.753351 0.278132 -0.162984
C29   C     C_R   0.534140 0.759850 0.203162 -0.172339
C30   C     C_3   0.905439 0.454007 0.201642 -0.265559
C31   C     C_3   0.898812 0.450975 0.281940 -0.281815
C32   C     C_R   0.643680 0.642373 0.314484 0.018714
C33   C     C_R   0.633358 0.191867 0.168110 0.020676
C34   C     C_R   0.220276 0.649320 0.402252 0.562832
C35   C     C_R   0.516259 0.209213 0.206678 0.019297
C36   C     C_R   0.513877 0.219776 0.279632 0.034824
C37   C     C_R   0.729605 0.225796 0.277039 -0.155404
C38   C     C_R   0.730643 0.218746 0.202661 -0.154072
C39   C     C_3   0.447735 0.120200 0.209308 -0.271435
C40   C     C_3   0.444709 0.133391 0.289631 -0.279555
C41   C     C_R   0.626935 0.213467 0.316265 0.021605
C42   C     C_R   0.116569 0.690803 0.188913 0.025092
C43   C     C_R   0.069171 0.811311 0.231820 0.045820
C44   C     C_R   0.082213 0.802896 0.304338 0.014320
C45   C     C_R   0.639635 0.620147 0.390654 0.548191
C46   C     C_R   0.171754 0.551824 0.295190 -0.164939
C47   C     C_R   0.158787 0.561351 0.221256 -0.179613
C48   C     C_3   0.101479 0.928517 0.227296 -0.263766
C49   C     C_3   0.111902 0.922766 0.307590 -0.274020
C50   C     C_R   0.146719 0.671080 0.336232 0.017357
C51   C     C_R   0.723032 0.053145 0.888518 0.558254
C52   C     C_R   0.722410 0.686589 0.888921 0.545032
C53   C     C_R   0.124300 0.703066 0.907304 0.530849
C54   C     C_R   0.672266 0.112110 0.102120 0.561073
C55   C     C_R   0.694768 0.688046 0.096678 0.551187
C56   C     C_R   0.612459 0.237657 0.392352 0.546989
C57   C     C_R   0.088997 0.711957 0.113921 0.548282
C58   C     C_3   0.554014 0.790986 0.787377 -0.265167
C59   C     C_3   0.547935 0.787914 0.705539 -0.248068
C60   C     C_3   0.813749 0.679599 0.768261 -0.215847
Cr1   Cr    Cr6+3 0.392960 0.397920 0.502240 1.006925
Cr2   Cr    Cr6+3 0.398340 0.708480 0.501250 0.997607
Cr3   Cr    Cr6+3 0.708670 0.393570 0.496460 1.005366
Cr4   Cr    Cr6+3 0.937650 0.938540 0.007610 1.014355
Cr5   Cr    Cr6+3 0.625330 0.937370 0.994520 1.001014
Cr6   Cr    Cr6+3 0.937940 0.625230 0.001190 1.019069
H1    H     H_    0.536291 0.894793 0.804463 0.140431
H2    H     H_    0.747528 0.418655 0.695951 0.170898
H3    H     H_    0.919197 0.609079 0.788372 0.150137
H4    H     H_    0.897027 0.538425 0.676007 0.162452
H5    H     H_    0.501444 0.116195 0.677180 0.128171
H6    H     H_    0.508547 0.100839 0.803177 0.132273
H7    H     H_    0.978096 0.920458 0.783653 0.136779
H8    H     H_    0.016476 0.068423 0.800015 0.163937
H9    H     H_    0.992518 0.119827 0.675438 0.161597
H10   H     H_    0.964326 0.966698 0.658825 0.146238
H11   H     H_    0.240575 0.838230 0.705315 0.136499
H12   H     H_    0.467974 0.779310 0.811346 0.123690
H13   H     H_    0.218568 0.850320 0.832807 0.135895
H14   H     H_    0.110441 0.456479 0.829768 0.187683
H15   H     H_    0.296139 0.318089 0.832424 0.142593
H16   H     H_    0.305364 0.311704 0.704603 0.147289
H17   H     H_    0.126423 0.466983 0.699468 0.143221
H18   H     H_    0.445084 0.837327 0.307476 0.121199
H19   H     H_    0.451883 0.849908 0.176145 0.115929
H20   H     H_    0.953196 0.516490 0.183012 0.177468
H21   H     H_    0.948957 0.348120 0.176391 0.124218
H22   H     H_    0.940228 0.343370 0.303373 0.130882
H23   H     H_    0.445143 0.805283 0.688869 0.142274
H24   H     H_    0.938340 0.514966 0.308909 0.145830
H25   H     H_    0.811203 0.235393 0.303732 0.128979
H26   H     H_    0.815244 0.219053 0.173048 0.122167
H27   H     H_    0.519603 0.011319 0.190557 0.168648
H28   H     H_    0.341667 0.173015 0.185106 0.129114
H29   H     H_    0.336829 0.195316 0.312105 0.133141
H30   H     H_    0.513399 0.032128 0.316844 0.139358
H31   H     H_    0.216150 0.448588 0.318761 0.142324
H32   H     H_    0.187960 0.467482 0.189593 0.122476
H33   H     H_    0.012418 0.027193 0.207635 0.141337
H34   H     H_    0.558676 0.875695 0.682883 0.121591
H35   H     H_    0.203360 0.896095 0.200014 0.138228
H36   H     H_    0.218576 0.893926 0.325534 0.161636
H37   H     H_    0.026007 0.017077 0.334685 0.129221
H38   H     H_    0.798286 0.788010 0.772605 0.106211
H39   H     H_    0.815481 0.722410 0.654920 0.109177
H40   H     H_    0.612442 0.531141 0.830475 0.111141
H41   H     H_    0.565401 0.528388 0.713865 0.096534
O1    O     O_R   0.507380 0.255700 0.581440 -0.533252
O2    O     O_R   0.524480 0.695810 0.424040 -0.507732
O3    O     O_R   0.736390 0.504290 0.414790 -0.517429
O4    O     O_R   0.691300 0.277290 0.422170 -0.510019
O5    O     O_3   0.499990 0.499990 0.499980 -0.265924
O6    O     O_R   0.089400 0.825690 0.930570 -0.534725
O7    O     O_R   0.818460 0.054440 0.929850 -0.477144
O8    O     O_R   0.606060 0.077150 0.915510 -0.527929
O9    O     O_R   0.646550 0.806680 0.917570 -0.528855
O10   O     O_R   0.837170 0.593410 0.915250 -0.489640
O11   O     O_R   0.065200 0.635530 0.931570 -0.509418
O12   O     O_R   0.280320 0.527350 0.578930 -0.497058
O13   O     O_R   0.068260 0.828890 0.091840 -0.520457
O14   O     O_R   0.798870 0.057410 0.079340 -0.500877
O15   O     O_R   0.584930 0.080350 0.076780 -0.519461
O16   O     O_R   0.626960 0.809650 0.067060 -0.506743
O17   O     O_R   0.816040 0.596610 0.076510 -0.518024
O18   O     O_R   0.045610 0.638500 0.081060 -0.513148
O19   O     O_3   0.833640 0.833710 0.001100 -0.267444
O20   O     O_R   0.260510 0.739590 0.584590 -0.530083
O21   O     O_R   0.532300 0.695080 0.573820 -0.522023
O22   O     O_R   0.744840 0.503500 0.576370 -0.524709
O23   O     O_R   0.699120 0.276560 0.571960 -0.504121
O24   O     O_R   0.498940 0.256500 0.419860 -0.520256
O25   O     O_R   0.272500 0.528080 0.429150 -0.507214
O26   O     O_R   0.252060 0.740380 0.423010 -0.522394
C61   C     C_2   0.833290 0.399403 0.821870 0.573637
O27   O     O_2   0.942453 0.357400 0.787853 -0.577730
O28   O     O_R   0.831101 0.329213 0.883543 -0.678136
H42   H     H_    0.926872 0.247396 0.895543 0.331503

loop_
_geom_bond_atom_site_label_1
_geom_bond_atom_site_label_2
_ccdc_geom_bond_type
C44   C49   S    
C8    C13   S    
Cr1   O12   S    
C32   C45   S    
C35   C36   A    
C9    C14   S    
C7    C8    A    
C41   C56   S    
C5    H39   S    
C7    C11   A    
C26   C27   A    
C2    C61   S    
C47   H32   S    
C18   C24   A    
C22   H16   S    
Cr2   O26   S    
C28   C29   A    
C10   C15   A    
C57   O18   A    
C30   C31   S    
C45   O2    A    
C28   H18   S    
C48   H35   S    
Cr4   O14   S    
C38   H26   S    
C4    C59   S    
C59   H23   S    
Cr3   O23   S    
Cr3   O5    S    
C19   H11   S    
Cr1   O1    S    
C16   C53   S    
C39   H27   S    
Cr1   O25   S    
C55   O17   A    
C19   C20   A    
C8    C9    A    
Cr6   O10   S    
C6    H41   S    
C31   H22   S    
C30   H20   S    
C53   O11   A    
C43   C48   S    
C56   O4    A    
C29   H19   S    
C20   H13   S    
C3    C60   S    
C15   C23   S    
C54   O15   A    
C34   O25   A    
C13   C14   S    
C37   C41   A    
C59   H34   S    
Cr5   O8    S    
C36   C41   A    
C2    C6    S    
C40   H30   S    
C42   C57   S    
C53   O6    A    
C52   O9    A    
C25   C29   A    
C55   O16   A    
C34   C50   S    
C51   O7    A    
Cr4   O7    S    
C12   O22   A    
C37   H25   S    
C27   C31   S    
C1    O20   A    
C28   C32   A    
C4    C6    S    
C49   H36   S    
C58   H12   S    
C11   H6    S    
C16   C17   A    
C61   O28   S    
C34   O26   A    
C25   C26   A    
C2    H40   S    
C51   O8    A    
Cr6   O19   S    
C23   O23   A    
C14   H10   S    
C35   C39   S    
C43   C44   A    
C39   H28   S    
C1    O12   A    
C37   C38   A    
C36   C40   S    
C16   C20   A    
C31   H24   S    
C45   O3    A    
C17   C18   A    
Cr5   O15   S    
C57   O13   A    
C48   C49   S    
C46   H31   S    
C13   H7    S    
C26   C30   S    
Cr4   O19   S    
Cr5   O9    S    
Cr6   O17   S    
C4    C12   S    
C42   C43   A    
C40   H29   S    
C39   C40   S    
C44   C50   A    
C33   C54   S    
C48   H33   S    
C46   C47   A    
Cr4   O6    S    
C5    C60   S    
C27   C32   A    
C18   C22   S    
Cr5   O16   S    
C54   O14   A    
C25   C55   S    
C21   H15   S    
O28   H42   S    
C5    H4    S    
C49   H37   S    
C3    C52   S    
C61   O27   D    
C12   O21   A    
C14   H9    S    
C46   C50   A    
C33   C38   A    
Cr4   O13   S    
Cr6   O18   S    
Cr5   O19   S    
Cr3   O3    S    
C19   C24   A    
C58   C59   S    
C7    C51   S    
C60   H38   S    
C22   H17   S    
Cr2   O21   S    
Cr2   O20   S    
Cr2   O2    S    
C60   H3    S    
C23   O1    A    
C21   H14   S    
C6    H2    S    
C33   C35   A    
C2    C3    S    
C42   C47   A    
Cr3   O22   S    
Cr3   O4    S    
C17   C21   S    
C56   O24   A    
C10   C11   A    
Cr1   O24   S    
C10   H5    S    
C3    C58   S    
C58   H1    S    
C4    C5    S    
Cr2   O5    S    
C13   H8    S    
C1    C24   S    
Cr6   O11   S    
C52   O10   A    
C30   H21   S    
C21   C22   S    
Cr1   O5    S    
C9    C15   A    
