data_mof_unit_43009.cif
_audit_creation_date              2012-12-10T16:45:23-0500
_audit_creation_method            fapswitch 2.2
_symmetry_space_group_name_H-M    P1
_symmetry_Int_Tables_number       1
_space_group_crystal_system       triclinic
_cell_length_a                    7.420059
_cell_length_b                    8.73139
_cell_length_c                    15.827547
_cell_angle_alpha                 94.130463
_cell_angle_beta                  75.12872
_cell_angle_gamma                 102.604787
_cell_volume                      967.053281898

loop_
_atom_site_label
_atom_site_type_symbol
_atom_type_description
_atom_site_fract_x
_atom_site_fract_y
_atom_site_fract_z
_atom_type_partial_charge
Br1   Br    Br    0.687687 0.057709 0.604992 -0.490043
Br2   Br    Br    0.312443 0.942279 0.394933 -0.491094
C1    C     C_R   0.542500 0.799435 0.503847 0.879207
C2    C     C_R   0.615966 0.512155 0.333798 0.802448
C3    C     C_R   0.314030 0.475742 0.761630 -0.049104
C4    C     C_R   0.685971 0.534139 0.239097 -0.051071
C5    C     C_R   0.068660 0.379728 0.890077 -0.180050
C6    C     C_R   0.920992 0.658604 0.114539 -0.179345
C7    C     C_R   0.124183 0.408731 0.800747 -0.184655
C8    C     C_R   0.869953 0.617534 0.202203 -0.186365
C9    C     C_R   0.444946 0.521066 0.813273 -0.221784
C10   C     C_R   0.556821 0.486228 0.186888 -0.221662
C11   C     C_R   0.392223 0.495692 0.903825 0.081697
C12   C     C_R   0.457520 0.200564 0.496130 0.879513
C13   C     C_R   0.601842 0.530899 0.099102 0.081761
C14   C     C_R   0.201609 0.419655 0.941354 0.146705
C15   C     C_R   0.788294 0.617598 0.063160 0.143757
C16   C     C_R   0.524639 0.538580 0.957268 0.060540
C17   C     C_R   0.466753 0.494304 0.046722 0.064079
C18   C     C_R   0.274851 0.417924 0.081130 -0.213887
C19   C     C_R   0.711948 0.626135 0.924617 -0.217350
C20   C     C_R   0.145571 0.382302 0.029410 -0.217045
C21   C     C_R   0.840250 0.664728 0.976714 -0.215283
C22   C     C_2   0.551281 0.963593 0.518369 0.003691
C23   C     C_2   0.448771 0.036406 0.481585 0.003529
C24   C     C_R   0.384106 0.488914 0.666289 0.803328
Cu1   Cu    Cu3+1 0.322120 0.483240 0.490330 1.021167
Cu2   Cu    Cu3+1 0.677880 0.516760 0.509670 1.020161
H1    H     H_    0.999956 0.324494 0.058789 0.158662
H2    H     H_    0.995707 0.384946 0.431576 0.236099
H3    H     H_    0.420513 0.415868 0.217503 0.152369
H4    H     H_    0.589607 0.570612 0.780221 0.155244
H5    H     H_    0.981962 0.732192 0.948863 0.157648
H6    H     H_    0.971645 0.655709 0.241685 0.179702
H7    H     H_    0.020799 0.373235 0.761910 0.177053
H8    H     H_    0.922161 0.323625 0.918947 0.152092
H9    H     H_    0.063519 0.724934 0.087172 0.153174
H10   H     H_    0.216976 0.386198 0.148587 0.151415
H11   H     H_    0.764043 0.670818 0.859307 0.152622
H12   H     H_    0.004291 0.615051 0.568426 0.235871
N1    N     N_2   0.945180 0.542040 0.524240 -0.187620
N2    N     N_2   0.054820 0.457960 0.475760 -0.187295
O1    O     O_R   0.384450 0.714270 0.493720 -0.566550
O2    O     O_R   0.615550 0.285730 0.506280 -0.566524
O3    O     O_R   0.684880 0.742590 0.510050 -0.543457
O4    O     O_R   0.315120 0.257410 0.489950 -0.543124
O5    O     O_R   0.265540 0.477900 0.617090 -0.596328
O6    O     O_R   0.734460 0.522100 0.382910 -0.596961
O7    O     O_R   0.565970 0.506210 0.633420 -0.574537
O8    O     O_R   0.434030 0.493790 0.366580 -0.572405

loop_
_geom_bond_atom_site_label_1
_geom_bond_atom_site_label_2
_ccdc_geom_bond_type
C4    C8    A    
Cu1   O8    S    
C3    C7    A    
C20   H1    S    
C16   C19   A    
C18   H10   S    
N1    N2    D    
C17   C18   A    
C19   H11   S    
C10   C13   A    
C1    O3    A    
C8    H6    S    
C10   H3    S    
C13   C17   A    
C9    C11   A    
Cu1   N2    S    
C1    O1    A    
C1    C22   S    
C15   C21   A    
C5    H8    S    
C24   O5    A    
C11   C16   A    
Cu1   O4    S    
C12   O2    A    
H12   N1    S    
C18   C20   A    
C9    H4    S    
C3    C9    A    
Br2   C23   S    
C5    C7    A    
C19   C21   A    
C12   C23   S    
C4    C10   A    
Cu2   O3    S    
C11   C14   A    
C2    C4    S    
C6    H9    S    
C3    C24   S    
Cu1   O1    S    
Cu2   N1    S    
C2    O6    A    
C22   C23   D    
Br1   C22   S    
C12   O4    A    
C16   C17   A    
Cu2   O7    S    
C24   O7    A    
Cu1   O5    S    
Cu1   Cu2   S    
C7    H7    S    
Cu2   O6    S    
C14   C20   A    
C13   C15   A    
H2    N2    S    
Cu2   O2    S    
C6    C8    A    
C5    C14   A    
C6    C15   A    
C2    O8    A    
C21   H5    S    
