data_mof_unit_31190.cif
_audit_creation_date              2012-12-11T15:50:39-0500
_audit_creation_method            fapswitch 2.2
_symmetry_space_group_name_H-M    P1
_symmetry_Int_Tables_number       1
_space_group_crystal_system       triclinic
_cell_length_a                    6.944248
_cell_length_b                    14.433767
_cell_length_c                    16.629448
_cell_angle_alpha                 90.000101
_cell_angle_beta                  90.000176
_cell_angle_gamma                 89.999934
_cell_volume                      1666.79713837

loop_
_atom_site_label
_atom_site_type_symbol
_atom_type_description
_atom_site_fract_x
_atom_site_fract_y
_atom_site_fract_z
_atom_type_partial_charge
O1    O     O_R   0.638140 0.833910 0.163320 -0.547734
O2    O     O_R   0.361860 0.166090 0.836680 -0.526280
O3    O     O_R   0.361860 0.166090 0.663320 -0.547737
O4    O     O_R   0.638140 0.833910 0.336680 -0.526269
O5    O     O_R   0.138140 0.666090 0.336680 -0.547750
O6    O     O_R   0.861860 0.333910 0.663320 -0.526278
O7    O     O_R   0.861860 0.333910 0.836680 -0.547733
O8    O     O_R   0.138140 0.666090 0.163320 -0.526277
O9    O     O_R   0.308390 0.844930 0.336080 -0.546495
O10   O     O_R   0.691610 0.155070 0.663920 -0.519292
O11   O     O_R   0.691610 0.155070 0.836080 -0.546478
O12   O     O_R   0.308390 0.844930 0.163920 -0.519288
O13   O     O_R   0.808390 0.655070 0.163920 -0.546477
O14   O     O_R   0.191610 0.344930 0.836080 -0.519293
O15   O     O_R   0.191610 0.344930 0.663920 -0.546481
O16   O     O_R   0.808390 0.655070 0.336080 -0.519290
C1    C     C_R   0.477805 0.869068 0.363525 0.788595
C2    C     C_R   0.522522 0.132046 0.635413 0.765054
C3    C     C_R   0.522196 0.130933 0.863526 0.788606
C4    C     C_R   0.477475 0.867951 0.135411 0.765070
C5    C     C_R   0.977804 0.630933 0.136474 0.788613
C6    C     C_R   0.022523 0.367953 0.864587 0.765056
C7    C     C_R   0.022196 0.369066 0.636473 0.788602
C8    C     C_R   0.977476 0.632048 0.364588 0.765047
O17   O     O_3   0.471620 0.691320 0.250000 -0.367146
O18   O     O_3   0.528380 0.308680 0.750000 -0.367149
O19   O     O_3   0.971620 0.808680 0.250000 -0.367151
O20   O     O_3   0.028380 0.191320 0.750000 -0.367148
V1    V     V_3+5 0.196770 0.760880 0.250000 1.501887
V2    V     V_3+5 0.803230 0.239120 0.750000 1.501909
V3    V     V_3+5 0.696770 0.739120 0.250000 1.501908
V4    V     V_3+5 0.303230 0.260880 0.750000 1.501904
C9    C     C_R   0.849860 0.493339 0.444652 0.110489
C10   C     C_R   0.135960 0.514653 0.562303 0.105628
C11   C     C_R   0.150137 0.506661 0.944653 0.110470
C12   C     C_R   0.864041 0.485343 0.062304 0.105594
C13   C     C_R   0.349854 0.006655 0.055343 0.110487
C14   C     C_R   0.635959 0.985341 0.937694 0.105604
C15   C     C_R   0.650131 0.993336 0.555350 0.110478
C16   C     C_R   0.364057 0.014662 0.437691 0.105587
C17   C     C_R   0.867649 0.427974 0.507842 0.221539
C18   C     C_R   0.134106 0.573969 0.494526 0.246533
C19   C     C_R   0.132349 0.572025 0.007844 0.221543
C20   C     C_R   0.865896 0.426026 0.994527 0.246535
C21   C     C_R   0.367648 0.072022 0.992154 0.221542
C22   C     C_R   0.634100 0.926022 0.005470 0.246543
C23   C     C_R   0.632344 0.927974 0.492158 0.221534
C24   C     C_R   0.365899 0.073974 0.505471 0.246534
C25   C     C_R   0.009502 0.438282 0.568207 -0.221947
C26   C     C_R   0.988137 0.565199 0.434640 -0.205673
C27   C     C_R   0.990497 0.561716 0.068208 -0.221929
C28   C     C_R   0.011863 0.434800 0.934640 -0.205665
C29   C     C_R   0.509502 0.061714 0.931791 -0.221932
C30   C     C_R   0.488133 0.934796 0.065357 -0.205672
C31   C     C_R   0.490499 0.938284 0.431792 -0.221939
C32   C     C_R   0.511859 0.065198 0.565361 -0.205668
I1    I     I_    0.602451 0.479940 0.368982 -0.373296
I2    I     I_    0.322827 0.549760 0.658381 -0.360258
I3    I     I_    0.397532 0.520068 0.868977 -0.373316
I4    I     I_    0.677170 0.450245 0.158383 -0.360309
I5    I     I_    0.102434 0.020051 0.131007 -0.373312
I6    I     I_    0.822840 0.950248 0.841618 -0.360306
I7    I     I_    0.897536 0.979931 0.631021 -0.373318
I8    I     I_    0.177272 0.049785 0.341589 -0.360329
N1    N     N_2   0.742499 0.350076 0.510628 -0.529554
H1    H     H_    0.725990 0.314958 0.457085 0.275476
C33   C     C_3   0.563894 0.366132 0.552855 -0.374916
H2    H     H_    0.507399 0.299442 0.574384 0.183734
H3    H     H_    0.456023 0.399160 0.513260 0.187597
H4    H     H_    0.586818 0.411002 0.605855 0.232803
N2    N     N_2   0.284291 0.640965 0.487546 -0.502181
H5    H     H_    0.371421 0.640572 0.437530 0.295364
C34   C     C_3   0.268781 0.726916 0.531829 -0.445500
H6    H     H_    0.390004 0.732440 0.574982 0.235107
H7    H     H_    0.282463 0.785786 0.490087 0.156751
H8    H     H_    0.130010 0.731796 0.564927 0.213722
N3    N     N_2   0.257497 0.649924 0.010630 -0.529552
H9    H     H_    0.274000 0.685043 0.957088 0.275478
C35   C     C_3   0.436106 0.633867 0.052854 -0.374919
H10   H     H_    0.492612 0.700558 0.074376 0.183730
H11   H     H_    0.543967 0.600832 0.013260 0.187604
H12   H     H_    0.413184 0.589004 0.105858 0.232807
N4    N     N_2   0.715696 0.359039 0.987533 -0.502224
H13   H     H_    0.628544 0.359453 0.937524 0.295374
C36   C     C_3   0.731078 0.273105 0.031847 -0.445490
H14   H     H_    0.609748 0.267604 0.074949 0.235071
H15   H     H_    0.717482 0.214219 0.990116 0.156766
H16   H     H_    0.869765 0.268230 0.065004 0.213785
N5    N     N_2   0.242505 0.149923 0.989372 -0.529556
H17   H     H_    0.226000 0.185038 0.042916 0.275480
C37   C     C_3   0.063897 0.133873 0.947144 -0.374906
H18   H     H_    0.007402 0.200566 0.925621 0.183728
H19   H     H_    0.956026 0.100842 0.986737 0.187600
H20   H     H_    0.086817 0.089008 0.894141 0.232807
N6    N     N_2   0.784293 0.859031 0.012462 -0.502226
H21   H     H_    0.871444 0.859439 0.062472 0.295376
C38   C     C_3   0.768909 0.773101 0.968143 -0.445495
H22   H     H_    0.782510 0.714211 0.009870 0.156764
H23   H     H_    0.890237 0.767603 0.925040 0.235076
H24   H     H_    0.630220 0.768228 0.934987 0.213789
N7    N     N_2   0.757543 0.850093 0.489356 -0.529543
H25   H     H_    0.774104 0.814966 0.542891 0.275476
C39   C     C_3   0.936113 0.866190 0.447113 -0.374929
H26   H     H_    0.992603 0.799518 0.425526 0.183809
H27   H     H_    0.044008 0.899186 0.486718 0.187586
H28   H     H_    0.913132 0.911111 0.394144 0.232779
N8    N     N_2   0.215694 0.140960 0.512464 -0.502223
H29   H     H_    0.128550 0.140546 0.562475 0.295372
C40   C     C_3   0.231080 0.226898 0.468156 -0.445497
H30   H     H_    0.369770 0.231776 0.435002 0.213788
H31   H     H_    0.109754 0.232402 0.425052 0.235071
H32   H     H_    0.217480 0.285779 0.509891 0.156763

loop_
_geom_bond_atom_site_label_1
_geom_bond_atom_site_label_2
_ccdc_geom_bond_type
O17   V3    S    
O18   V4    S    
N7    H25   S    
C23   N7    S    
O12   V1    S    
O19   V1    S    
C34   H7    S    
C34   H6    S    
N6    H21   S    
C10   C18   A    
C20   N4    S    
C19   C27   A    
C38   H22   S    
O15   V4    S    
C36   H14   S    
O16   V3    S    
C14   C29   A    
O11   C3    A    
O8    V1    S    
C11   I3    S    
C40   H31   S    
C7    C25   S    
C24   N8    S    
O1    V3    S    
O3    C2    A    
O2    V4    S    
C16   C24   A    
C39   H26   S    
C22   N6    S    
C15   C32   A    
O11   V2    S    
N1    C33   S    
N8    H29   S    
N5    C37   S    
C11   C19   A    
C1    C31   S    
C2    C32   S    
C3    C29   S    
O15   C7    A    
C23   C31   A    
C21   C29   A    
N7    C39   S    
O7    V2    S    
C8    C26   S    
N8    C40   S    
C22   C30   A    
C17   C25   A    
C38   H23   S    
O5    V1    S    
N3    C35   S    
O17   V1    S    
C36   H15   S    
O19   V3    S    
C33   H2    S    
O20   V4    S    
C4    C30   S    
C40   H32   S    
C37   H18   S    
C35   H11   S    
C17   N1    S    
C9    C26   A    
N3    H9    S    
C15   C23   A    
C33   H3    S    
C37   H19   S    
O10   V2    S    
N4    H13   S    
C16   C31   A    
O12   C4    A    
O8    C5    A    
O13   C5    A    
C39   H27   S    
C12   C27   A    
C18   C26   A    
C13   C30   A    
O9    C1    A    
O6    V2    S    
O18   V2    S    
C34   H8    S    
C12   C20   A    
O4    C1    A    
C13   C21   A    
C5    C27   S    
C38   H24   S    
C21   N5    S    
C6    C28   S    
C36   H16   S    
C24   C32   A    
O1    C4    A    
C9    I1    S    
N4    C36   S    
O2    C3    A    
O13   V3    S    
O14   V4    S    
C12   I4    S    
C35   H12   S    
C13   I5    S    
N6    C38   S    
O9    V1    S    
C19   N3    S    
O7    C6    A    
C15   I7    S    
C16   I8    S    
C33   H4    S    
C9    C17   A    
O14   C6    A    
O20   V2    S    
N2    H5    S    
C40   H30   S    
C37   H20   S    
C20   C28   A    
O5    C8    A    
O10   C2    A    
O6    C7    A    
C18   N2    S    
C39   H28   S    
O3    V4    S    
C14   C22   A    
O4    V3    S    
C35   H10   S    
C10   C25   A    
O16   C8    A    
N1    H1    S    
N2    C34   S    
C11   C28   A    
C10   I2    S    
N5    H17   S    
C14   I6    S    
