data_mof_unit_60533.cif
_audit_creation_date              2012-12-10T17:55:19-0500
_audit_creation_method            fapswitch 2.2
_symmetry_space_group_name_H-M    P1
_symmetry_Int_Tables_number       1
_space_group_crystal_system       triclinic
_cell_length_a                    18.749198
_cell_length_b                    18.732072
_cell_length_c                    18.998361
_cell_angle_alpha                 109.629242
_cell_angle_beta                  109.422002
_cell_angle_gamma                 109.184448
_cell_volume                      5147.63880471

loop_
_atom_site_label
_atom_site_type_symbol
_atom_type_description
_atom_site_fract_x
_atom_site_fract_y
_atom_site_fract_z
_atom_type_partial_charge
C1    C     C_R   0.381721 0.381178 0.500316 0.777498
C2    C     C_R   0.767422 0.571189 0.733735 0.061641
C3    C     C_R   0.813575 0.501224 0.813768 -0.171926
C4    C     C_R   0.734563 0.420896 0.749302 0.050878
C5    C     C_R   0.666553 0.422002 0.689635 0.060535
C6    C     C_R   0.684171 0.497175 0.682041 -0.136321
C7    C     C_R   0.721426 0.338612 0.740686 -0.180501
C8    C     C_R   0.639839 0.263373 0.684944 0.152968
C9    C     C_R   0.569551 0.267982 0.634502 -0.010832
C10   C     C_R   0.583190 0.346340 0.635873 -0.229360
C11   C     C_R   0.253150 0.235583 0.428083 0.132651
C12   C     C_R   0.616695 0.497863 0.617623 0.779393
C13   C     C_R   0.316862 0.314891 0.502045 -0.095683
C14   C     C_R   0.315003 0.329037 0.579162 -0.198586
C15   C     C_R   0.250315 0.263943 0.579227 -0.201227
C16   C     C_R   0.185516 0.185479 0.501727 -0.070528
C17   C     C_R   0.189479 0.174662 0.427640 0.119855
C18   C     C_3   0.147114 0.112888 0.333871 -0.473896
C19   C     C_3   0.219367 0.182779 0.334072 -0.453325
C20   C     C_R   0.235928 0.431082 0.258872 0.065633
C21   C     C_R   0.317647 0.503909 0.317058 -0.115447
C22   C     C_R   0.334540 0.579839 0.309823 0.128136
C23   C     C_R   0.619184 0.619110 0.500578 0.797132
C24   C     C_R   0.269141 0.578737 0.244497 -0.212959
C25   C     C_R   0.186350 0.502956 0.187015 -0.138145
C26   C     C_R   0.173056 0.430820 0.197578 0.092733
C27   C     C_3   0.109043 0.337882 0.161665 -0.198119
C28   C     C_3   0.180888 0.338362 0.232043 -0.524469
C29   C     C_R   0.681699 0.677912 0.423488 0.094782
C30   C     C_R   0.684272 0.687387 0.500456 -0.053732
C31   C     C_R   0.747221 0.767081 0.577194 -0.187667
C32   C     C_R   0.812440 0.830983 0.577325 -0.199213
C33   C     C_R   0.813732 0.816330 0.500398 -0.040682
C34   C     C_R   0.382000 0.500963 0.381923 0.836573
C35   C     C_R   0.745304 0.741273 0.423422 0.079452
C36   C     C_3   0.745727 0.674660 0.352832 -0.069708
C37   C     C_3   0.674932 0.605178 0.352698 -0.436057
C38   C     C_R   0.999704 0.381083 0.880942 0.799796
C39   C     C_R   0.880896 0.501313 0.882016 0.793602
C40   C     C_R   0.001784 0.618719 0.120371 0.803625
C41   C     C_R   0.118927 0.500544 0.119126 0.808098
C42   C     C_R   0.998931 0.117710 0.618018 0.785258
C43   C     C_R   0.118661 0.118445 0.500118 0.786742
C44   C     C_R   0.000876 0.881766 0.381487 0.812443
C45   C     C_R   0.789951 0.638587 0.713407 -0.133419
C46   C     C_R   0.881183 0.881212 0.499724 0.809540
C47   C     C_R   0.947474 0.226497 0.780845 0.139506
C48   C     C_R   0.999564 0.314996 0.813463 -0.101171
C49   C     C_R   0.053023 0.338250 0.777992 -0.187993
C50   C     C_R   0.052651 0.273298 0.712969 -0.208043
C51   C     C_R   0.999070 0.184664 0.682938 -0.054955
C52   C     C_R   0.947453 0.164434 0.718752 0.108095
C53   C     C_3   0.882782 0.091018 0.717099 -0.499915
C54   C     C_3   0.882529 0.161727 0.787935 -0.401114
C55   C     C_R   0.933744 0.702453 0.168348 0.065779
C56   C     C_R   0.869115 0.715284 0.768526 -0.149765
C57   C     C_R   0.003049 0.685967 0.187212 -0.066388
C58   C     C_R   0.078521 0.743413 0.268438 -0.183977
C59   C     C_R   0.078684 0.808422 0.332752 -0.175866
C60   C     C_R   0.004529 0.818516 0.314792 -0.075107
C61   C     C_R   0.935636 0.769293 0.229927 0.105443
C62   C     C_3   0.839240 0.720494 0.193681 -0.509149
C63   C     C_3   0.837440 0.645464 0.126453 -0.100366
C64   C     C_R   0.923358 0.729390 0.847894 -0.169097
C65   C     C_R   0.901666 0.664338 0.870103 0.021611
C66   C     C_R   0.828618 0.578863 0.807651 0.035874
Cu1   Cu    Cu3+1 0.500020 0.438210 0.438210 0.969000
Cu2   Cu    Cu3+1 0.499980 0.561790 0.561790 0.997948
Cu3   Cu    Cu3+1 0.938170 0.438220 0.000040 0.990383
Cu4   Cu    Cu3+1 0.061780 0.561790 0.000020 0.980499
Cu5   Cu    Cu3+1 0.061800 0.000020 0.561820 0.996880
Cu6   Cu    Cu3+1 0.938200 0.000080 0.438280 0.973109
H1    H     H_    0.250085 0.275338 0.638936 0.150961
H2    H     H_    0.151457 0.052462 0.321105 0.205232
H3    H     H_    0.081142 0.102691 0.297045 0.209277
H4    H     H_    0.265047 0.162449 0.320815 0.214893
H5    H     H_    0.195036 0.213049 0.297614 0.191327
H6    H     H_    0.283078 0.636941 0.239118 0.184013
H7    H     H_    0.051029 0.329572 0.169193 0.160574
H8    H     H_    0.165455 0.332525 0.282179 0.188306
H9    H     H_    0.746951 0.632244 0.654311 0.122379
H10   H     H_    0.207437 0.296643 0.207727 0.207799
H11   H     H_    0.748464 0.778185 0.637453 0.154230
H12   H     H_    0.862499 0.890707 0.637310 0.140172
H13   H     H_    0.721829 0.677960 0.292721 0.145921
H14   H     H_    0.610818 0.569486 0.292920 0.189502
H15   H     H_    0.695006 0.562965 0.373795 0.230869
H16   H     H_    0.095066 0.406036 0.800245 0.172774
H17   H     H_    0.094172 0.292128 0.686752 0.139683
H18   H     H_    0.820310 0.050560 0.654973 0.219084
H19   H     H_    0.885613 0.766240 0.752169 0.146553
H20   H     H_    0.911324 0.054315 0.739941 0.201082
H21   H     H_    0.819934 0.162169 0.766727 0.223645
H22   H     H_    0.910499 0.165429 0.851434 0.217586
H23   H     H_    0.135463 0.735481 0.283172 0.149073
H24   H     H_    0.135685 0.849246 0.396463 0.172803
H25   H     H_    0.822195 0.706338 0.239892 0.203148
H26   H     H_    0.806958 0.753019 0.167126 0.201827
H27   H     H_    0.980031 0.793534 0.894357 0.143177
H28   H     H_    0.774091 0.329993 0.774162 0.174726
H29   H     H_    0.528284 0.347081 0.593543 0.141289
H30   H     H_    0.363620 0.389460 0.639028 0.166119
O1    O     O_R   0.409840 0.357650 0.447820 -0.589879
O2    O     O_R   0.052170 0.462000 0.909870 -0.589794
O3    O     O_R   0.857610 0.447830 0.909870 -0.582848
O4    O     O_R   0.962000 0.552180 0.909850 -0.583266
O5    O     O_R   0.947780 0.538010 0.090190 -0.580204
O6    O     O_R   0.052160 0.642360 0.090170 -0.565841
O7    O     O_R   0.037950 0.447840 0.090220 -0.586261
O8    O     O_R   0.142340 0.552190 0.090190 -0.588200
O9    O     O_R   0.052210 0.090180 0.642410 -0.584368
O10   O     O_R   0.947830 0.090230 0.538080 -0.578885
O11   O     O_R   0.142360 0.090200 0.552220 -0.579536
O12   O     O_R   0.409810 0.462010 0.552170 -0.585498
O13   O     O_R   0.037990 0.090250 0.447890 -0.585982
O14   O     O_R   0.052170 0.909870 0.462020 -0.572208
O15   O     O_R   0.947790 0.909920 0.357690 -0.587016
O16   O     O_R   0.962010 0.909850 0.552210 -0.567302
O17   O     O_R   0.857640 0.909910 0.447880 -0.586526
O18   O     O_R   0.590190 0.447820 0.538000 -0.583531
O19   O     O_R   0.590150 0.552180 0.642350 -0.579970
O20   O     O_R   0.590190 0.537990 0.447830 -0.586618
O21   O     O_R   0.590160 0.642350 0.552180 -0.572727
O22   O     O_R   0.409850 0.447820 0.357650 -0.584102
O23   O     O_R   0.409810 0.552180 0.462000 -0.560723
O24   O     O_R   0.947790 0.357650 0.909890 -0.587694
C67   C     C_1   0.483735 0.192309 0.578343 0.295163
N1    N     N_1   0.414759 0.131737 0.533239 -0.258210
I1    I     I_    0.457591 0.695533 0.391454 -0.345461
C68   C     C_1   0.088461 0.282229 0.073728 0.296001
N2    N     N_1   0.072373 0.238562 0.004555 -0.302514
I2    I     I_    0.864386 0.668754 0.392009 -0.364937
C69   C     C_1   0.811852 0.566587 0.134425 0.313183
N3    N     N_1   0.791748 0.504658 0.140782 -0.242174
C70   C     C_1   0.790157 0.626687 0.037545 0.259799
N4    N     N_1   0.752886 0.611777 0.967528 -0.281315
C71   C     C_1   0.942434 0.696694 0.961201 0.263872
N5    N     N_1   0.975685 0.727043 0.035085 -0.286406
I3    I     I_    0.626864 0.144515 0.679635 -0.364430

loop_
_geom_bond_atom_site_label_1
_geom_bond_atom_site_label_2
_ccdc_geom_bond_type
C39   O4    A    
Cu6   O10   S    
C18   H3    S    
C35   C36   S    
C58   H23   S    
Cu1   O22   S    
Cu3   O5    S    
Cu1   O1    S    
C70   N4    T    
C53   C54   S    
Cu6   O13   S    
C11   C19   S    
C26   C27   S    
C9    C67   S    
C8    I3    S    
C62   H26   S    
C63   C69   S    
C36   C37   S    
C27   H7    S    
C36   I2    S    
C6    C12   S    
C5    C6    A    
Cu4   O2    S    
C14   H30   S    
C15   C16   A    
C31   H11   S    
C46   O16   A    
C18   C19   S    
C19   H5    S    
C42   O10   A    
C54   H21   S    
C38   O2    A    
Cu4   O8    S    
C43   O13   A    
C12   O18   A    
Cu3   O7    S    
C64   H27   S    
C12   O19   A    
C47   C48   A    
C45   C56   A    
C8    C9    A    
C55   C63   S    
Cu6   O15   S    
C46   O17   A    
C56   C64   A    
Cu1   O18   S    
C1    O1    A    
C38   C48   S    
C61   C62   S    
C42   C51   S    
C40   O6    A    
C65   C71   S    
Cu5   O11   S    
C3    C39   S    
C59   C60   A    
C18   H2    S    
C41   O7    A    
C21   C22   A    
C33   C46   S    
C49   H16   S    
C19   H4    S    
C2    C6    A    
C53   H20   S    
C4    C7    A    
Cu2   O21   S    
C38   O24   A    
C17   C18   S    
C23   O20   A    
C56   H19   S    
C2    C45   A    
C32   H12   S    
C7    H28   S    
C28   H10   S    
Cu1   Cu2   S    
C23   C30   S    
C37   H14   S    
C7    C8    A    
C24   C25   A    
Cu4   O4    S    
C25   C41   S    
Cu3   O3    S    
C16   C17   A    
C23   O21   A    
C21   C34   S    
C20   C28   S    
C58   C59   A    
C51   C52   A    
Cu5   O9    S    
C60   C61   A    
C63   C70   S    
C42   O9    A    
C29   C30   A    
C62   H25   S    
C50   H17   S    
C31   C32   A    
C62   C63   S    
C50   C51   A    
C16   C43   S    
C40   O5    A    
C24   H6    S    
C48   C49   A    
C15   H1    S    
Cu3   O24   S    
C49   C50   A    
C41   O8    A    
C47   C54   S    
C22   I1    S    
C69   N3    T    
C22   C24   A    
C3    C66   A    
C1    C13   S    
C1    O12   A    
C3    C4    A    
Cu1   O20   S    
C53   H18   S    
C52   C53   S    
C9    C10   A    
C39   O3    A    
C11   C17   A    
C34   O22   A    
C40   C57   S    
Cu5   O16   S    
C37   H15   S    
C10   H29   S    
C45   H9    S    
C4    C5    A    
C2    C66   A    
Cu2   O19   S    
C47   C52   A    
C36   H13   S    
C71   N5    T    
C29   C35   A    
C64   C65   A    
C55   C57   A    
C68   N2    T    
C25   C26   A    
Cu5   Cu6   S    
Cu4   O6    S    
C32   C33   A    
C11   C13   A    
C57   C58   A    
C30   C31   A    
C20   C26   A    
C44   O15   A    
C44   C60   S    
C34   O23   A    
C55   C61   A    
Cu6   O17   S    
C33   C35   A    
Cu5   O14   S    
Cu3   Cu4   S    
C28   H8    S    
C54   H22   S    
C5    C10   A    
C20   C21   A    
C44   O14   A    
C65   C66   A    
C59   H24   S    
C29   C37   S    
C27   C28   S    
C27   C68   S    
C14   C15   A    
C13   C14   A    
Cu2   O23   S    
C43   O11   A    
C67   N1    T    
Cu2   O12   S    
