data_mof_unit_60899.cif
_audit_creation_date              2012-12-10T18:01:23-0500
_audit_creation_method            fapswitch 2.2
_symmetry_space_group_name_H-M    P1
_symmetry_Int_Tables_number       1
_space_group_crystal_system       triclinic
_cell_length_a                    18.316722
_cell_length_b                    18.371761
_cell_length_c                    25.849284
_cell_angle_alpha                 90.000049
_cell_angle_beta                  90.000045
_cell_angle_gamma                 89.999116
_cell_volume                      8698.55390272

loop_
_atom_site_label
_atom_site_type_symbol
_atom_type_description
_atom_site_fract_x
_atom_site_fract_y
_atom_site_fract_z
_atom_type_partial_charge
C1    C     C_R   0.859892 0.140051 0.749950 0.522280
C2    C     C_R   0.196166 0.196125 0.250021 -0.019551
C3    C     C_R   0.244226 0.691055 0.216230 -0.128478
C4    C     C_R   0.196166 0.196125 0.749979 -0.019551
C5    C     C_R   0.803819 0.196109 0.749997 -0.018693
C6    C     C_R   0.303820 0.696110 0.750005 -0.019462
C7    C     C_R   0.696164 0.696127 0.750022 -0.018820
C8    C     C_R   0.696165 0.696126 0.249979 -0.018819
C9    C     C_R   0.303820 0.696110 0.249995 -0.019462
C10   C     C_R   0.809766 0.255293 0.216147 -0.070142
C11   C     C_R   0.190119 0.255409 0.216262 -0.077490
C12   C     C_R   0.190122 0.255407 0.783740 -0.077491
C13   C     C_R   0.140103 0.140056 0.749944 0.518714
C14   C     C_R   0.809755 0.255283 0.783863 -0.070146
C15   C     C_R   0.309647 0.755175 0.716034 -0.070256
C16   C     C_R   0.689947 0.755581 0.716430 -0.077409
C17   C     C_R   0.689980 0.755548 0.283603 -0.077417
C18   C     C_R   0.309647 0.755175 0.283966 -0.070256
C19   C     C_R   0.256562 0.808849 0.715668 0.384129
C20   C     C_R   0.743019 0.809266 0.716074 0.380253
C21   C     C_R   0.743054 0.809232 0.283960 0.380246
C22   C     C_R   0.256562 0.808849 0.284332 0.384128
C23   C     C_R   0.756686 0.308973 0.215786 0.382389
C24   C     C_R   0.140103 0.140056 0.250056 0.518715
C25   C     C_R   0.243199 0.309087 0.215900 0.382018
C26   C     C_R   0.243202 0.309084 0.784103 0.382017
C27   C     C_R   0.756676 0.308962 0.784225 0.382386
C28   C     C_R   0.196648 0.803927 0.749588 0.038985
C29   C     C_R   0.803324 0.803955 0.749616 0.041600
C30   C     C_R   0.803327 0.803953 0.250386 0.041600
C31   C     C_R   0.196648 0.803927 0.250412 0.038986
C32   C     C_R   0.696653 0.303933 0.249593 0.040708
C33   C     C_R   0.303334 0.303946 0.249607 0.039888
C34   C     C_R   0.303334 0.303945 0.750393 0.039888
C35   C     C_R   0.859892 0.140051 0.250050 0.522274
C36   C     C_R   0.696653 0.303932 0.750407 0.040707
C37   C     C_R   0.020054 0.937926 0.973321 -0.204031
C38   C     C_R   0.020054 0.937926 0.026679 -0.204032
C39   C     C_R   0.520149 0.437960 0.473321 -0.204010
C40   C     C_R   0.520149 0.437960 0.526679 -0.204011
C41   C     C_R   0.998004 0.000331 0.053457 -0.015693
C42   C     C_R   0.998004 0.000331 0.946543 -0.015692
C43   C     C_R   0.498006 0.500329 0.553457 -0.015034
C44   C     C_R   0.498006 0.500329 0.446543 -0.015034
C45   C     C_R   0.974701 0.062572 0.026682 0.417514
C46   C     C_R   0.359894 0.640052 0.249948 0.523897
C47   C     C_R   0.974701 0.062572 0.973318 0.417513
C48   C     C_R   0.474610 0.562532 0.526682 0.417877
C49   C     C_R   0.474610 0.562532 0.473318 0.417876
C50   C     C_R   0.140198 0.859929 0.749859 0.524401
C51   C     C_R   0.859792 0.859939 0.749869 0.528857
C52   C     C_R   0.859793 0.859938 0.250132 0.528857
C53   C     C_R   0.140198 0.859928 0.250140 0.524404
C54   C     C_R   0.640201 0.359931 0.249862 0.526548
C55   C     C_R   0.359796 0.359934 0.249865 0.526709
C56   C     C_R   0.359796 0.359934 0.750135 0.526710
C57   C     C_R   0.640104 0.640055 0.249945 0.517105
C58   C     C_R   0.640200 0.359931 0.750138 0.526548
C59   C     C_R   0.999430 0.000070 0.890861 0.539020
C60   C     C_R   0.999430 0.000070 0.109138 0.539017
C61   C     C_R   0.499430 0.500070 0.390862 0.539019
C62   C     C_R   0.499430 0.500070 0.609138 0.539018
C63   C     C_R   0.999941 0.000098 0.608649 0.558200
C64   C     C_R   0.999941 0.000098 0.391351 0.558206
C65   C     C_R   0.500059 0.500098 0.108649 0.558330
C66   C     C_R   0.500059 0.500098 0.891351 0.558333
C67   C     C_3   0.920508 0.996557 0.529699 -0.290488
C68   C     C_R   0.640104 0.640055 0.750054 0.517104
C69   C     C_3   0.042577 0.934125 0.529883 -0.297267
C70   C     C_3   0.042577 0.934125 0.470117 -0.297266
C71   C     C_3   0.920508 0.996557 0.470301 -0.290484
C72   C     C_3   0.457434 0.434121 0.029883 -0.298621
C73   C     C_3   0.579492 0.496568 0.029699 -0.289418
C74   C     C_3   0.579492 0.496568 0.970301 -0.289416
C75   C     C_3   0.457434 0.434121 0.970117 -0.298621
C76   C     C_3   0.036064 0.071878 0.530137 0.760344
C77   C     C_3   0.036064 0.071878 0.469863 0.760343
C78   C     C_3   0.463925 0.571874 0.030137 0.760053
C79   C     C_R   0.359894 0.640052 0.750052 0.523896
C80   C     C_3   0.463925 0.571874 0.969863 0.760053
C81   C     C_3   0.999872 0.000851 0.550880 -0.008231
C82   C     C_3   0.999872 0.000851 0.449120 -0.008235
C83   C     C_3   0.500128 0.500852 0.050880 -0.007819
C84   C     C_3   0.500128 0.500852 0.949120 -0.007821
C85   C     C_R   0.190960 0.744654 0.783559 -0.179135
C86   C     C_R   0.809391 0.744305 0.783219 -0.181108
C87   C     C_R   0.809362 0.744335 0.216752 -0.181102
C88   C     C_R   0.190960 0.744654 0.216440 -0.179132
C89   C     C_R   0.690847 0.244543 0.283450 -0.182751
C90   C     C_R   0.803819 0.196109 0.250004 -0.018691
C91   C     C_R   0.309231 0.244464 0.283376 -0.177380
C92   C     C_R   0.309229 0.244466 0.716622 -0.177378
C93   C     C_R   0.690856 0.244551 0.716541 -0.182747
C94   C     C_R   0.744110 0.190940 0.283657 -0.138707
C95   C     C_R   0.255966 0.190864 0.283586 -0.127538
C96   C     C_R   0.255964 0.190867 0.716412 -0.127536
C97   C     C_R   0.744119 0.190949 0.716334 -0.138695
C98   C     C_R   0.244226 0.691055 0.783769 -0.128480
C99   C     C_R   0.756130 0.690702 0.783425 -0.137855
C100  C     C_R   0.756100 0.690732 0.216546 -0.137841
F1    F     F_    0.998084 0.131942 0.548474 -0.561751
F2    F     F_    0.734905 0.865968 0.682870 -0.593956
F3    F     F_    0.734975 0.865898 0.317200 -0.593965
F4    F     F_    0.264254 0.865133 0.317943 -0.581116
F5    F     F_    0.764508 0.365385 0.182298 -0.589903
F6    F     F_    0.235271 0.365604 0.182514 -0.585181
F7    F     F_    0.235277 0.365598 0.817492 -0.585183
F8    F     F_    0.764487 0.365364 0.817722 -0.589907
F9    F     F_    0.950607 0.122855 0.051898 -0.547910
F10   F     F_    0.950607 0.122856 0.948102 -0.547910
F11   F     F_    0.450420 0.622772 0.551902 -0.547024
F12   F     F_    0.107267 0.077028 0.548164 -0.534856
F13   F     F_    0.450420 0.622772 0.448098 -0.547025
F14   F     F_    0.107267 0.077028 0.451836 -0.534855
F15   F     F_    0.998084 0.131942 0.451526 -0.561750
F16   F     F_    0.392721 0.577015 0.048164 -0.536924
F17   F     F_    0.501895 0.631943 0.048474 -0.561410
F18   F     F_    0.501895 0.631943 0.951526 -0.561407
F19   F     F_    0.392721 0.577015 0.951836 -0.536924
F20   F     F_    0.264254 0.865134 0.682057 -0.581114
H1    H     H_    0.887745 0.043528 0.543880 0.202636
H2    H     H_    0.017211 0.882916 0.544255 0.136138
H3    H     H_    0.017211 0.882916 0.455745 0.136144
H4    H     H_    0.893440 0.946067 0.456153 0.164826
H5    H     H_    0.482808 0.382916 0.044255 0.136273
H6    H     H_    0.606568 0.446082 0.043847 0.167638
H7    H     H_    0.606568 0.446082 0.956153 0.167643
H8    H     H_    0.482808 0.382916 0.955745 0.136276
H9    H     H_    0.145417 0.739603 0.810044 0.166417
H10   H     H_    0.855244 0.738945 0.809402 0.164464
H11   H     H_    0.855189 0.739000 0.190543 0.164465
H12   H     H_    0.099899 0.934979 0.544127 0.212302
H13   H     H_    0.145417 0.739603 0.189956 0.166420
H14   H     H_    0.645209 0.239397 0.309844 0.162992
H15   H     H_    0.354948 0.239239 0.309692 0.167967
H16   H     H_    0.354944 0.239243 0.690303 0.167969
H17   H     H_    0.645226 0.239414 0.690140 0.162993
H18   H     H_    0.738499 0.145607 0.310151 0.175719
H19   H     H_    0.261653 0.145456 0.310006 0.189301
H20   H     H_    0.261649 0.145460 0.689989 0.189303
H21   H     H_    0.738515 0.145624 0.689832 0.175728
H22   H     H_    0.238713 0.645818 0.810357 0.188834
H23   H     H_    0.099899 0.934979 0.455873 0.212302
H24   H     H_    0.761957 0.645156 0.809710 0.176327
H25   H     H_    0.761901 0.645211 0.190235 0.176326
H26   H     H_    0.238713 0.645818 0.189642 0.188835
H27   H     H_    0.855504 0.260208 0.189809 0.189121
H28   H     H_    0.144299 0.260408 0.190005 0.182893
H29   H     H_    0.144305 0.260403 0.810000 0.182893
H30   H     H_    0.855486 0.260191 0.810208 0.189126
H31   H     H_    0.355291 0.759996 0.689605 0.190174
H32   H     H_    0.643990 0.760716 0.690306 0.181791
H33   H     H_    0.644050 0.760657 0.309753 0.181792
H34   H     H_    0.887745 0.043528 0.456120 0.202637
H35   H     H_    0.355290 0.759995 0.310395 0.190175
H36   H     H_    0.038229 0.889561 0.953081 0.175169
H37   H     H_    0.038229 0.889561 0.046919 0.175168
H38   H     H_    0.538399 0.389627 0.453079 0.172888
H39   H     H_    0.538399 0.389627 0.546921 0.172887
H40   H     H_    0.400113 0.434968 0.044127 0.209890
H41   H     H_    0.612247 0.543543 0.043881 0.203498
H42   H     H_    0.612247 0.543543 0.956120 0.203501
H43   H     H_    0.400113 0.434968 0.955873 0.209891
H44   H     H_    0.893440 0.946067 0.543847 0.164808
O1    O     O_3   0.000000 1.000000 0.749970 -0.483291
O2    O     O_R   0.646190 0.585480 0.219360 -0.529171
O3    O     O_R   0.646190 0.585480 0.780640 -0.529177
O4    O     O_R   0.353810 0.585480 0.780640 -0.516596
O5    O     O_R   0.146170 0.914530 0.719320 -0.465505
O6    O     O_R   0.853830 0.914530 0.719320 -0.465957
O7    O     O_R   0.853830 0.914530 0.280680 -0.465958
O8    O     O_R   0.146170 0.914530 0.280680 -0.465505
O9    O     O_R   0.646170 0.414530 0.219320 -0.466086
O10   O     O_R   0.353830 0.414530 0.219320 -0.465384
O11   O     O_R   0.353830 0.414530 0.780680 -0.465384
O12   O     O_3   0.000000 0.000000 0.250030 -0.483291
O13   O     O_R   0.646170 0.414530 0.780680 -0.466090
O14   O     O_R   0.085450 0.146180 0.780600 -0.544858
O15   O     O_R   0.914550 0.146180 0.780600 -0.530616
O16   O     O_R   0.914550 0.146180 0.219400 -0.530615
O17   O     O_R   0.085450 0.146180 0.219400 -0.544858
O18   O     O_R   0.585450 0.646180 0.280600 -0.542710
O19   O     O_R   0.414550 0.646180 0.280600 -0.532821
O20   O     O_R   0.414550 0.646180 0.719400 -0.532824
O21   O     O_R   0.585450 0.646180 0.719400 -0.542711
O22   O     O_R   0.914560 0.853830 0.780620 -0.562332
O23   O     O_3   0.500000 0.500000 0.249970 -0.483312
O24   O     O_R   0.085440 0.853830 0.780620 -0.565868
O25   O     O_R   0.085440 0.853830 0.219380 -0.565863
O26   O     O_R   0.914560 0.853830 0.219380 -0.562332
O27   O     O_R   0.414560 0.353830 0.280620 -0.562393
O28   O     O_R   0.585440 0.353830 0.280620 -0.565733
O29   O     O_R   0.585440 0.353830 0.719380 -0.565731
O30   O     O_R   0.414560 0.353830 0.719380 -0.562391
O31   O     O_R   0.000000 0.060730 0.866830 -0.468084
O32   O     O_R   1.000000 0.060730 0.133170 -0.468083
O33   O     O_R   0.500000 0.560730 0.366830 -0.468578
O34   O     O_3   0.500000 0.500000 0.750030 -0.483312
O35   O     O_R   0.500000 0.560730 0.633170 -0.468576
O36   O     O_R   0.939250 0.000010 0.633130 -0.542689
O37   O     O_R   0.060750 0.000010 0.633130 -0.480567
O38   O     O_R   0.060750 0.000010 0.366870 -0.480567
O39   O     O_R   0.939250 0.000010 0.366870 -0.542671
O40   O     O_R   0.439250 0.500010 0.133130 -0.481977
O41   O     O_R   0.560750 0.500010 0.133130 -0.541235
O42   O     O_R   0.560750 0.500010 0.866870 -0.541227
O43   O     O_R   0.439250 0.500010 0.866870 -0.481976
O44   O     O_R   0.000000 0.939270 0.866820 -0.557290
O45   O     O_R   0.853810 0.085480 0.719360 -0.529701
O46   O     O_R   0.000000 0.939270 0.133180 -0.557296
O47   O     O_R   0.500000 0.439270 0.366820 -0.556769
O48   O     O_R   0.500000 0.439270 0.633180 -0.556771
O49   O     O_R   0.146190 0.085480 0.719360 -0.516051
O50   O     O_R   0.146190 0.085480 0.280640 -0.516052
O51   O     O_R   0.853810 0.085480 0.280640 -0.529719
O52   O     O_R   0.353810 0.585480 0.219360 -0.516594
Zn1   Zn    Zn3+2 0.086750 0.999990 0.706190 1.039691
Zn2   Zn    Zn3+2 1.000000 0.086770 0.206250 1.008411
Zn3   Zn    Zn3+2 0.500000 0.586770 0.293750 1.008189
Zn4   Zn    Zn3+2 0.500000 0.586770 0.706250 1.008188
Zn5   Zn    Zn3+2 0.000000 0.913230 0.793740 0.934398
Zn6   Zn    Zn3+2 1.000000 0.913230 0.206260 0.934398
Zn7   Zn    Zn3+2 0.500000 0.413230 0.293740 0.934676
Zn8   Zn    Zn3+2 0.500000 0.413230 0.706260 0.934678
Zn9   Zn    Zn3+2 0.913250 0.999990 0.706190 1.004870
Zn10  Zn    Zn3+2 0.913250 0.999990 0.293810 1.004869
Zn11  Zn    Zn3+2 0.086750 0.999990 0.293810 1.039696
Zn12  Zn    Zn3+2 0.586750 0.499990 0.206190 1.002201
Zn13  Zn    Zn3+2 0.413250 0.499990 0.206190 1.042441
Zn14  Zn    Zn3+2 0.413250 0.499990 0.793810 1.042442
Zn15  Zn    Zn3+2 0.586750 0.499990 0.793810 1.002200
Zn16  Zn    Zn3+2 0.000000 0.086770 0.793750 1.008415

loop_
_geom_bond_atom_site_label_1
_geom_bond_atom_site_label_2
_ccdc_geom_bond_type
C44   C49   A    
C59   O44   A    
O5    Zn1   S    
C18   H35   S    
C34   C56   S    
O46   Zn6   S    
O21   Zn4   S    
C93   C97   A    
C73   C74   S    
C40   H39   S    
O16   Zn2   S    
C92   C96   A    
C80   C84   S    
C50   O24   A    
C15   H31   S    
O1    Zn5   S    
O23   Zn3   S    
C79   O20   A    
C68   O21   A    
C15   C19   A    
O18   Zn3   S    
C70   H23   S    
O42   Zn15  S    
O12   Zn6   S    
C63   C81   S    
C1    C5    S    
C69   H2    S    
C54   O9    A    
C2    C95   A    
C88   H13   S    
C36   C58   S    
C89   C94   A    
C33   C91   A    
C29   C51   S    
C66   O42   A    
O8    Zn11  S    
C45   F9    S    
C75   C84   S    
C65   C83   S    
C65   O41   A    
C11   C25   A    
C87   H11   S    
C13   O14   A    
C23   F5    S    
C4    C13   S    
C22   F4    S    
C63   O36   A    
O41   Zn12  S    
C75   H43   S    
C75   H8    S    
C61   O47   A    
C13   O49   A    
O40   Zn13  S    
C10   C23   A    
C73   H41   S    
C85   C98   A    
C53   O8    A    
C85   H9    S    
C6    C15   A    
C4    C96   A    
C24   O50   A    
C36   C93   A    
C26   C34   A    
C40   C43   A    
C11   H28   S    
C32   C89   A    
O1    Zn16  S    
O19   Zn3   S    
C53   O25   A    
C90   C94   A    
C89   H14   S    
O23   Zn13  S    
C14   C27   A    
C4    C12   A    
C43   C48   A    
O50   Zn11  S    
C67   C71   S    
O1    Zn1   S    
C10   H27   S    
O36   Zn9   S    
C71   C82   S    
O24   Zn5   S    
C45   C47   A    
C3    C88   A    
C80   F19   S    
C17   H33   S    
C9    C46   S    
C78   C83   S    
O11   Zn14  S    
O12   Zn2   S    
C98   H22   S    
C27   F8    S    
C76   F12   S    
C37   H36   S    
C26   F7    S    
C92   H16   S    
O45   Zn9   S    
C72   C75   S    
C2    C11   A    
C67   H1    S    
C52   O7    A    
C32   C54   S    
C57   O18   A    
C25   F6    S    
C37   C42   A    
C78   F16   S    
C20   C29   A    
O29   Zn8   S    
C80   F18   S    
C22   C31   A    
C56   O11   A    
C1    O45   A    
C6    C98   A    
C99   H24   S    
C78   F17   S    
C69   C81   S    
C76   C77   S    
C38   H37   S    
C38   C41   A    
C61   O33   A    
C39   C40   A    
C74   H42   S    
C28   C50   S    
O34   Zn15  S    
C86   H10   S    
C57   O2    A    
C7    C99   A    
C59   O31   A    
O44   Zn5   S    
C71   H34   S    
C66   C84   S    
C17   C21   A    
C12   C26   A    
C94   H18   S    
C55   O27   A    
C46   O19   A    
C76   C81   S    
O34   Zn8   S    
C68   O3    A    
C55   O10   A    
C96   H20   S    
C37   C38   A    
C19   C28   A    
C8    C57   S    
C71   H4    S    
C74   H7    S    
O26   Zn6   S    
O7    Zn10  S    
C100  H25   S    
C16   C20   A    
O47   Zn7   S    
C14   H30   S    
O1    Zn9   S    
C49   F13   S    
C29   C86   A    
C33   C55   S    
C16   H32   S    
C52   O26   A    
C31   C53   S    
C86   C99   A    
C97   H21   S    
C64   C82   S    
C5    C14   A    
C39   C44   A    
C54   O28   A    
C56   O30   A    
C7    C16   A    
C3    C9    A    
O22   Zn5   S    
C5    C97   A    
C19   F20   S    
C67   C81   S    
C46   O52   A    
C39   H38   S    
C2    C24   S    
C79   O4    A    
C77   F14   S    
O15   Zn16  S    
O27   Zn7   S    
C28   C85   A    
C60   O32   A    
O30   Zn8   S    
C87   C100  A    
O48   Zn8   S    
C76   F1    S    
C62   O48   A    
O12   Zn11  S    
C64   O38   A    
C48   C49   A    
O49   Zn1   S    
C31   C88   A    
C63   O37   A    
C24   O17   A    
O25   Zn6   S    
C12   H29   S    
C64   O39   A    
C51   O6    A    
O34   Zn4   S    
O35   Zn4   S    
C41   C60   S    
C74   C84   S    
O9    Zn12  S    
C42   C59   S    
C62   O35   A    
O32   Zn2   S    
O34   Zn14  S    
O43   Zn14  S    
O3    Zn15  S    
O38   Zn11  S    
C44   C61   S    
C47   F10   S    
O12   Zn10  S    
C21   C30   A    
C35   O16   A    
C58   O29   A    
C95   H19   S    
C8    C17   A    
C72   H40   S    
C72   H5    S    
C27   C36   A    
C23   C32   A    
O51   Zn10  S    
C7    C68   S    
C18   C22   A    
C8    C100  A    
O37   Zn1   S    
O28   Zn7   S    
C51   O22   A    
O33   Zn3   S    
C66   O43   A    
C1    O15   A    
C20   F2    S    
C6    C79   S    
C65   O40   A    
O23   Zn7   S    
C77   C82   S    
C69   H12   S    
O23   Zn12  S    
O4    Zn14  S    
C60   O46   A    
O31   Zn16  S    
C58   O13   A    
C78   C80   S    
C42   C47   A    
O39   Zn10  S    
C69   C70   S    
C70   C82   S    
O10   Zn13  S    
C34   C92   A    
C72   C83   S    
C93   H17   S    
C50   O5    A    
C70   H3    S    
C91   C95   A    
C21   F3    S    
C35   C90   S    
C9    C18   A    
O20   Zn4   S    
C48   F11   S    
C91   H15   S    
C10   C90   A    
C3    H26   S    
O2    Zn12  S    
O13   Zn15  S    
O6    Zn9   S    
O17   Zn2   S    
C41   C45   A    
O14   Zn16  S    
C30   C87   A    
C77   F15   S    
C35   O51   A    
C73   C83   S    
C67   H44   S    
O52   Zn13  S    
C73   H6    S    
C43   C62   S    
C25   C33   A    
C30   C52   S    
