data_mof_unit_5773.cif
_audit_creation_date              2012-12-11T15:08:34-0500
_audit_creation_method            fapswitch 2.2
_symmetry_space_group_name_H-M    P1
_symmetry_Int_Tables_number       1
_space_group_crystal_system       triclinic
_cell_length_a                    27.000747
_cell_length_b                    7.08278
_cell_length_c                    11.876008
_cell_angle_alpha                 90.132238
_cell_angle_beta                  103.446372
_cell_angle_gamma                 90.229209
_cell_volume                      2208.88464294

loop_
_atom_site_label
_atom_site_type_symbol
_atom_type_description
_atom_site_fract_x
_atom_site_fract_y
_atom_site_fract_z
_atom_type_partial_charge
O1    O     O_R   0.437360 0.505910 0.042120 -0.517218
O2    O     O_R   0.562640 0.005910 0.957880 -0.547321
O3    O     O_R   0.542480 0.176660 0.157100 -0.538359
O4    O     O_R   0.457520 0.676660 0.842900 -0.520420
C1    C     C_R   0.556795 0.344678 0.198453 0.777768
C2    C     C_R   0.443223 0.844160 0.801486 0.780741
O5    O     O_R   0.436520 0.176250 0.054800 -0.544987
O6    O     O_R   0.563480 0.676250 0.945200 -0.515728
O7    O     O_R   0.455920 0.005040 0.854840 -0.541600
O8    O     O_R   0.544080 0.505040 0.145160 -0.522419
C3    C     C_R   0.417235 0.343977 0.061914 0.774710
C4    C     C_R   0.582643 0.845136 0.937718 0.778013
O9    O     O_3   0.506490 0.338900 0.934520 -0.368686
O10   O     O_3   0.493510 0.838900 0.065480 -0.366417
V1    V     V_3+5 0.498800 0.064400 0.012150 1.592465
V2    V     V_3+5 0.501200 0.564400 0.987850 1.656713
C5    C     C_R   0.677082 0.921824 0.756636 -0.103332
C6    C     C_R   0.322438 0.296997 0.244861 -0.106760
H1    H     H_    0.596791 0.951630 0.732223 0.200957
H2    H     H_    0.402454 0.259315 0.270012 0.202101
H3    H     H_    0.674712 0.958237 0.667237 0.191930
H4    H     H_    0.324665 0.265872 0.334918 0.192768
C7    C     C_R   0.631541 0.857019 0.904314 -0.069024
C8    C     C_R   0.368394 0.347404 0.096131 -0.067587
C9    C     C_R   0.866063 0.874225 0.202623 -0.095625
C10   C     C_R   0.133805 0.340948 0.797727 -0.096027
C11   C     C_R   0.820854 0.897337 0.236736 -0.105845
C12   C     C_R   0.178788 0.308322 0.764243 -0.102915
C13   C     C_R   0.775021 0.900306 0.154539 -0.097034
C14   C     C_R   0.224590 0.304223 0.846564 -0.097045
C15   C     C_R   0.772667 0.866661 0.036034 0.094325
C16   C     C_R   0.227207 0.345300 0.964343 0.092939
C17   C     C_R   0.819287 0.862890 0.998304 -0.035362
C18   C     C_R   0.180639 0.357477 0.001853 -0.035510
C19   C     C_R   0.724928 0.856996 0.953682 -0.007577
C20   C     C_R   0.274999 0.354834 0.046566 -0.008348
C21   C     C_R   0.723921 0.887831 0.835051 0.025925
C22   C     C_R   0.275789 0.330370 0.165683 0.026274
C23   C     C_R   0.769356 0.884153 0.796603 0.204428
C24   C     C_R   0.230315 0.339188 0.203848 0.204646
C25   C     C_R   0.816536 0.866583 0.876499 -0.162685
C26   C     C_R   0.183331 0.359697 0.123636 -0.162895
C27   C     C_R   0.677698 0.817890 0.983989 0.171523
C28   C     C_R   0.322471 0.386876 0.015618 0.171327
C29   C     C_R   0.631896 0.916391 0.792931 -0.154416
C30   C     C_R   0.367623 0.295412 0.208624 -0.153121
C31   C     C_R   0.866319 0.862597 0.085174 -0.071871
C32   C     C_R   0.133655 0.360125 0.914883 -0.071955
H5    H     H_    0.901512 0.875772 0.268197 0.147970
H6    H     H_    0.098381 0.341396 0.732082 0.147433
H7    H     H_    0.741773 0.939634 0.184699 0.166025
H8    H     H_    0.257531 0.258394 0.817294 0.165332
H9    H     H_    0.821421 0.918946 0.327334 0.165396
H10   H     H_    0.178045 0.281093 0.674093 0.164758
C33   C     C_R   0.091818 0.861300 0.312311 -0.074604
C34   C     C_R   0.908244 0.359717 0.687703 -0.074875
C35   C     C_R   0.408975 0.850832 0.685019 -0.157052
C36   C     C_R   0.591149 0.353332 0.314754 -0.155683
C37   C     C_R   0.106090 0.859382 0.521010 0.259995
C38   C     C_R   0.894062 0.351069 0.479080 0.260202
C39   C     C_R   0.072900 0.862229 0.411809 -0.141198
C40   C     C_R   0.927222 0.354806 0.588325 -0.141413
C41   C     C_R   0.144282 0.856390 0.321164 -0.162165
C42   C     C_R   0.855768 0.363193 0.678677 -0.162961
C43   C     C_R   0.179376 0.852115 0.430413 0.089399
C44   C     C_R   0.820722 0.363011 0.569344 0.088883
C45   C     C_R   0.159415 0.855922 0.531303 0.067159
C46   C     C_R   0.840723 0.353849 0.468627 0.067050
C47   C     C_R   0.233472 0.846562 0.442371 0.133162
C48   C     C_R   0.766636 0.369952 0.557185 0.132248
C49   C     C_R   0.267041 0.853820 0.554878 0.121986
C50   C     C_R   0.733096 0.357487 0.444841 0.122049
C51   C     C_R   0.245263 0.858910 0.652054 -0.162009
C52   C     C_R   0.754901 0.346225 0.347865 -0.161551
C53   C     C_R   0.192953 0.857616 0.640364 -0.167867
C54   C     C_R   0.807214 0.346935 0.359608 -0.166922
C55   C     C_R   0.255059 0.832462 0.345360 -0.118540
C56   C     C_R   0.745035 0.390298 0.653823 -0.117709
C57   C     C_R   0.307250 0.829023 0.356920 -0.128452
C58   C     C_R   0.692841 0.393382 0.642203 -0.126732
C59   C     C_R   0.341032 0.839573 0.465697 0.000667
C60   C     C_R   0.659081 0.376681 0.533703 -0.000118
C61   C     C_R   0.321230 0.852763 0.566503 0.071031
C62   C     C_R   0.678909 0.358966 0.433162 0.071372
C63   C     C_R   0.394339 0.835737 0.475223 0.258392
C64   C     C_R   0.605765 0.378221 0.524203 0.258463
C65   C     C_R   0.428029 0.839298 0.585035 0.272733
C66   C     C_R   0.572060 0.368665 0.414524 0.273132
C67   C     C_R   0.356495 0.862783 0.675314 -0.205303
C68   C     C_R   0.643669 0.343620 0.324600 -0.205918
H11   H     H_    0.179181 0.860348 0.718892 0.183795
H12   H     H_    0.821015 0.339698 0.281210 0.184126
H13   H     H_    0.344683 0.878282 0.755296 0.153891
H14   H     H_    0.655509 0.323420 0.245000 0.153542
H15   H     H_    0.320552 0.816865 0.278141 0.175638
H16   H     H_    0.679516 0.410166 0.720679 0.176363
H17   H     H_    0.032149 0.865960 0.404444 0.157377
H18   H     H_    0.967997 0.353688 0.595827 0.157168
H19   H     H_    0.156120 0.859673 0.240668 0.098579
H20   H     H_    0.843896 0.364423 0.759159 0.098808
H21   H     H_    0.267505 0.862114 0.739796 0.156832
H22   H     H_    0.732683 0.338419 0.260214 0.157575
H23   H     H_    0.232702 0.820367 0.257952 0.122510
H24   H     H_    0.767386 0.407411 0.740913 0.123387
O11   O     O_R   0.955980 0.206520 0.854760 -0.530747
O12   O     O_R   0.044020 0.706520 0.145240 -0.528976
O13   O     O_R   0.063490 0.536770 0.945200 -0.535577
O14   O     O_R   0.936510 0.036770 0.054800 -0.535322
C69   C     C_R   0.083314 0.368920 0.941103 0.688838
C70   C     C_R   0.916675 0.868630 0.058842 0.688936
O15   O     O_R   0.957530 0.536190 0.842880 -0.527515
O16   O     O_R   0.042470 0.036190 0.157120 -0.529254
O17   O     O_R   0.937350 0.707210 0.042130 -0.537655
O18   O     O_R   0.062650 0.207210 0.957870 -0.537559
C71   C     C_R   0.943150 0.367551 0.802210 0.706905
C72   C     C_R   0.056893 0.868219 0.197795 0.707023
O19   O     O_3   0.993540 0.373870 0.065440 -0.357879
O20   O     O_3   0.006460 0.873870 0.934560 -0.358007
V3    V     V_3+5 0.001200 0.648440 0.987860 1.565792
V4    V     V_3+5 0.998800 0.148440 0.012140 1.564578
Br1   Br    Br    0.500364 0.831933 0.598901 -0.416388
Br2   Br    Br    0.499700 0.373597 0.400597 -0.416057
Br3   Br    Br    0.075763 0.861345 0.652518 -0.589295
Br4   Br    Br    0.924460 0.343572 0.347749 -0.589085
Br5   Br    Br    0.422201 0.824755 0.339141 -0.465701
Br6   Br    Br    0.577951 0.390703 0.660293 -0.466422
Br7   Br    Br    0.767402 0.889990 0.631854 -0.607147
Br8   Br    Br    0.231886 0.333852 0.368473 -0.605154
Br9   Br    Br    0.673498 0.674040 0.119890 -0.626972
Br10  Br    Br    0.327508 0.519694 0.876366 -0.625185
C73   C     C_1   0.860972 0.862712 0.828197 0.348413
N1    N     N_1   0.895765 0.860792 0.786861 -0.278887
C74   C     C_1   0.138939 0.372436 0.171708 0.348567
N2    N     N_1   0.104171 0.381491 0.212877 -0.279088

loop_
_geom_bond_atom_site_label_1
_geom_bond_atom_site_label_2
_ccdc_geom_bond_type
C44   C46   A    
C41   C43   A    
C7    C29   A    
O12   V3    S    
C11   C13   A    
O13   C69   A    
O14   V4    S    
C47   C55   A    
O1    C3    A    
O2    C4    A    
C2    O7    A    
C45   C53   A    
O16   V4    S    
C23   C25   A    
C43   C47   A    
O5    C3    A    
C4    C7    S    
C35   C67   A    
C1    C36   S    
C26   C74   S    
C16   C20   A    
O15   V3    S    
C19   C21   A    
C5    C29   A    
C10   H6    S    
C64   C66   A    
C48   C56   A    
C33   C72   S    
C28   Br10  S    
C24   Br8   S    
C3    C8    S    
C7    C27   A    
C38   C40   A    
C47   C49   A    
O20   V3    S    
C41   H19   S    
C37   C45   A    
C40   H18   S    
C63   Br5   S    
C18   C26   A    
C43   C45   A    
C33   C41   A    
C34   C42   A    
O11   V4    S    
C58   H16   S    
C19   C27   A    
C9    C31   A    
C10   C32   A    
C52   H22   S    
O5    V1    S    
C32   C69   S    
O6    V2    S    
C22   C24   A    
O17   V3    S    
C67   H13   S    
C51   C53   A    
C2    C35   S    
C62   C68   A    
C6    C30   A    
O13   V3    S    
C59   C61   A    
C59   C63   A    
C68   H14   S    
C49   C61   A    
C63   C65   A    
C37   Br3   S    
C61   C67   A    
C37   C39   A    
C23   Br7   S    
C56   H24   S    
C27   Br9   S    
C58   C60   A    
O19   V4    S    
C57   C59   A    
C12   H10   S    
C60   C64   A    
C5    H3    S    
H1    C29   S    
C35   C65   A    
O12   C72   A    
C42   C44   A    
O4    V2    S    
C57   H15   S    
C42   H20   S    
O6    C4    A    
C15   C17   A    
C55   C57   A    
O1    V2    S    
C5    C21   A    
O2    V1    S    
C36   C68   A    
C70   O17   A    
C50   C62   A    
C52   C54   A    
C69   O18   A    
C54   H12   S    
O20   V4    S    
C50   C52   A    
C60   C62   A    
C74   N2    T    
C8    C28   A    
C34   C40   A    
C20   C28   A    
O4    C2    A    
C38   Br4   S    
C73   N1    T    
O16   C72   A    
O3    V1    S    
C49   C51   A    
C13   H7    S    
C65   Br1   S    
O18   V4    S    
C14   H8    S    
C51   H21   S    
C66   Br2   S    
C6    H4    S    
O11   C71   A    
C39   H17   S    
C24   C26   A    
O3    C1    A    
C36   C66   A    
O15   C71   A    
C11   H9    S    
C53   H11   S    
C46   C54   A    
C31   C70   S    
C10   C12   A    
C8    C30   A    
C64   Br6   S    
O19   V3    S    
O7    V1    S    
C17   C25   A    
C12   C14   A    
C13   C15   A    
O8    V2    S    
C14   C16   A    
C44   C48   A    
C17   C31   A    
C33   C39   A    
C15   C19   A    
C20   C22   A    
C34   C71   S    
O14   C70   A    
C56   C58   A    
C6    C22   A    
C9    H5    S    
C55   H23   S    
C1    O8    A    
C25   C73   S    
C18   C32   A    
C38   C46   A    
C21   C23   A    
O9    V2    S    
O10   V1    S    
C48   C50   A    
H2    C30   S    
C16   C18   A    
C9    C11   A    
