data_mof_unit_27556.cif
_audit_creation_date              2013-03-05T15:53:43-0500
_audit_creation_method            fapswitch 2.2
_symmetry_space_group_name_H-M    P1
_symmetry_Int_Tables_number       1
_space_group_crystal_system       triclinic
_cell_length_a                    14.879784
_cell_length_b                    14.750679
_cell_length_c                    17.022457
_cell_angle_alpha                 108.982219
_cell_angle_beta                  106.466375
_cell_angle_gamma                 108.014064
_cell_volume                      3038.04237197

loop_
_atom_site_label
_atom_site_type_symbol
_atom_site_description
_atom_site_fract_x
_atom_site_fract_y
_atom_site_fract_z
_atom_type_partial_charge
C1    C     C_R   0.093605 0.276149 0.029729 -0.128575
H1    H     H_    0.175448 0.294844 0.057735 0.102413
N1    N     N_R   0.055640 0.348550 0.045600 -0.042560
C2    C     C_R   0.937247 0.454163 0.734685 -0.082288
H2    H     H_    0.858959 0.409455 0.680699 0.150892
N2    N     N_R   0.960830 0.507850 0.823710 -0.056548
C3    C     C_R   0.720420 0.214607 0.823372 -0.144532
H3    H     H_    0.690225 0.162166 0.851150 0.097596
N3    N     N_R   0.811290 0.303400 0.871650 -0.041925
C4    C     C_R   0.301845 0.597235 0.006182 -0.157553
H4    H     H_    0.329748 0.663291 0.990850 0.108570
N4    N     N_R   0.205180 0.552990 0.997660 -0.038030
C5    C     C_R   0.727097 0.310404 0.746475 -0.058436
H5    H     H_    0.704628 0.347089 0.703721 0.083016
N5    N     N_R   0.814810 0.361830 0.823710 -0.045139
C6    C     C_R   0.296485 0.498581 0.080135 -0.132611
H6    H     H_    0.318283 0.468408 0.128630 0.105380
N6    N     N_R   0.201660 0.494570 0.045600 -0.042180
C7    C     C_R   0.111304 0.536392 0.813986 -0.141512
H7    H     H_    0.194183 0.563636 0.834448 0.099109
N7    N     N_R   0.068420 0.560530 0.871650 -0.044230
C8    C     C_R   0.919572 0.190985 0.951634 -0.046365
H8    H     H_    0.840241 0.131138 0.906282 0.091884
N8    N     N_R   0.948050 0.295860 0.997660 -0.040762
C9    C     C_R   0.009878 0.175710 0.968794 0.053491
C10   C     C_R   0.030992 0.468505 0.726731 0.112744
C11   C     C_R   0.664794 0.217149 0.744346 0.072501
C12   C     C_R   0.362019 0.564517 0.057354 0.091000
C13   C     C_R   0.218083 0.702236 0.264834 -0.121032
H9    H     H_    0.221778 0.675293 0.316896 0.093941
N9    N     N_R   0.185190 0.638170 0.176290 -0.041603
C14   C     C_R   0.751543 0.566961 0.975958 -0.147519
H10   H     H_    0.746046 0.623762 0.950736 0.110527
N10   N     N_R   0.798340 0.505430 0.954400 -0.045953
C15   C     C_R   0.893313 0.394359 0.176024 -0.100012
H11   H     H_    0.812293 0.339923 0.150702 0.139593
N11   N     N_R   0.931580 0.439470 0.128350 -0.049971
C16   C     C_R   0.083551 0.803592 0.009859 -0.139209
H12   H     H_    0.163914 0.859058 0.033796 0.097181
N12   N     N_R   0.051950 0.704140 0.002340 -0.039901
C17   C     C_R   0.912541 0.719668 0.932734 -0.129833
H13   H     H_    0.834724 0.697526 0.885004 0.090218
N13   N     N_R   0.944360 0.651450 0.954400 -0.041635
C18   C     C_R   0.066206 0.475995 0.249966 -0.153115
H14   H     H_    0.145262 0.491672 0.289123 0.096622
N14   N     N_R   0.039170 0.492150 0.176290 -0.044053
C19   C     C_R   0.225596 0.799348 0.188079 -0.116610
H15   H     H_    0.238114 0.864595 0.170575 0.095039
N15   N     N_R   0.188710 0.696600 0.128350 -0.040701
C20   C     C_R   0.743766 0.470657 0.053381 -0.126260
H16   H     H_    0.729008 0.436556 0.098357 0.099344
N16   N     N_R   0.794820 0.447010 0.002340 -0.044131
Ni1   Ni    Ni4+2 0.119330 0.493420 0.109950 0.217407
Ni2   Ni    Ni4+2 0.880670 0.506580 0.890050 0.211049
Ni3   Ni    Ni4+2 0.872590 0.372590 0.000000 0.240801
Ni4   Ni    Ni4+2 0.127410 0.627410 0.000000 0.216459
C21   C     C_R   0.241886 0.805059 0.274512 0.061399
C22   C     C_R   0.716629 0.547629 0.038462 0.085349
C23   C     C_R   0.976730 0.414022 0.252044 0.119223
C24   C     C_R   0.997764 0.817469 0.968043 0.075315
C25   C     C_R   0.519754 0.649679 0.038544 0.155627
C26   C     C_R   0.474832 0.602766 0.086040 0.006950
C27   C     C_R   0.538129 0.580272 0.149299 0.024454
C28   C     C_R   0.629126 0.575995 0.142970 -0.250970
H17   H     H_    0.671042 0.546849 0.183836 0.136769
C29   C     C_R   0.656015 0.595044 0.075171 0.019956
C30   C     C_R   0.609026 0.645875 0.033095 0.181083
C31   C     C_3   0.571397 0.629221 0.935660 -0.518003
C32   C     C_3   0.473914 0.633842 0.941746 -0.513942
H18   H     H_    0.619744 0.697956 0.928629 0.199337
H19   H     H_    0.555415 0.549083 0.885487 0.199961
H20   H     H_    0.466568 0.705421 0.938459 0.199221
H21   H     H_    0.402939 0.556530 0.894926 0.201616
C33   C     C_R   0.976452 0.374807 0.321117 -0.028960
C34   C     C_R   0.045859 0.433163 0.642172 -0.022688
C35   C     C_R   0.148935 0.489388 0.565257 -0.198040
C36   C     C_R   0.140773 0.495539 0.644982 -0.210213
C37   C     C_R   0.963423 0.350531 0.556991 0.294876
C38   C     C_R   0.970546 0.347155 0.475198 -0.051355
C39   C     C_R   0.062148 0.421750 0.481513 0.170820
C40   C     C_R   0.064214 0.434883 0.405505 -0.277470
C41   C     C_R   0.890809 0.287456 0.309677 0.326211
C42   C     C_R   0.888293 0.274956 0.387527 -0.231269
H22   H     H_    0.132229 0.500090 0.415560 0.127746
H23   H     H_    0.220604 0.544229 0.569794 0.126490
H24   H     H_    0.821688 0.209460 0.378756 0.219512
H25   H     H_    0.206790 0.557078 0.708509 0.134262
C43   C     C_R   0.556183 0.143543 0.677547 0.120199
C44   C     C_R   0.283299 0.901524 0.361011 0.126449
C45   C     C_R   0.386447 0.093294 0.447923 -0.192523
C46   C     C_R   0.319304 0.003267 0.364291 -0.155618
C47   C     C_R   0.301195 0.892822 0.443137 -0.268549
C48   C     C_R   0.374007 0.981026 0.526092 0.185545
C49   C     C_R   0.420539 0.081033 0.527622 0.177263
C50   C     C_R   0.508847 0.163143 0.605009 -0.244423
C51   C     C_R   0.503208 0.047856 0.679619 -0.164312
C52   C     C_R   0.411005 0.967550 0.604697 -0.218163
H26   H     H_    0.545775 0.237696 0.603366 0.123050
H27   H     H_    0.535878 0.031512 0.735809 0.119157
H28   H     H_    0.419849 0.170276 0.448651 0.135834
H29   H     H_    0.374895 0.891563 0.604836 0.126381
H30   H     H_    0.302617 0.013268 0.302424 0.120819
H31   H     H_    0.269226 0.815963 0.442568 0.116823
C53   C     C_R   0.112796 0.074269 0.931297 0.140758
C54   C     C_R   0.016480 0.075015 0.923182 0.042789
C55   C     C_R   0.925628 0.977019 0.864490 -0.179944
H32   H     H_    0.849391 0.970740 0.858475 0.129785
C56   C     C_R   0.931468 0.887594 0.806804 -0.186136
H33   H     H_    0.860618 0.815344 0.757959 0.132279
C57   C     C_R   0.027704 0.894153 0.807294 0.025725
C58   C     C_R   0.117969 0.985422 0.875001 0.150951
C59   C     C_3   0.209648 0.051384 0.866367 -0.473911
C60   C     C_3   0.204279 0.149085 0.927581 -0.499798
H34   H     H_    0.280905 0.043542 0.899559 0.194487
H35   H     H_    0.191394 0.041083 0.795084 0.203165
H36   H     H_    0.272971 0.197627 0.995635 0.190258
H37   H     H_    0.182866 0.195479 0.891779 0.210119
N17   N     N_3   0.507556 0.554222 0.214586 -0.220478
H38   H     H_    0.567615 0.608010 0.280112 0.123726
H39   H     H_    0.500697 0.477639 0.202398 0.103160
N18   N     N_R   0.809074 0.209181 0.220516 0.221832
O1    O     O_R   0.832430 0.171979 0.152521 -0.419596
O2    O     O_R   0.713879 0.162407 0.210526 -0.403441
N19   N     N_R   0.873418 0.273956 0.554200 0.218193
O3    O     O_R   0.885608 0.224035 0.603941 -0.396642
O4    O     O_R   0.780288 0.262639 0.510416 -0.430473

loop_
_geom_bond_atom_site_label_1
_geom_bond_atom_site_label_2
_geom_bond_distance
_ccdc_geom_bond_type
C6    C12   1.385780 A    
C38   C42   1.408451 A    
C43   C51   1.405271 A    
C48   C49   1.410415 A    
C17   H13   1.080585 S    
C7    H7    1.078215 S    
C14   C22   1.379263 A    
C59   H34   1.111570 S    
C50   H26   1.080294 S    
C9    C54   1.483888 S    
C3    H3    1.080398 S    
C19   N15   1.341161 A    
N8    Ni3   1.823564 S    
C26   C27   1.416869 A    
C21   C44   1.467245 S    
C15   N11   1.343310 A    
N9    N15   1.365796 A    
C16   H12   1.080333 S    
C55   H32   1.081170 S    
C18   C23   1.380031 A    
C25   C32   1.499578 S    
C51   H27   1.080843 S    
C3    C11   1.384526 A    
C56   H33   1.081770 S    
C15   C23   1.386338 A    
C1    H1    1.078894 S    
C7    C10   1.386718 A    
C57   C58   1.392628 A    
C59   C60   1.520056 S    
N6    Ni1   1.860350 S    
N17   H38   1.045434 S    
C22   C29   1.455485 S    
N12   N13   1.382076 A    
C15   H11   1.079562 S    
C31   C32   1.503714 S    
N12   Ni4   1.823564 S    
C8    C9    1.396160 A    
C20   N16   1.339613 A    
C32   H21   1.112518 S    
N3    Ni3   1.868408 S    
C44   C46   1.404889 A    
C37   N19   1.437052 S    
C41   N18   1.435557 S    
C47   H31   1.080931 S    
N16   Ni3   1.824586 S    
C60   H36   1.111705 S    
C29   C30   1.397767 A    
C43   C50   1.403404 A    
C5    H5    1.079071 S    
C1    C9    1.396088 A    
C17   N13   1.345308 A    
N1    N8    1.382075 A    
C11   C43   1.467443 S    
N2    Ni2   1.860596 S    
C45   H28   1.083929 S    
C53   C54   1.404167 A    
C18   N14   1.326353 A    
C45   C49   1.398853 A    
C53   C60   1.496652 S    
C30   C31   1.499388 S    
C20   C22   1.389125 A    
N5    Ni2   1.817803 S    
C35   C36   1.372927 A    
C2    N2    1.338917 A    
C27   N17   1.430379 S    
C37   C38   1.412123 A    
C6    H6    1.077626 S    
N2    N7    1.382073 A    
C27   C28   1.407134 A    
C1    N1    1.343360 A    
C53   C58   1.388880 A    
C28   C29   1.405064 A    
C32   H20   1.111856 S    
C13   H9    1.077664 S    
C19   C21   1.391098 A    
C25   C30   1.374340 A    
N13   Ni2   1.816762 S    
C19   H15   1.075603 S    
C51   C52   1.389990 A    
C20   H16   1.079319 S    
C49   C50   1.387550 A    
N9    Ni1   1.817802 S    
C44   C47   1.403059 A    
C34   C36   1.404556 A    
C23   C33   1.469982 S    
N18   O1    1.301675 A    
N4    Ni4   1.824588 S    
C4    N4    1.324902 A    
C16   C24   1.385392 A    
C6    N6    1.339939 A    
C13   C21   1.387486 A    
N10   Ni2   1.860352 S    
C5    N5    1.331711 A    
C60   H37   1.112363 S    
C46   H30   1.080738 S    
C48   C52   1.398604 A    
C40   H22   1.082270 S    
C18   H14   1.080977 S    
N19   O4    1.301586 A    
C33   C41   1.415133 A    
C4    C12   1.375492 A    
C3    N3    1.339242 A    
C58   C59   1.488286 S    
C7    N7    1.328794 A    
C35   C39   1.389043 A    
C17   C24   1.386671 A    
C39   C40   1.376397 A    
N7    Ni4   1.868753 S    
C2    C10   1.397150 A    
N15   Ni4   1.868405 S    
C54   C55   1.414704 A    
N10   N16   1.365678 A    
C14   H10   1.072148 S    
C10   C34   1.468436 S    
N3    N5    1.365798 A    
C13   N9    1.331719 A    
C28   H17   1.082677 S    
C16   N12   1.344106 A    
N1    Ni1   1.816763 S    
C45   C46   1.389804 A    
C55   C56   1.410102 A    
C31   H19   1.112443 S    
N14   Ni1   1.860598 S    
C47   C48   1.387891 A    
C56   C57   1.402495 A    
C8    N8    1.343276 A    
C25   C26   1.401269 A    
C34   C37   1.417729 A    
N17   H39   1.045846 S    
N18   O2    1.301551 A    
C4    H4    1.080067 S    
C38   C39   1.411536 A    
N11   Ni3   1.868750 S    
C2    H2    1.077105 S    
C42   H24   1.080717 S    
C36   H25   1.079829 S    
C31   H18   1.111958 S    
C41   C42   1.405116 A    
N4    N6    1.365679 A    
C8    H8    1.078988 S    
C5    C11   1.383014 A    
C33   C40   1.395276 A    
N11   N14   1.382073 A    
C35   H23   1.084758 S    
C59   H35   1.112166 S    
C52   H29   1.083971 S    
C14   N10   1.327565 A    
N19   O3    1.301223 A    
C12   C26   1.464536 S    
