data_mof_unit_34100.cif
_audit_creation_date              2013-03-05T16:00:04-0500
_audit_creation_method            fapswitch 2.2
_symmetry_space_group_name_H-M    P1
_symmetry_Int_Tables_number       1
_space_group_crystal_system       triclinic
_cell_length_a                    8.225965
_cell_length_b                    12.707573
_cell_length_c                    22.848622
_cell_angle_alpha                 95.993494
_cell_angle_beta                  89.018428
_cell_angle_gamma                 99.002081
_cell_volume                      2346.09881295

loop_
_atom_site_label
_atom_site_type_symbol
_atom_site_description
_atom_site_fract_x
_atom_site_fract_y
_atom_site_fract_z
_atom_type_partial_charge
P1    P     P_3+3 0.057140 0.408270 0.369700 0.481555
O1    O     O_2   0.890290 0.440320 0.360790 -0.341064
O2    O     O_3   0.130840 0.441440 0.431840 -0.381093
O3    O     O_3   0.672400 0.637930 0.395560 -0.376367
O4    O     O_2   0.797355 0.559551 0.293801 -0.381602
O5    O     O_3   0.976009 0.271653 0.363283 -0.564686
O6    O     O_3   0.730753 0.751792 0.294460 -0.499779
H1    H     H_    0.702450 0.862321 0.364782 0.149052
C1    C     C_3   0.628663 0.913417 0.283098 -0.906654
H2    H     H_    0.580670 0.981963 0.307928 0.239987
H3    H     H_    0.752127 0.942426 0.265296 0.291491
P2    P     P_3+3 0.667360 0.749400 0.544670 0.454891
P3    P     P_3+3 0.139225 0.831181 0.421544 0.515959
O7    O     O_2   0.844800 0.765340 0.527490 -0.385410
O8    O     O_3   0.090520 0.693800 0.424220 -0.369937
O9    O     O_2   0.025608 0.882438 0.466609 -0.322488
O10   O     O_3   0.672879 0.779133 0.621246 -0.566659
O11   O     O_3   0.070795 0.860291 0.353955 -0.437863
C2    C     C_3   0.193116 0.846200 0.311800 0.391770
H4    H     H_    0.226280 0.764220 0.309936 0.072820
H5    H     H_    0.302644 0.907898 0.322053 0.034641
C3    C     C_3   0.129326 0.861041 0.251628 -0.814912
H6    H     H_    0.029003 0.794536 0.237545 0.280652
H7    H     H_    0.081493 0.938265 0.253209 0.251853
C4    C     C_3   0.221516 0.773080 0.589949 0.424023
H8    H     H_    0.330995 0.740301 0.572291 0.083331
H9    H     H_    0.121106 0.753226 0.557211 0.140584
C5    C     C_3   0.262552 0.893972 0.600950 -0.952613
H10   H     H_    0.382420 0.915471 0.623828 0.243638
H11   H     H_    0.272367 0.929899 0.558803 0.247664
H12   H     H_    0.164413 0.926659 0.627705 0.295972
Ba1   Ba    Ba6+2 0.856210 0.551220 0.472190 1.592723
C6    C     C_3   0.096527 0.205408 0.356816 0.805557
H13   H     H_    0.207000 0.241447 0.382258 0.037354
C7    C     C_3   0.140160 0.182403 0.291810 -1.070692
H14   H     H_    0.028115 0.147451 0.265856 0.285536
H15   H     H_    0.229709 0.125098 0.287179 0.241535
H16   H     H_    0.196367 0.256815 0.273332 0.240457
C8    C     C_3   0.713353 0.691773 0.647310 0.394202
H17   H     H_    0.835030 0.674486 0.631463 0.093208
H18   H     H_    0.618923 0.619741 0.637450 0.138744
C9    C     C_3   0.721118 0.719932 0.713653 -0.830920
H19   H     H_    0.819250 0.789371 0.724956 0.287391
H20   H     H_    0.748446 0.650884 0.735535 0.205021
H21   H     H_    0.601061 0.740486 0.730208 0.266476
P4    P     P_3+3 0.132580 0.591820 0.630310 0.480412
O12   O     O_2   0.299410 0.559720 0.639240 -0.355769
O13   O     O_3   0.058870 0.558650 0.568170 -0.420412
O14   O     O_3   0.517310 0.362160 0.604450 -0.379997
O15   O     O_3   0.174044 0.731517 0.643019 -0.540115
P5    P     P_3+3 0.056404 0.166806 0.576818 0.500753
O16   O     O_3   0.614910 0.369290 0.471050 -0.393631
O17   O     O_3   0.099190 0.306290 0.575790 -0.385483
O18   O     O_2   0.198797 0.118927 0.544512 -0.333878
O19   O     O_3   0.073377 0.133722 0.648695 -0.543560
Ba2   Ba    Ba6+2 0.333620 0.448870 0.527810 1.589731
P6    P     P_3+3 0.664685 0.625978 0.318291 0.473220
C10   C     C_3   0.639088 0.826284 0.323235 0.534766
H22   H     H_    0.511388 0.790571 0.334025 -0.058309
H23   H     H_    0.545319 0.880883 0.245578 0.238195
O20   O     O_3   0.574800 0.630800 0.528960 -0.402151
C11   C     C_3   0.532245 0.304604 0.344540 0.455319
H24   H     H_    0.412810 0.331881 0.341222 -0.015778
H25   H     H_    0.615115 0.371042 0.368126 0.156300
C12   C     C_3   0.598734 0.283211 0.282613 -0.893791
H26   H     H_    0.514012 0.218782 0.257063 0.248286
H27   H     H_    0.610135 0.356984 0.259798 0.221974
H28   H     H_    0.721717 0.258100 0.284472 0.281523
P7    P     P_3+3 0.526693 0.236859 0.448941 0.464299
O21   O     O_2   0.344900 0.234690 0.472540 -0.344636
O22   O     O_3   0.512558 0.209428 0.372044 -0.583926
H29   H     H_    0.230637 0.861498 0.218934 0.236267
C13   C     C_3   0.044100 0.220638 0.688335 0.226248
H30   H     H_    0.133994 0.293427 0.681798 0.136000
H31   H     H_    0.917781 0.237610 0.682639 0.023719
C14   C     C_3   0.065235 0.194359 0.751087 -0.031598
H32   H     H_    0.061922 0.267191 0.781688 0.105774
H33   H     H_    0.187207 0.170852 0.756603 0.164993
P8    P     P_3+3 0.536014 0.375792 0.681076 0.507491
C15   C     C_3   0.502033 0.171400 0.680213 0.401650
H34   H     H_    0.638490 0.188670 0.680329 0.056066
O23   O     O_2   0.440493 0.465032 0.707454 -0.366493
O24   O     O_3   0.430598 0.258823 0.706007 -0.502988
H35   H     H_    0.458491 0.149510 0.634088 0.102964
H36   H     H_    0.530799 0.013691 0.702635 0.235418
C16   C     C_3   0.452685 0.076137 0.715444 -0.808774
H37   H     H_    0.321873 0.041517 0.707261 0.253247
H38   H     H_    0.469145 0.101515 0.763236 0.300207
H39   H     H_    0.993743 0.240972 0.049416 0.173292
H40   H     H_    0.910478 0.236376 0.947960 0.184939
C17   C     C_R   0.344871 0.524651 0.330856 -0.464747
C18   C     C_R   0.097350 0.595716 0.941878 -0.078545
C19   C     C_R   0.050745 0.590699 0.881864 0.580621
O25   O     O_2   0.074583 0.671919 0.856658 -0.559516
N1    N     N_R   0.975968 0.495011 0.851981 -0.154324
C20   C     C_R   0.945882 0.403514 0.881696 0.601960
O26   O     O_2   0.876899 0.319289 0.856669 -0.528639
C21   C     C_R   0.993927 0.405549 0.940823 -0.085847
C22   C     C_R   0.069287 0.502202 0.971215 -0.005363
C23   C     C_R   0.170805 0.692081 0.973470 -0.094572
C24   C     C_R   0.214828 0.695379 0.032717 -0.111621
C25   C     C_R   0.188323 0.602223 0.062327 -0.050189
C26   C     C_R   0.115916 0.505199 0.031279 -0.009560
C27   C     C_R   0.967773 0.312235 0.970218 -0.086643
C28   C     C_R   0.015771 0.314793 0.028698 -0.111174
C29   C     C_R   0.089839 0.410985 0.060029 -0.052201
C30   C     C_R   0.138863 0.414668 0.119329 0.521000
N2    N     N_R   0.207462 0.510696 0.150287 -0.165721
C31   C     C_R   0.231808 0.603972 0.122244 0.527246
C32   C     C_2   0.778378 0.440162 0.770735 0.768641
C33   C     C_3   0.753919 0.401823 0.706212 -0.024574
C34   C     C_1   0.004811 0.524222 0.686890 0.305374
C35   C     C_2   0.050278 0.530907 0.743403 -0.282726
C36   C     C_2   0.929640 0.489231 0.789646 -0.118956
C37   C     C_R   0.415612 0.559695 0.230849 -0.220568
C38   C     C_R   0.459431 0.565123 0.290320 0.182018
C39   C     C_R   0.189648 0.472271 0.313017 0.225777
C40   C     C_R   0.142845 0.467969 0.253708 -0.190711
C41   C     C_R   0.255031 0.513272 0.211847 0.156243
O27   O     O_2   0.122351 0.331875 0.143155 -0.594413
O28   O     O_2   0.290083 0.688914 0.149544 -0.613570
C42   C     C_2   0.863462 0.469171 0.666781 -0.568717
H41   H     H_    0.270361 0.771393 0.055270 0.169801
H42   H     H_    0.505633 0.591716 0.199605 0.168039
H43   H     H_    0.194046 0.765610 0.952517 0.176697
H44   H     H_    0.175293 0.565299 0.756227 0.214055
H45   H     H_    0.020339 0.429787 0.240296 0.172737
H46   H     H_    0.379985 0.529449 0.376604 0.165940
H47   H     H_    0.839594 0.453011 0.619880 0.202147
C43   C     C_R   0.772022 0.178287 0.514454 -0.402652
C44   C     C_R   0.440483 0.808376 0.469703 -0.487761
C45   C     C_R   0.419140 0.986609 0.447156 -0.208137
C46   C     C_R   0.354171 0.878503 0.444657 0.120946
C47   C     C_R   0.582111 0.846628 0.503397 0.297307
C48   C     C_R   0.647047 0.957948 0.508092 -0.056128
C49   C     C_R   0.564328 0.028248 0.478894 -0.038103
C50   C     C_R   0.626056 0.139155 0.483914 0.270061
C51   C     C_R   0.857023 0.110227 0.541538 0.262051
C52   C     C_R   0.791915 0.001496 0.540478 -0.175007
H48   H     H_    0.352009 0.037613 0.425584 0.200023
H49   H     H_    0.857740 0.952538 0.564299 0.184627
H50   H     H_    0.821767 0.262610 0.516275 0.169980
H51   H     H_    0.388841 0.724332 0.467298 0.167862
N3    N     N_R   0.028494 0.105476 0.380105 0.233108
O29   O     O_R   0.894510 0.049296 0.357514 -0.409990
O30   O     O_R   0.074980 0.086774 0.431423 -0.394183
N4    N     N_R   0.937531 0.108314 0.766085 0.280063
O31   O     O_R   0.974866 0.014875 0.773607 -0.358446
O32   O     O_R   0.788563 0.127065 0.776786 -0.359531
F1    F     F_    0.656966 0.410430 0.809651 -0.638598

loop_
_geom_bond_atom_site_label_1
_geom_bond_atom_site_label_2
_geom_bond_distance
_ccdc_geom_bond_type
C22   C26   1.426366 A    
C24   C25   1.409976 A    
P4    C34   1.848414 S    
N1    C20   1.393967 Am   
C13   H31   1.106252 S    
C13   H30   1.111622 S    
C2    H4    1.113913 S    
C15   H35   1.112144 S    
C44   C47   1.400577 A    
C48   C49   1.427013 A    
C8    H18   1.110156 S    
H36   C16   1.110348 S    
N2    C31   1.391242 Am   
C4    C5    1.515636 S    
C48   C52   1.418527 A    
C24   H41   1.083197 S    
P3    O11   1.747248 S    
C5    H10   1.106201 S    
N4    O32   1.298892 A    
C14   H33   1.103538 S    
Ba1   O20   2.901647 S    
O11   C2    1.399775 S    
P7    O21   1.578096 D    
C16   H38   1.110238 S    
C29   C30   1.414283 A    
N1    C36   1.472115 S    
C37   C38   1.403759 A    
C17   C38   1.388628 A    
O1    Ba1   2.809532 S    
P1    O1    1.514233 D    
O10   C8    1.399428 S    
P7    O22   1.757390 S    
C40   C41   1.419983 A    
C34   C35   1.340947 D    
C15   C16   1.522101 S    
O16   P7    1.751205 S    
H1    C10   1.110841 S    
C4    O15   1.398139 S    
Ba1   O16   2.799746 S    
N4    O31   1.300871 A    
C14   N4    1.457049 S    
C45   C46   1.389606 A    
C12   H27   1.110084 S    
C20   C21   1.410606 A    
P2    O10   1.750838 S    
C11   H25   1.097887 S    
C30   N2    1.387717 Am   
C17   C39   1.390955 A    
P6    C38   1.839125 S    
C1    H2    1.110488 S    
C32   C36   1.357609 D    
C42   H47   1.085237 S    
C19   N1    1.389275 Am   
P2    C47   1.856006 S    
P2    Ba1   3.429768 S    
C33   C42   1.499339 S    
Ba1   O13   2.762265 S    
N2    C41   1.462141 S    
C25   C26   1.407185 A    
C9    H20   1.107957 S    
C15   O24   1.408019 S    
C3    H29   1.109337 S    
C27   C28   1.395471 A    
C8    C9    1.520790 S    
C6    N3    1.455160 S    
P7    C50   1.842626 S    
P4    O13   1.544578 S    
C17   H46   1.082263 S    
C23   H43   1.083134 S    
O8    Ba1   2.729204 S    
C7    H16   1.107262 S    
C14   H32   1.103763 S    
N3    O30   1.295990 A    
C8    H17   1.104974 S    
C16   H37   1.108136 S    
C49   C50   1.414775 A    
C35   H44   1.085045 S    
C44   C46   1.394335 A    
C4    H8    1.103254 S    
P1    Ba1   3.381448 S    
O14   P8    1.748307 S    
P1    O2    1.544548 S    
C9    H21   1.110819 S    
O3    P6    1.757513 S    
C34   C42   1.322521 D    
C11   H24   1.098069 S    
O2    Ba2   2.762684 S    
C45   C49   1.408552 A    
C12   H28   1.110136 S    
C20   O26   1.219736 D    
C2    C3    1.520191 S    
C6    H13   1.098070 S    
C32   C33   1.510213 S    
C19   O25   1.221585 D    
P1    C39   1.849615 S    
C1    H3    1.110317 S    
H40   C27   1.083362 S    
O3    Ba1   2.753344 S    
P2    O7    1.493333 D    
C21   C22   1.404781 A    
C37   C41   1.415509 A    
P3    O8    1.736253 S    
C13   C14   1.524537 S    
C3    H7    1.110001 S    
C4    H9    1.105413 S    
C9    H19   1.110674 S    
H39   C28   1.083298 S    
C43   C51   1.391298 A    
C30   O27   1.222322 D    
C44   H51   1.081960 S    
C18   C23   1.408729 A    
C35   C36   1.515952 S    
O17   Ba2   2.729899 S    
O13   Ba2   2.924231 S    
P4    O12   1.514428 D    
C1    C10   1.522777 S    
C37   H42   1.082500 S    
O6    C10   1.404759 S    
C11   C12   1.521442 S    
C7    H15   1.110494 S    
Ba2   O20   2.799158 S    
P3    C46   1.843842 S    
C5    H12   1.110392 S    
O7    Ba1   2.892534 S    
C15   H34   1.109523 S    
C32   F1    1.361078 S    
P8    O23   1.544845 D    
C47   C48   1.425395 A    
P8    C33   1.860719 S    
C45   H48   1.075171 S    
O14   Ba2   2.752885 S    
C28   C29   1.406062 A    
P4    O15   1.748790 S    
Ba2   O21   2.892804 S    
O5    C6    1.394094 S    
O4    P6    1.544473 D    
N3    O29   1.298895 A    
P5    O18   1.544877 D    
C1    H23   1.110553 S    
C5    H11   1.104501 S    
C10   H22   1.111528 S    
C39   C40   1.408342 A    
P8    O24   1.744229 S    
P2    O20   1.586588 S    
C52   H49   1.078296 S    
C31   O28   1.221362 D    
C21   C27   1.408906 A    
C18   C19   1.422471 A    
C6    C7    1.531089 S    
Ba1   Ba2   4.565501 S    
C11   O22   1.406366 S    
C26   C29   1.410659 A    
P5    O19   1.750354 S    
O2    Ba1   2.923341 S    
C43   H50   1.082327 S    
C51   C52   1.399433 A    
O19   C13   1.401823 S    
P5    C51   1.847140 S    
C12   H26   1.110128 S    
C40   H45   1.082298 S    
P3    O9    1.541247 D    
P4    Ba2   3.382100 S    
P1    O5    1.751695 S    
C3    H6    1.110341 S    
C25   C31   1.417950 A    
C23   C24   1.402008 A    
C7    H14   1.110886 S    
P5    O17   1.754819 S    
C43   C50   1.394731 A    
O6    P6    1.745782 S    
O16   Ba2   2.900724 S    
C18   C22   1.410656 A    
O12   Ba2   2.810024 S    
C2    H5    1.108669 S    
