data_mof_unit_18020.cif
_audit_creation_date              2012-12-10T17:15:15-0500
_audit_creation_method            fapswitch 2.2
_symmetry_space_group_name_H-M    P1
_symmetry_Int_Tables_number       1
_space_group_crystal_system       triclinic
_cell_length_a                    15.827162
_cell_length_b                    13.005966
_cell_length_c                    11.836945
_cell_angle_alpha                 101.726334
_cell_angle_beta                  92.574631
_cell_angle_gamma                 92.803726
_cell_volume                      2379.14438488

loop_
_atom_site_label
_atom_site_type_symbol
_atom_type_description
_atom_site_fract_x
_atom_site_fract_y
_atom_site_fract_z
_atom_type_partial_charge
C1    C     C_R   0.500250 0.298674 0.476736 0.828363
C2    C     C_R   0.499186 0.700862 0.523008 0.819160
C3    C     C_R   0.521970 0.008631 0.346549 0.063685
C4    C     C_R   0.454558 0.985228 0.642918 0.092488
C5    C     C_R   0.527365 0.119534 0.359594 0.443848
C6    C     C_R   0.456539 0.875463 0.632757 0.378955
C7    C     C_R   0.475249 0.138184 0.552329 -0.323076
C8    C     C_R   0.517880 0.860604 0.446551 -0.313197
C9    C     C_R   0.477590 0.030198 0.547453 0.046054
C10   C     C_R   0.504746 0.965681 0.445307 0.019733
C11   C     C_R   0.433815 0.387715 0.017836 -0.321389
C12   C     C_R   0.562963 0.616799 0.982249 -0.342712
C13   C     C_R   0.433340 0.401539 0.138710 0.268437
C14   C     C_R   0.563946 0.601564 0.861059 0.283730
C15   C     C_R   0.535751 0.545917 0.159557 0.605710
C16   C     C_R   0.465848 0.454158 0.843108 0.590584
C17   C     C_R   0.525493 0.541867 0.036416 -0.140410
C18   C     C_R   0.475479 0.460317 0.965330 -0.090571
C19   C     C_R   0.340043 0.499254 0.500944 0.782180
C20   C     C_R   0.660000 0.499918 0.499438 0.785714
C21   C     C_3   0.970940 0.428254 0.566546 -0.156229
C22   C     C_3   0.029360 0.563454 0.440291 -0.162733
C23   C     C_3   0.023337 0.398690 0.458417 -0.156035
C24   C     C_3   0.977016 0.593016 0.548305 -0.163402
C25   C     C_1   0.250312 0.498059 0.503140 -0.215528
C26   C     C_1   0.749838 0.497511 0.499455 -0.215490
C27   C     C_3   0.032182 0.525822 0.612920 -0.166040
C28   C     C_3   0.968250 0.465953 0.393854 -0.168088
C29   C     C_3   0.082940 0.496223 0.504781 0.203760
C30   C     C_3   0.917356 0.495490 0.501904 0.199559
C31   C     C_1   0.174675 0.496993 0.504421 -0.089389
C32   C     C_1   0.825525 0.496050 0.500517 -0.070364
C33   C     C_R   0.492332 0.814577 0.536732 -0.177666
C34   C     C_R   0.500855 0.183417 0.461249 -0.185047
Cu1   Cu    Cu3+1 0.506200 0.507730 0.615930 0.953363
Cu2   Cu    Cu3+1 0.493800 0.492270 0.384070 0.967001
H1    H     H_    0.043714 0.318898 0.421616 0.126616
H2    H     H_    0.956634 0.672830 0.584997 0.128039
H3    H     H_    0.945617 0.372695 0.618331 0.129076
H4    H     H_    0.054638 0.619040 0.388500 0.130490
H5    H     H_    0.941615 0.442063 0.303471 0.132761
H6    H     H_    0.059485 0.550696 0.702901 0.136885
H7    H     H_    0.551211 0.813061 0.379350 0.195425
H8    H     H_    0.454410 0.189408 0.628142 0.222315
H9    H     H_    0.398452 0.320874 0.964414 0.199105
H10   H     H_    0.592829 0.688164 0.033460 0.173377
N1    N     N_R   0.515540 0.519350 0.790140 -0.235463
N2    N     N_R   0.484460 0.480650 0.209860 -0.224338
O1    O     O_R   0.504400 0.354460 0.582000 -0.552945
O2    O     O_R   0.495600 0.645540 0.418000 -0.542734
O3    O     O_R   0.493920 0.341410 0.386200 -0.555694
O4    O     O_R   0.506080 0.658590 0.613800 -0.561151
O5    O     O_R   0.384320 0.506520 0.597880 -0.589003
O6    O     O_R   0.615680 0.493480 0.402120 -0.558251
O7    O     O_R   0.373840 0.493460 0.402080 -0.599221
O8    O     O_R   0.626160 0.506540 0.597920 -0.599216
O9    O     O_3   0.428762 0.829641 0.721092 -0.626519
C35   C     C_3   0.344816 0.787075 0.693566 0.085874
H11   H     H_    0.344419 0.712224 0.628795 0.150463
H12   H     H_    0.304054 0.841554 0.657732 0.122399
C36   C     C_3   0.307473 0.765233 0.803724 -0.316417
H13   H     H_    0.348253 0.711918 0.841139 0.219218
H14   H     H_    0.306293 0.840443 0.867961 0.216991
C37   C     C_3   0.217736 0.714695 0.780206 -0.964754
H15   H     H_    0.175920 0.765809 0.741180 0.259268
H16   H     H_    0.191777 0.703086 0.862591 0.253931
H17   H     H_    0.218342 0.636919 0.720931 0.263522
O10   O     O_3   0.554505 0.166404 0.271506 -0.606206
C38   C     C_3   0.642380 0.156220 0.257928 0.020208
H18   H     H_    0.650731 0.114831 0.167662 0.160743
H19   H     H_    0.673825 0.110712 0.316870 0.115028
C39   C     C_3   0.686862 0.265483 0.277540 -0.284724
H20   H     H_    0.654132 0.313698 0.223429 0.236240
H21   H     H_    0.683424 0.303268 0.369785 0.208978
C40   C     C_3   0.779610 0.260441 0.248333 -0.960464
H22   H     H_    0.814521 0.217014 0.305470 0.258817
H23   H     H_    0.808854 0.341478 0.261328 0.256307
H24   H     H_    0.784921 0.221031 0.156661 0.254645
C41   C     C_3   0.532373 0.938427 0.227348 -0.385856
C42   C     C_3   0.472075 0.962291 0.132548 -0.801977
H25   H     H_    0.407693 0.974848 0.164447 0.250873
H26   H     H_    0.496436 0.031788 0.100868 0.268421
H27   H     H_    0.467277 0.894944 0.057399 0.227834
H28   H     H_    0.598796 0.945384 0.202436 0.176681
H29   H     H_    0.517910 0.854222 0.225567 0.212746
C43   C     C_3   0.430933 0.051952 0.757331 -0.371374
C44   C     C_3   0.339653 0.084738 0.752763 -0.837217
H30   H     H_    0.326743 0.134430 0.837248 0.228783
H31   H     H_    0.328125 0.130075 0.684302 0.257755
H32   H     H_    0.294498 0.014913 0.736867 0.244040
H33   H     H_    0.438271 0.008772 0.828762 0.232149
H34   H     H_    0.475457 0.122342 0.783552 0.195129
O11   O     O_3   0.406967 0.380381 0.778130 -0.620351
C45   C     C_3   0.325729 0.422788 0.775273 0.096527
H35   H     H_    0.296720 0.392465 0.686968 0.187507
H36   H     H_    0.328271 0.510539 0.791325 0.141917
C46   C     C_3   0.265045 0.385363 0.858007 -0.432150
H37   H     H_    0.267852 0.299320 0.851157 0.229657
H38   H     H_    0.282478 0.426846 0.948069 0.221758
C47   C     C_3   0.173822 0.409292 0.830149 -0.920059
H39   H     H_    0.168758 0.495336 0.838822 0.255507
H40   H     H_    0.131459 0.381518 0.891434 0.257271
H41   H     H_    0.152438 0.368620 0.740852 0.258186
O12   O     O_3   0.593891 0.616506 0.232040 -0.596659
C48   C     C_3   0.676216 0.619610 0.188347 -0.002753
H42   H     H_    0.688821 0.698262 0.167643 0.153121
H43   H     H_    0.684945 0.557199 0.110544 0.132603
C49   C     C_3   0.743912 0.608203 0.279709 -0.291756
H44   H     H_    0.729824 0.656877 0.364607 0.229066
H45   H     H_    0.743859 0.524077 0.284825 0.224527
C50   C     C_3   0.832061 0.642276 0.248461 -0.967972
H46   H     H_    0.848811 0.592458 0.165595 0.256215
H47   H     H_    0.879394 0.633841 0.317432 0.264509
H48   H     H_    0.834625 0.726049 0.240711 0.255854
C51   C     C_3   0.623628 0.678085 0.817549 -0.331090
C52   C     C_3   0.601775 0.792866 0.857879 -0.832814
H49   H     H_    0.532736 0.798650 0.866790 0.297505
H50   H     H_    0.634421 0.827131 0.943228 0.218651
H51   H     H_    0.622799 0.840497 0.795186 0.244557
H52   H     H_    0.688999 0.669569 0.851552 0.159883
H53   H     H_    0.627774 0.662468 0.724164 0.249592
C53   C     C_3   0.370995 0.328157 0.182479 -0.331723
C54   C     C_3   0.384428 0.212055 0.134528 -0.846757
H54   H     H_    0.347361 0.184138 0.051156 0.222301
H55   H     H_    0.452210 0.200585 0.119799 0.295620
H56   H     H_    0.362793 0.163457 0.195965 0.249208
H57   H     H_    0.372014 0.338962 0.276028 0.254768
H58   H     H_    0.305745 0.344844 0.155495 0.165209

loop_
_geom_bond_atom_site_label_1
_geom_bond_atom_site_label_2
_ccdc_geom_bond_type
C25   C31   T    
C44   H30   S    
C11   C18   A    
C26   C32   T    
O11   C45   S    
C51   H53   S    
C22   C29   S    
Cu1   O5    S    
C50   H46   S    
C24   C27   S    
C20   O8    A    
C3    C41   S    
C46   H37   S    
C54   H54   S    
C52   H49   S    
C48   H43   S    
C16   O11   S    
C20   C26   S    
C23   C29   S    
C43   H33   S    
C42   H27   S    
C41   H28   S    
C54   H55   S    
C4    C43   S    
C35   H12   S    
C14   C51   S    
C28   H5    S    
C49   H44   S    
C38   H19   S    
C53   H57   S    
C36   H14   S    
C2    O2    A    
Cu1   Cu2   S    
C49   H45   S    
O10   C38   S    
C12   C17   A    
Cu1   O1    S    
C24   H2    S    
C8    H7    S    
C15   O12   S    
C9    C10   A    
C36   H13   S    
C19   O5    A    
C35   C36   S    
C21   C27   S    
Cu1   N1    S    
C22   C28   S    
C6    O9    S    
C45   H35   S    
C15   N2    A    
C39   C40   S    
C16   N1    A    
O12   C48   S    
C46   H38   S    
C5    O10   S    
C1    C34   S    
C48   C49   S    
C37   H17   S    
C4    C6    A    
C43   C44   S    
C39   H20   S    
C54   H56   S    
C20   O6    A    
C45   C46   S    
C35   H11   S    
C23   H1    S    
C47   H41   S    
C12   H10   S    
C37   H16   S    
C38   C39   S    
C40   H22   S    
C1    O3    A    
C21   H3    S    
C22   H4    S    
C5    C34   A    
C47   H40   S    
C17   C18   A    
C50   H47   S    
C49   C50   S    
C7    H8    S    
C45   H36   S    
C40   H23   S    
Cu2   O3    S    
C2    O4    A    
C2    C33   S    
C39   H21   S    
C12   C14   A    
C21   C23   S    
C7    C34   A    
C22   C24   S    
C11   H9    S    
C23   C28   S    
C41   H29   S    
C46   C47   S    
Cu2   O2    S    
C21   C30   S    
C19   O7    A    
C15   C17   A    
Cu1   O8    S    
C16   C18   A    
C42   H25   S    
C3    C5    A    
C13   N2    A    
C52   H51   S    
C14   N1    A    
C48   H42   S    
C6    C33   A    
C37   H15   S    
C44   H31   S    
C53   C54   S    
C29   C31   S    
Cu2   O7    S    
C43   H34   S    
C36   C37   S    
C30   C32   S    
C13   C53   S    
C11   C13   A    
C27   H6    S    
O9    C35   S    
C27   C29   S    
C28   C30   S    
C47   H39   S    
C42   H26   S    
C52   H50   S    
Cu2   N2    S    
C50   H48   S    
C8    C33   A    
C53   H58   S    
C38   H18   S    
C19   C25   S    
C40   H24   S    
C24   C30   S    
Cu2   O6    S    
C41   C42   S    
C7    C9    A    
C8    C10   A    
C51   H52   S    
C44   H32   S    
Cu1   O4    S    
C3    C10   A    
C4    C9    A    
C1    O1    A    
C51   C52   S    
