data_mof_unit_47973.cif
_audit_creation_date              2012-12-11T15:43:16-0500
_audit_creation_method            fapswitch 2.2
_symmetry_space_group_name_H-M    P1
_symmetry_Int_Tables_number       1
_space_group_crystal_system       triclinic
_cell_length_a                    18.965693
_cell_length_b                    11.123386
_cell_length_c                    18.768058
_cell_angle_alpha                 89.972098
_cell_angle_beta                  90.030856
_cell_angle_gamma                 89.993009
_cell_volume                      3959.35956657

loop_
_atom_site_label
_atom_site_type_symbol
_atom_type_description
_atom_site_fract_x
_atom_site_fract_y
_atom_site_fract_z
_atom_type_partial_charge
C1    C     C_R   0.726034 0.366813 0.142113 0.542290
C2    C     C_R   0.269780 0.375341 0.854198 0.546680
C3    C     C_R   0.211439 0.830433 0.138595 0.566652
C4    C     C_R   0.769503 0.875984 0.853843 0.539796
C5    C     C_R   0.492384 0.393244 0.931462 -0.085484
C6    C     C_R   0.472848 0.376323 0.078127 -0.094310
C7    C     C_R   0.985327 0.894212 0.933647 -0.083826
C8    C     C_R   0.966240 0.870713 0.080078 -0.098545
C9    C     C_R   0.968718 0.994589 0.974856 -0.132774
C10   C     C_R   0.957221 0.982203 0.047574 -0.123196
C11   C     C_R   0.478976 0.496337 0.971475 -0.136704
C12   C     C_R   0.467286 0.487404 0.044329 -0.128781
C13   C     C_R   0.750692 0.908891 0.925496 0.021932
C14   C     C_R   0.221096 0.844362 0.061770 0.015329
C15   C     C_R   0.252287 0.406313 0.926545 0.019747
C16   C     C_R   0.733729 0.379447 0.065685 0.022448
C17   C     C_R   0.723873 0.819156 0.970571 0.043431
C18   C     C_R   0.285523 0.820540 0.028535 0.007348
C19   C     C_R   0.224464 0.316806 0.971250 0.040573
C20   C     C_R   0.795285 0.344559 0.031137 0.003278
C21   C     C_R   0.723854 0.833517 0.043676 -0.002394
C22   C     C_R   0.295836 0.847855 0.957301 0.004724
C23   C     C_R   0.224628 0.330099 0.044374 0.001037
C24   C     C_R   0.801439 0.358441 0.958230 0.001828
C25   C     C_R   0.784414 0.022745 0.028790 -0.133328
C26   C     C_R   0.173968 0.904971 0.946603 -0.159802
C27   C     C_R   0.290618 0.513683 0.030653 -0.136882
C28   C     C_R   0.679131 0.414747 0.950375 -0.164612
C29   C     C_R   0.783381 0.009150 0.955618 -0.147563
C30   C     C_R   0.163825 0.878282 0.018749 -0.156803
C31   C     C_R   0.288286 0.502571 0.957463 -0.145248
C32   C     C_R   0.673502 0.403756 0.023954 -0.149329
C33   C     C_3   0.652526 0.761884 0.971892 -0.268134
C34   C     C_3   0.358125 0.859879 0.048564 -0.270615
C35   C     C_3   0.153374 0.258564 0.972563 -0.268161
C36   C     C_3   0.869185 0.383155 0.044868 -0.285648
C37   C     C_3   0.653888 0.774671 0.052453 -0.284788
C38   C     C_3   0.369306 0.890306 0.970602 -0.259491
C39   C     C_3   0.155184 0.269791 0.053357 -0.284101
C40   C     C_3   0.875944 0.400539 0.965056 -0.248448
C41   C     C_R   0.751514 0.937764 0.073628 0.025066
C42   C     C_R   0.241983 0.900150 0.916804 0.014906
C43   C     C_R   0.253925 0.432553 0.074978 0.023000
C44   C     C_R   0.745300 0.404730 0.917952 0.013708
C45   C     C_R   0.531986 0.154830 0.146650 0.532594
C46   C     C_R   0.468818 0.156264 0.852789 0.531499
C47   C     C_R   0.032297 0.654609 0.146488 0.522625
C48   C     C_R   0.968766 0.656567 0.852777 0.528063
C49   C     C_R   0.490884 0.159794 0.573548 0.028117
C50   C     C_R   0.510809 0.170109 0.425784 0.034768
C51   C     C_R   0.992780 0.658212 0.573367 -0.011679
C52   C     C_R   0.997770 0.669879 0.422960 0.010140
C53   C     C_R   0.450256 0.093006 0.526431 0.055103
C54   C     C_R   0.455757 0.101973 0.453138 -0.024814
C55   C     C_R   0.966791 0.567188 0.529965 0.024602
C56   C     C_R   0.958443 0.577908 0.457089 -0.022565
C57   C     C_R   0.554861 0.235401 0.472831 -0.136502
C58   C     C_R   0.544815 0.230950 0.546793 -0.135393
C59   C     C_R   0.022863 0.766007 0.465940 -0.151641
C60   C     C_R   0.018629 0.761139 0.540569 -0.136394
C61   C     C_3   0.450675 0.960554 0.521601 0.186050
C62   C     C_3   0.438219 0.970916 0.443224 0.164338
C63   C     C_3   0.986354 0.437832 0.526289 0.184925
C64   C     C_3   0.953354 0.440980 0.452889 0.164273
C65   C     C_R   0.745955 0.943059 0.584529 -0.027393
C66   C     C_R   0.243186 0.896042 0.427192 0.005875
C67   C     C_R   0.258353 0.419811 0.576683 0.002349
C68   C     C_R   0.746594 0.401863 0.425166 0.010749
C69   C     C_R   0.795300 0.009642 0.546261 0.073248
C70   C     C_R   0.248983 0.011874 0.452646 0.024538
C71   C     C_R   0.316425 0.422673 0.529028 0.106029
C72   C     C_R   0.763154 0.516344 0.448880 0.015628
C73   C     C_R   0.789103 0.029291 0.475912 -0.046159
C74   C     C_R   0.251312 0.031305 0.524766 -0.005386
C75   C     C_R   0.304376 0.464029 0.461496 -0.002879
C76   C     C_R   0.768206 0.537406 0.521533 -0.047761
C77   C     C_R   0.672471 0.951714 0.477091 -0.159135
C78   C     C_R   0.246782 0.818979 0.548964 -0.135375
C79   C     C_R   0.179244 0.467598 0.479345 -0.164032
C80   C     C_R   0.739369 0.330443 0.547348 -0.121640
C81   C     C_R   0.681031 0.920376 0.549983 -0.192782
C82   C     C_R   0.242919 0.799140 0.475542 -0.140669
C83   C     C_R   0.189640 0.438282 0.551139 -0.204325
C84   C     C_R   0.734705 0.309572 0.474584 -0.152540
C85   C     C_3   0.865723 0.071647 0.549375 0.528086
C86   C     C_3   0.203040 0.118792 0.439159 0.498316
C87   C     C_3   0.385728 0.492429 0.532538 0.526747
C88   C     C_3   0.721084 0.628238 0.436014 0.507519
C89   C     C_R   0.741494 0.971741 0.147061 0.546848
C90   C     C_R   0.257830 0.967847 0.851896 0.541277
C91   C     C_R   0.242002 0.470296 0.147614 0.540795
C92   C     C_R   0.758111 0.467710 0.851503 0.539309
C93   C     C_3   0.857956 0.090614 0.468203 -0.184130
C94   C     C_3   0.205023 0.138263 0.519269 -0.172755
C95   C     C_3   0.365099 0.547924 0.461118 -0.206817
C96   C     C_3   0.729571 0.653373 0.515136 -0.165139
C97   C     C_R   0.730042 0.997743 0.437448 0.029100
C98   C     C_R   0.248174 0.937181 0.573645 0.064897
C99   C     C_R   0.237160 0.481591 0.434518 0.038993
C100  C     C_R   0.754705 0.445720 0.570890 0.051602
C101  C     C_R   0.730152 0.377530 0.352029 0.529628
C102  C     C_R   0.270947 0.379024 0.648096 0.551436
C103  C     C_R   0.228406 0.873490 0.353652 0.534549
C104  C     C_R   0.768571 0.883249 0.649936 0.530403
C105  C     C_R   0.533442 0.157339 0.353379 0.540378
C106  C     C_R   0.468981 0.156440 0.647437 0.544393
C107  C     C_R   0.030778 0.657077 0.352724 0.538115
C108  C     C_R   0.968508 0.656136 0.646934 0.542971
C109  C     C_R   0.727114 0.022341 0.361282 0.575943
C110  C     C_R   0.256925 0.968996 0.647218 0.548922
C111  C     C_R   0.228565 0.519106 0.361640 0.561368
C112  C     C_R   0.758796 0.473630 0.645245 0.542162
C113  C     C_R   0.499928 0.169023 0.924049 -0.002792
C114  C     C_R   0.505847 0.161267 0.073272 -0.000856
C115  C     C_R   0.000277 0.670938 0.923735 -0.003109
C116  C     C_R   0.007293 0.660330 0.072764 -0.004288
C117  C     C_R   0.494418 0.278181 0.963871 0.033262
C118  C     C_R   0.490899 0.271898 0.039235 0.017043
C119  C     C_R   0.990854 0.778334 0.964675 0.030586
C120  C     C_R   0.987579 0.769527 0.039945 0.008035
C121  C     C_R   0.515585 0.057370 0.032188 -0.153295
C122  C     C_R   0.514818 0.061811 0.959266 -0.167812
C123  C     C_R   0.022332 0.559471 0.030563 -0.151610
C124  C     C_R   0.020350 0.565249 0.957657 -0.168891
Cr1   Cr    Cr6+3 0.772010 0.169670 0.250090 0.973021
Cr2   Cr    Cr6+3 0.227990 0.169670 0.749910 0.989615
Cr3   Cr    Cr6+3 0.272010 0.669670 0.250090 0.967317
Cr4   Cr    Cr6+3 0.727990 0.669670 0.749910 0.989414
Cr5   Cr    Cr6+3 0.615000 0.323260 0.249260 0.998682
Cr6   Cr    Cr6+3 0.385000 0.323260 0.750740 0.990524
Cr7   Cr    Cr6+3 0.115000 0.823260 0.249260 1.001391
Cr8   Cr    Cr6+3 0.885000 0.823260 0.750740 1.010794
Cr9   Cr    Cr6+3 0.616710 0.010760 0.250840 0.993328
Cr10  Cr    Cr6+3 0.383290 0.010760 0.749160 1.002035
Cr11  Cr    Cr6+3 0.116710 0.510760 0.250840 0.992845
Cr12  Cr    Cr6+3 0.883290 0.510760 0.749160 1.005151
H1    H     H_    0.622040 0.938050 0.451706 0.162048
H2    H     H_    0.246189 0.743845 0.585689 0.117947
H3    H     H_    0.127491 0.486595 0.458546 0.145166
H4    H     H_    0.727265 0.259160 0.584683 0.114916
H5    H     H_    0.638889 0.874216 0.577632 0.112442
H6    H     H_    0.235104 0.709291 0.456523 0.104691
H7    H     H_    0.145293 0.431433 0.586956 0.100595
H8    H     H_    0.715839 0.224034 0.456485 0.100940
H9    H     H_    0.852923 0.186123 0.452298 0.130401
H10   H     H_    0.235504 0.216716 0.534863 0.144584
H11   H     H_    0.350199 0.643848 0.465506 0.120357
H12   H     H_    0.766218 0.728505 0.526346 0.151112
H13   H     H_    0.894985 0.036935 0.435098 0.129623
H14   H     H_    0.153685 0.126029 0.546983 0.102732
H15   H     H_    0.400535 0.527748 0.415565 0.126777
H16   H     H_    0.679536 0.653990 0.545922 0.118658
H17   H     H_    0.504429 0.406296 0.875773 0.125025
H18   H     H_    0.462035 0.372983 0.134649 0.131059
H19   H     H_    0.997281 0.910509 0.878256 0.129570
H20   H     H_    0.956201 0.864548 0.136678 0.131537
H21   H     H_    0.964331 0.082253 0.950148 0.097523
H22   H     H_    0.942477 0.059659 0.079131 0.110634
H23   H     H_    0.477192 0.583412 0.945733 0.098020
H24   H     H_    0.454889 0.567063 0.074964 0.104385
H25   H     H_    0.808376 0.103400 0.049909 0.147432
H26   H     H_    0.130239 0.941139 0.916407 0.127948
H27   H     H_    0.317914 0.590862 0.052019 0.145710
H28   H     H_    0.633778 0.445005 0.920396 0.128317
H29   H     H_    0.809386 0.075814 0.922676 0.127591
H30   H     H_    0.112558 0.893124 0.042096 0.152619
H31   H     H_    0.316022 0.568048 0.925123 0.134890
H32   H     H_    0.622679 0.420157 0.048186 0.160003
H33   H     H_    0.155244 0.163900 0.953970 0.159494
H34   H     H_    0.902260 0.308413 0.065636 0.127132
H35   H     H_    0.654049 0.666937 0.953895 0.158539
H36   H     H_    0.391404 0.783794 0.067113 0.123362
H37   H     H_    0.611576 0.818143 0.945728 0.120414
H38   H     H_    0.358326 0.940196 0.083851 0.150346
H39   H     H_    0.112036 0.314804 0.947045 0.118750
H40   H     H_    0.872450 0.468501 0.075559 0.139105
H41   H     H_    0.613020 0.836105 0.073611 0.150213
H42   H     H_    0.375113 0.988352 0.960836 0.166956
H43   H     H_    0.114121 0.329612 0.075527 0.146528
H44   H     H_    0.881640 0.496516 0.949880 0.175771
H45   H     H_    0.658119 0.686992 0.080614 0.140922
H46   H     H_    0.409231 0.832185 0.944288 0.127675
H47   H     H_    0.160334 0.181581 0.080773 0.149072
H48   H     H_    0.914012 0.337605 0.939841 0.126397
O1    O     O_R   0.787520 0.042810 0.170440 -0.531657
O2    O     O_R   0.212480 0.042810 0.829560 -0.533211
O3    O     O_R   0.287520 0.542810 0.170440 -0.536546
O4    O     O_R   0.712480 0.542810 0.829560 -0.531799
O5    O     O_R   0.556610 0.252880 0.323980 -0.518274
O6    O     O_R   0.443390 0.252880 0.676020 -0.511922
O7    O     O_R   0.056610 0.752880 0.323980 -0.512072
O8    O     O_R   0.943390 0.752880 0.676020 -0.475062
O9    O     O_R   0.545950 0.051210 0.330860 -0.477175
O10   O     O_R   0.454050 0.051210 0.669140 -0.512999
O11   O     O_R   0.045950 0.551210 0.330860 -0.472236
O12   O     O_R   0.954050 0.551210 0.669140 -0.496479
O13   O     O_R   0.681390 0.959480 0.325510 -0.501556
O14   O     O_R   0.318610 0.959480 0.674490 -0.465974
O15   O     O_R   0.181390 0.459480 0.325510 -0.484278
O16   O     O_R   0.818610 0.459480 0.674490 -0.471772
O17   O     O_3   0.667900 0.167900 0.250060 -0.272166
O18   O     O_3   0.332100 0.167900 0.749940 -0.240965
O19   O     O_3   0.167900 0.667900 0.250060 -0.286160
O20   O     O_3   0.832100 0.667900 0.749940 -0.244045
O21   O     O_R   0.765640 0.292100 0.175020 -0.504918
O22   O     O_R   0.234360 0.292100 0.824980 -0.503368
O23   O     O_R   0.265640 0.792100 0.175020 -0.507670
O24   O     O_R   0.734360 0.792100 0.824980 -0.503090
O25   O     O_R   0.670190 0.408840 0.168540 -0.534944
O26   O     O_R   0.329810 0.408840 0.831460 -0.527268
O27   O     O_R   0.170190 0.908840 0.168540 -0.528652
O28   O     O_R   0.829810 0.908840 0.831460 -0.533415
O29   O     O_R   0.556620 0.251410 0.175160 -0.508472
O30   O     O_R   0.443380 0.251410 0.824840 -0.516081
O31   O     O_R   0.056620 0.751410 0.175160 -0.522219
O32   O     O_R   0.943380 0.751410 0.824840 -0.513736
O33   O     O_R   0.545960 0.049620 0.170320 -0.532894
O34   O     O_R   0.454040 0.049620 0.829680 -0.531694
O35   O     O_R   0.045960 0.549620 0.170320 -0.534885
O36   O     O_R   0.954040 0.549620 0.829680 -0.538158
O37   O     O_R   0.681390 0.958010 0.176690 -0.501151
O38   O     O_R   0.318610 0.958010 0.823310 -0.504567
O39   O     O_R   0.181390 0.458010 0.176690 -0.503686
O40   O     O_R   0.818610 0.458010 0.823310 -0.513264
O41   O     O_R   0.787510 0.044390 0.330970 -0.518162
O42   O     O_R   0.212490 0.044390 0.669030 -0.544142
O43   O     O_R   0.287510 0.544390 0.330970 -0.532203
O44   O     O_R   0.712490 0.544390 0.669030 -0.543752
O45   O     O_R   0.765630 0.293570 0.323840 -0.548068
O46   O     O_R   0.234370 0.293570 0.676160 -0.520342
O47   O     O_R   0.265630 0.793570 0.323840 -0.541695
O48   O     O_R   0.734370 0.793570 0.676160 -0.512638
O49   O     O_R   0.670190 0.410420 0.329080 -0.472193
O50   O     O_R   0.329810 0.410420 0.670920 -0.492314
O51   O     O_R   0.170190 0.910420 0.329080 -0.465652
O52   O     O_R   0.829810 0.910420 0.670920 -0.495911
H49   H     H_    0.525551 0.970833 0.056260 0.137301
H50   H     H_    0.520833 0.978008 0.930519 0.129726
H51   H     H_    0.036836 0.474343 0.053778 0.139499
H52   H     H_    0.029572 0.483336 0.927883 0.128283
H53   H     H_    0.597630 0.288833 0.452099 0.138563
H54   H     H_    0.578371 0.282084 0.582275 0.101463
H55   H     H_    0.052165 0.839607 0.442563 0.163307
H56   H     H_    0.039503 0.833092 0.572895 0.137190
O53   O     O_3   0.953056 0.365038 0.577732 -0.502647
C125  C     C_3   0.005370 0.322249 0.626044 -0.055828
H57   H     H_    0.035699 0.396078 0.651337 0.116894
H58   H     H_    0.044574 0.263919 0.599109 0.054164
H59   H     H_    0.980568 0.270099 0.669351 0.121272
O54   O     O_3   0.995549 0.385264 0.401001 -0.598088
C126  C     C_3   0.952863 0.349395 0.343004 -0.108822
H60   H     H_    0.920178 0.425097 0.322461 0.126508
H61   H     H_    0.918736 0.272469 0.358154 0.102579
H62   H     H_    0.987514 0.319001 0.298951 0.129094
O55   O     O_3   0.393630 0.911699 0.558063 -0.568659
C127  C     C_3   0.418154 0.813716 0.597155 -0.070435
H63   H     H_    0.457697 0.839733 0.638022 0.113783
H64   H     H_    0.442413 0.749081 0.559606 0.142714
H65   H     H_    0.373018 0.773940 0.625921 0.195059
O56   O     O_3   0.487307 0.900231 0.405316 -0.596237
C128  C     C_3   0.452807 0.840947 0.348587 -0.107443
H66   H     H_    0.423261 0.905294 0.314222 0.128675
H67   H     H_    0.416845 0.770207 0.369353 0.114519
H68   H     H_    0.492851 0.797248 0.314269 0.117377
H69   H     H_    0.504819 0.925382 0.534660 0.094055
H70   H     H_    0.381866 0.959167 0.428348 0.121521
H71   H     H_    0.043886 0.425466 0.522147 0.088417
H72   H     H_    0.897562 0.408589 0.454891 0.133011
O57   O     O_3   0.923158 0.996215 0.567250 -0.541116
C129  C     C_3   0.987623 0.052606 0.548751 -0.120339
H73   H     H_    0.982525 0.145988 0.528438 0.159682
H74   H     H_    0.012896 0.002737 0.504934 0.122846
H75   H     H_    0.023286 0.051639 0.595591 0.115740
O58   O     O_3   0.135389 0.086390 0.413599 -0.583031
C130  C     C_3   0.091345 0.187614 0.409208 -0.067009
H76   H     H_    0.108119 0.247863 0.365169 0.194300
H77   H     H_    0.089155 0.237959 0.460278 0.130665
H78   H     H_    0.037255 0.155814 0.397125 0.128905
O59   O     O_3   0.447264 0.420735 0.525132 -0.570733
C131  C     C_3   0.505325 0.491361 0.500702 -0.120979
H79   H     H_    0.496472 0.590137 0.501549 0.097190
H80   H     H_    0.518216 0.465928 0.445085 0.159591
H81   H     H_    0.552132 0.474417 0.534595 0.135765
O60   O     O_3   0.651341 0.598277 0.414832 -0.581538
C132  C     C_3   0.607024 0.699113 0.412885 -0.093534
H82   H     H_    0.626951 0.768434 0.375643 0.194311
H83   H     H_    0.597836 0.735139 0.467150 0.105478
H84   H     H_    0.555246 0.669383 0.392231 0.122625
O61   O     O_3   0.863966 0.182074 0.587206 -0.541111
C133  C     C_3   0.853927 0.163539 0.660911 -0.058277
H85   H     H_    0.859853 0.250316 0.688844 0.146707
H86   H     H_    0.894501 0.102581 0.683736 0.148863
H87   H     H_    0.799527 0.132454 0.672341 0.093605
O62   O     O_3   0.236986 0.212873 0.401071 -0.575491
C134  C     C_3   0.253812 0.176831 0.330998 -0.074472
H88   H     H_    0.206838 0.143198 0.301733 0.159271
H89   H     H_    0.296503 0.108412 0.331091 0.089889
H90   H     H_    0.273915 0.256183 0.301527 0.153135
O63   O     O_3   0.386113 0.573318 0.591058 -0.606081
C135  C     C_3   0.441193 0.553833 0.641613 -0.066628
H91   H     H_    0.489893 0.602800 0.626805 0.053761
H92   H     H_    0.454825 0.458582 0.649555 0.209602
H93   H     H_    0.423958 0.589691 0.693939 0.103456
O64   O     O_3   0.755446 0.715697 0.393080 -0.567811
C136  C     C_3   0.764332 0.674173 0.322604 -0.073537
H94   H     H_    0.784586 0.749534 0.289729 0.148226
H95   H     H_    0.713697 0.644651 0.298411 0.157818
H96   H     H_    0.804114 0.600918 0.320379 0.088509

loop_
_geom_bond_atom_site_label_1
_geom_bond_atom_site_label_2
_ccdc_geom_bond_type
C79   H3    S    
C112  O44   A    
C133  H87   S    
C109  O13   A    
C73   C93   S    
C11   H23   S    
Cr2   O18   S    
C46   O34   A    
C79   C99   A    
O60   C132  S    
Cr11  O15   S    
C22   C38   S    
C127  H65   S    
C23   C43   A    
O58   C130  S    
Cr3   O23   S    
C40   H44   S    
C113  C122  A    
C70   C74   A    
Cr3   O3    S    
Cr8   O32   S    
Cr6   O18   S    
C80   C84   A    
C59   C60   A    
Cr4   O48   S    
O53   C125  S    
C3    O27   A    
Cr2   O42   S    
C4    O24   A    
C25   C29   A    
C47   C116  S    
C75   C95   S    
C7    C119  A    
C92   O40   A    
C68   C101  S    
C25   C41   A    
C5    C117  A    
Cr11  O19   S    
C90   O2    A    
Cr7   O51   S    
C28   C44   A    
C17   C21   A    
C19   C23   A    
C34   H38   S    
C66   C82   A    
C78   C82   A    
C68   C72   A    
C37   H45   S    
Cr8   O52   S    
C64   O54   S    
C31   H31   S    
C102  O50   A    
C32   H32   S    
C129  H74   S    
C94   H14   S    
Cr5   O25   S    
C135  H91   S    
C13   C29   A    
Cr9   O13   S    
C50   C57   A    
C66   C103  S    
Cr12  O12   S    
C49   C106  S    
C76   C100  A    
Cr11  O39   S    
C36   H34   S    
C3    O23   A    
C35   H39   S    
C132  H83   S    
C19   C35   S    
C76   C96   S    
C83   H7    S    
C66   C70   A    
C49   C53   A    
Cr1   O21   S    
Cr6   O30   S    
C51   C55   A    
C43   C91   S    
Cr12  O16   S    
Cr10  O10   S    
C8    C10   A    
Cr5   O49   S    
C102  O46   A    
Cr4   O24   S    
C112  O16   A    
Cr6   O6    S    
C41   C89   S    
C67   C83   A    
C116  C123  A    
C88   O64   S    
C123  C124  A    
C106  O10   A    
C53   C54   A    
Cr1   O45   S    
C89   O37   A    
C128  H66   S    
C84   H8    S    
C29   H29   S    
C96   H16   S    
Cr1   O1    S    
C58   H54   S    
C27   H27   S    
C85   C93   S    
C45   C114  S    
C25   H25   S    
Cr10  O38   S    
C127  H64   S    
C50   C105  S    
C56   C64   S    
C77   C97   A    
C2    O22   A    
C9    C10   A    
C10   H22   S    
C135  H93   S    
Cr5   O17   S    
C61   O55   S    
C88   O60   S    
C123  H51   S    
C103  O47   A    
C63   O53   S    
C1    O25   A    
C130  H78   S    
C95   H11   S    
C131  H79   S    
C110  O42   A    
C126  H62   S    
C116  C120  A    
C87   C95   S    
C42   C90   S    
C97   C109  S    
C45   O29   A    
Cr12  O40   S    
Cr4   O44   S    
C99   C111  S    
C75   C99   A    
O61   C133  S    
C21   C37   S    
C113  C117  A    
C26   C30   A    
C115  C119  A    
Cr7   O27   S    
C106  O6    A    
C69   C85   S    
C26   C42   A    
C91   O3    A    
C125  H57   S    
C103  O51   A    
C46   C113  S    
C18   C22   A    
C89   O1    A    
O56   C128  S    
C44   C92   S    
C128  H68   S    
C39   H43   S    
C92   O4    A    
C15   C31   A    
C16   C32   A    
C37   H41   S    
C38   H46   S    
C13   C17   A    
C117  C118  A    
C62   H70   S    
C134  H89   S    
C57   C58   A    
C122  H50   S    
Cr5   O29   S    
C61   C62   S    
C63   C64   S    
C5    H17   S    
C104  O52   A    
Cr9   O9    S    
C107  O7    A    
C108  O8    A    
C51   C60   A    
C125  H59   S    
C94   H10   S    
Cr3   O43   S    
C55   C56   A    
C88   C96   S    
C98   C110  S    
C110  O14   A    
C74   C94   S    
C93   H13   S    
C130  H76   S    
C131  H81   S    
C82   H6    S    
C126  H60   S    
C15   C19   A    
Cr1   O17   S    
C50   C54   A    
C55   C63   S    
C77   H1    S    
C5    C11   A    
C6    C12   A    
O62   C134  S    
C124  H52   S    
C7    C9    A    
C133  H85   S    
Cr4   O20   S    
C85   O57   S    
C57   H53   S    
C114  C121  A    
C52   C107  S    
C47   O31   A    
Cr9   O37   S    
O59   C131  S    
C69   C73   A    
C108  O12   A    
Cr7   O19   S    
O57   C129  S    
Cr9   O17   S    
C129  H75   S    
C17   C33   S    
Cr1   O41   S    
C135  H92   S    
C96   H12   S    
Cr8   O20   S    
C60   H56   S    
C68   C84   A    
Cr2   O2    S    
C74   C98   A    
C64   H72   S    
C134  H88   S    
C54   C62   S    
O54   C126  S    
C80   H4    S    
C27   C31   A    
Cr6   O50   S    
C33   C37   S    
C105  O9    A    
O63   C135  S    
Cr7   O31   S    
C132  H82   S    
C105  O5    A    
C65   C81   A    
C28   C32   A    
C1    C16   S    
C87   O59   S    
C12   H24   S    
C2    C15   S    
C121  C122  A    
C6    H18   S    
C3    C14   S    
C71   C87   S    
C100  C112  S    
C101  O49   A    
C24   C44   A    
C95   H15   S    
C91   O39   A    
C33   H35   S    
C34   H36   S    
C48   O36   A    
C115  C124  A    
Cr2   O46   S    
Cr4   O4    S    
C119  C120  A    
Cr12  O36   S    
C85   O61   S    
C86   O62   S    
C111  O43   A    
Cr10  O34   S    
C79   C83   A    
Cr2   O22   S    
C65   C69   A    
C35   H33   S    
C26   H26   S    
C67   C71   A    
C126  H61   S    
Cr11  O11   S    
C20   C36   S    
C27   C43   A    
C7    H19   S    
C77   C81   A    
C129  H73   S    
C101  O45   A    
Cr3   O19   S    
C39   H47   S    
C40   H48   S    
C48   O32   A    
C38   H42   S    
C45   O33   A    
C14   C18   A    
C35   C39   S    
Cr8   O28   S    
C72   C76   A    
C107  O11   A    
C73   C97   A    
C136  H94   S    
C86   O58   S    
C130  H77   S    
C131  H80   S    
C90   O38   A    
C132  H84   S    
C121  H49   S    
C104  O48   A    
C59   H55   S    
C4    C13   S    
C86   C94   S    
C111  O15   A    
C20   C24   A    
C51   C108  S    
C46   O30   A    
C78   C98   A    
C93   H9    S    
C9    H21   S    
C33   H37   S    
C16   C20   A    
C81   H5    S    
C80   C100  A    
C53   C61   S    
C14   C30   A    
C78   H2    S    
C72   C88   S    
Cr10  O18   S    
C134  H90   S    
C125  H58   S    
C2    O26   A    
C36   C40   S    
C30   H30   S    
C128  H67   S    
C109  O41   A    
C136  H95   S    
C47   O35   A    
Cr9   O33   S    
C49   C58   A    
Cr5   O5    S    
C52   C59   A    
C136  H96   S    
Cr11  O35   S    
C127  H63   S    
Cr3   O47   S    
C18   C34   S    
C61   H69   S    
C114  C118  A    
C48   C115  S    
O64   C136  S    
C21   C41   A    
Cr6   O26   S    
O55   C127  S    
C70   C86   S    
C62   O56   S    
Cr12  O20   S    
C1    O21   A    
C28   H28   S    
Cr10  O14   S    
C8    C120  A    
Cr8   O8    S    
C34   C38   S    
C11   C12   A    
C36   H40   S    
Cr7   O7    S    
C4    O28   A    
C87   O63   S    
C71   C75   A    
C22   C42   A    
C23   C39   S    
C24   C40   S    
C133  H86   S    
C8    H20   S    
C65   C104  S    
C63   H71   S    
C6    C118  A    
C52   C56   A    
C67   C102  S    
