data_mof_unit_53860.cif
_audit_creation_date              2012-12-10T17:11:03-0500
_audit_creation_method            fapswitch 2.2
_symmetry_space_group_name_H-M    P1
_symmetry_Int_Tables_number       1
_space_group_crystal_system       triclinic
_cell_length_a                    11.672695
_cell_length_b                    12.954982
_cell_length_c                    13.509645
_cell_angle_alpha                 91.92047
_cell_angle_beta                  76.674779
_cell_angle_gamma                 100.448576
_cell_volume                      1954.88507062

loop_
_atom_site_label
_atom_site_type_symbol
_atom_type_description
_atom_site_fract_x
_atom_site_fract_y
_atom_site_fract_z
_atom_type_partial_charge
C1    C     C_R   0.523438 0.700999 0.496707 0.835994
C2    C     C_R   0.480877 0.542140 0.960461 0.075576
C3    C     C_R   0.475608 0.486884 0.869162 0.100804
C4    C     C_R   0.548527 0.510176 0.026488 -0.014358
C5    C     C_R   0.633781 0.442964 0.987068 0.054656
C6    C     C_R   0.640855 0.404395 0.886514 -0.045439
C7    C     C_R   0.550085 0.412556 0.838119 -0.263879
C8    C     C_R   0.528616 0.537126 0.131558 -0.050434
C9    C     C_R   0.691411 0.450992 0.149859 -0.192236
C10   C     C_R   0.405104 0.514760 0.805016 -0.093232
C11   C     C_R   0.467443 0.186010 0.494897 -0.107183
C12   C     C_R   0.436607 0.495524 0.695586 0.780558
C13   C     C_R   0.541949 0.815065 0.486035 -0.131349
C14   C     C_R   0.663536 0.984490 0.423183 -0.004974
C15   C     C_R   0.651659 0.874245 0.432267 -0.080963
C16   C     C_R   0.446386 0.864434 0.529765 -0.238159
C17   C     C_R   0.454718 0.971383 0.516939 0.146550
C18   C     C_R   0.560260 0.031549 0.457021 0.061890
C19   C     C_R   0.558751 0.137624 0.435598 -0.100235
C20   C     C_R   0.366640 0.126292 0.557239 -0.186618
C21   C     C_R   0.358114 0.018793 0.564794 -0.176274
C22   C     C_R   0.941996 0.590635 0.602781 -0.091112
C23   C     C_R   0.479345 0.299401 0.496535 0.766398
C24   C     C_R   0.824965 0.583950 0.589153 -0.003538
C25   C     C_R   0.856701 0.459609 0.458123 0.064383
C26   C     C_R   0.978067 0.466208 0.463322 0.015442
C27   C     C_R   0.021368 0.532629 0.537529 0.017097
C28   C     C_R   0.143002 0.539950 0.542231 0.092644
C29   C     C_R   0.174579 0.415035 0.411709 0.007743
C30   C     C_R   0.057126 0.407424 0.398721 -0.129678
C31   C     C_R   0.563772 0.507506 0.304270 0.847549
C32   C     C_R   0.703578 0.412405 0.051237 -0.012994
C33   C     C_R   0.599735 0.505253 0.192508 -0.096542
C34   C     C_R   0.331819 0.589521 0.836887 -0.140863
C35   C     C_R   0.344019 0.649499 0.921912 -0.126558
C36   C     C_R   0.423711 0.630888 0.978649 -0.201615
Cu1   Cu    Cu3+1 0.386470 0.492430 0.492410 0.982035
Cu2   Cu    Cu3+1 0.613530 0.507570 0.507590 0.944778
H1    H     H_    0.742130 0.424668 0.199005 0.205683
H2    H     H_    0.277885 0.611908 0.788577 0.180624
H3    H     H_    0.546916 0.368230 0.769098 0.149267
N1    N     N_R   0.215880 0.481050 0.481000 -0.190228
N2    N     N_R   0.784100 0.518950 0.519000 -0.196711
O1    O     O_R   0.419710 0.645650 0.494620 -0.559388
O2    O     O_R   0.611450 0.658430 0.507430 -0.614618
O3    O     O_R   0.357340 0.490460 0.641450 -0.574982
O4    O     O_R   0.549080 0.503250 0.654260 -0.581502
O5    O     O_R   0.388550 0.341570 0.492570 -0.576738
O6    O     O_R   0.580290 0.354350 0.505380 -0.608436
O7    O     O_R   0.450920 0.496750 0.345740 -0.571267
O8    O     O_R   0.642660 0.509540 0.358550 -0.587074
H4    H     H_    0.294818 0.163141 0.600661 0.161161
C37   C     C_2   0.784793 0.052253 0.395991 0.441937
H5    H     H_    0.798548 0.130639 0.427206 0.031644
O9    O     O_2   0.869789 0.022947 0.338806 -0.489093
H6    H     H_    0.278115 0.973354 0.611909 0.143944
C38   C     C_2   0.752311 0.820666 0.384557 0.513834
H7    H     H_    0.798255 0.784475 0.431476 0.050108
O10   O     O_2   0.783245 0.815823 0.292082 -0.458824
H8    H     H_    0.364289 0.818766 0.573970 0.148551
H9    H     H_    0.181907 0.593340 0.593384 0.163470
H10   H     H_    0.235123 0.369958 0.363812 0.123091
C39   C     C_2   0.973397 0.657095 0.687628 0.364725
H11   H     H_    0.930070 0.724264 0.710646 0.065754
O11   O     O_2   0.040824 0.634437 0.736984 -0.526773
C40   C     C_2   0.024621 0.338300 0.315868 0.345058
H12   H     H_    0.067358 0.270474 0.294799 0.104156
O12   O     O_2   0.956785 0.359170 0.266047 -0.501682
H13   H     H_    0.764258 0.628615 0.637430 0.130049
C41   C     C_2   0.745743 0.365704 0.822734 0.325651
H14   H     H_    0.733078 0.305219 0.766691 0.067271
O13   O     O_2   0.847448 0.406321 0.826858 -0.488981
H15   H     H_    0.817751 0.406597 0.406819 0.163931
C42   C     C_2   0.773124 0.325764 0.026801 0.521363
H16   H     H_    0.744800 0.260575 0.980366 0.044403
O14   O     O_2   0.861398 0.324941 0.060637 -0.457087
C43   C     C_2   0.424295 0.585980 0.181935 0.370502
H17   H     H_    0.335974 0.554302 0.169735 0.084554
O15   O     O_2   0.437280 0.663398 0.235190 -0.505327
H18   H     H_    0.443069 0.689844 0.033573 0.176741
H19   H     H_    0.297750 0.715393 0.939887 0.168585
C44   C     C_2   0.637113 0.193160 0.342303 0.338204
H20   H     H_    0.659921 0.277969 0.338740 0.079892
O16   O     O_2   0.671308 0.144354 0.265532 -0.481305

loop_
_geom_bond_atom_site_label_1
_geom_bond_atom_site_label_2
_ccdc_geom_bond_type
C40   O12   D    
C39   O11   D    
C29   N1    A    
C14   C18   A    
C35   C36   A    
C4    C8    A    
C25   N2    A    
C35   H19   S    
Cu2   O6    S    
C43   H17   S    
C11   C19   A    
C26   C27   A    
C29   C30   A    
C42   O14   D    
C34   H2    S    
C34   C35   A    
C3    C7    A    
C32   C42   S    
C5    C6    A    
C38   O10   D    
C9    H1    S    
C18   C19   A    
C16   H8    S    
C11   C23   S    
Cu1   N1    S    
Cu2   O2    S    
C9    C32   A    
C22   C39   S    
C16   C17   A    
C31   C33   S    
C41   H14   S    
C19   C44   S    
C5    C32   A    
C28   H9    S    
C37   O9    D    
C40   H12   S    
C9    C33   A    
C15   C38   S    
C12   O4    A    
C24   H13   S    
C43   O15   D    
C11   C20   A    
C42   H16   S    
C12   O3    A    
C36   H18   S    
Cu2   O8    S    
C25   C26   A    
C37   H5    S    
C17   C21   A    
C2    C4    A    
Cu1   Cu2   S    
C1    O1    A    
C17   C18   A    
C10   C34   A    
Cu1   O5    S    
Cu2   O4    S    
C30   C40   S    
C10   C12   S    
C26   C30   A    
C44   O16   D    
C22   C27   A    
C13   C15   A    
C8    C43   S    
C22   C24   A    
C1    C13   S    
C31   O7    A    
C2    C36   A    
C6    C41   S    
C29   H10   S    
C23   O5    A    
C31   O8    A    
C4    C5    A    
C21   H6    S    
C6    C7    A    
Cu1   O1    S    
C2    C3    A    
Cu2   N2    S    
C20   H4    S    
C3    C10   A    
Cu1   O7    S    
C1    O2    A    
C38   H7    S    
C28   N1    A    
C25   H15   S    
C8    C33   A    
C7    H3    S    
C23   O6    A    
C39   H11   S    
C14   C37   S    
C20   C21   A    
C44   H20   S    
C13   C16   A    
C27   C28   A    
C24   N2    A    
C14   C15   A    
C41   O13   D    
Cu1   O3    S    
