data_mof_unit_58020.cif
_audit_creation_date              2012-12-10T19:15:16-0500
_audit_creation_method            fapswitch 2.2
_symmetry_space_group_name_H-M    P1
_symmetry_Int_Tables_number       1
_space_group_crystal_system       triclinic
_cell_length_a                    10.632999
_cell_length_b                    9.673299
_cell_length_c                    23.433768
_cell_angle_alpha                 90.258844
_cell_angle_beta                  89.8678
_cell_angle_gamma                 89.979725
_cell_volume                      2410.27665426

loop_
_atom_site_label
_atom_site_type_symbol
_atom_type_description
_atom_site_fract_x
_atom_site_fract_y
_atom_site_fract_z
_atom_type_partial_charge
C1    C     C_R   0.257591 0.499753 0.501188 0.881841
C2    C     C_R   0.601662 0.464597 0.119909 0.517901
C3    C     C_R   0.489716 0.372185 0.237411 0.056445
C4    C     C_R   0.499676 0.499704 0.389189 0.877114
C5    C     C_R   0.494054 0.373412 0.296947 -0.276577
C6    C     C_R   0.497024 0.499164 0.327006 -0.050841
C7    C     C_R   0.495979 0.624576 0.297365 -0.228435
C8    C     C_R   0.492770 0.624415 0.238334 -0.118390
C9    C     C_R   0.490111 0.499504 0.208227 0.283301
C10   C     C_R   0.504701 0.378938 0.762485 -0.083498
C11   C     C_R   0.502833 0.376929 0.703254 -0.175227
C12   C     C_R   0.287415 0.596220 0.968969 -0.155879
C13   C     C_R   0.503429 0.501724 0.672926 -0.029472
C14   C     C_R   0.507065 0.628268 0.702472 -0.175255
C15   C     C_R   0.509012 0.629870 0.761646 -0.078741
C16   C     C_R   0.742467 0.499624 0.501847 0.949619
C17   C     C_R   0.507352 0.505350 0.791577 0.306434
C18   C     C_3   0.073226 0.589177 0.552870 -0.423925
C19   C     C_3   0.072779 0.348595 0.511044 -0.420210
C20   C     C_3   0.929144 0.600252 0.550094 0.275185
C21   C     C_3   0.929649 0.347514 0.512888 0.273161
C22   C     C_3   0.071319 0.555290 0.445244 -0.410763
C23   C     C_R   0.285135 0.596046 0.028352 -0.171429
C24   C     C_3   0.121371 0.498563 0.502540 0.048996
C25   C     C_3   0.878664 0.498066 0.503656 -0.004683
C26   C     C_3   0.927166 0.548622 0.444782 -0.579744
C27   C     C_3   0.381211 0.081172 0.474875 -0.237907
C28   C     C_3   0.381246 0.918383 0.474830 -0.233388
C29   C     C_3   0.604724 0.080996 0.463974 -0.235525
C30   C     C_3   0.604779 0.918153 0.463997 -0.234297
C31   C     C_3   0.513327 0.081856 0.557265 -0.220851
C32   C     C_3   0.513334 0.919299 0.557264 -0.230516
C33   C     C_R   0.500831 0.500364 0.610763 0.939542
C34   C     C_R   0.390807 0.552129 0.059133 -0.014781
C35   C     C_R   0.611053 0.465934 0.881072 0.512149
C36   C     C_R   0.399535 0.550459 0.879882 0.503764
C37   C     C_R   0.395475 0.552666 0.939425 -0.015101
C38   C     C_R   0.502351 0.509340 0.969942 -0.021840
C39   C     C_R   0.611397 0.465813 0.940666 -0.021548
C40   C     C_R   0.485954 0.237889 0.206620 0.117741
C41   C     C_R   0.390566 0.209626 0.166792 -0.169376
C42   C     C_R   0.388542 0.083403 0.137477 -0.112482
C43   C     C_R   0.481080 0.984140 0.147873 -0.095209
C44   C     C_R   0.575521 0.010726 0.187813 -0.155555
C45   C     C_R   0.499988 0.509016 0.029875 -0.021429
C46   C     C_R   0.577898 0.136794 0.217238 -0.108029
C47   C     C_R   0.606721 0.465315 0.060394 -0.015392
C48   C     C_R   0.715229 0.423105 0.030867 -0.159880
C49   C     C_R   0.717529 0.423283 0.971475 -0.154788
C50   C     C_R   0.390037 0.548796 0.118669 0.465680
Cl1   Cl    Cl    0.859541 0.579644 0.619425 -0.541402
Cl2   Cl    Cl    0.875403 0.265882 0.577277 -0.579880
H1    H     H_    0.204285 0.630117 0.946353 0.197438
H2    H     H_    0.896459 0.280377 0.477215 0.093161
H3    H     H_    0.102160 0.664326 0.439391 0.187988
H4    H     H_    0.109514 0.493687 0.408874 0.181780
H5    H     H_    0.888897 0.652878 0.434688 0.196081
H6    H     H_    0.895471 0.477089 0.410327 0.189613
H7    H     H_    0.367358 0.119783 0.430685 0.146241
H8    H     H_    0.367617 0.879018 0.430594 0.146624
H9    H     H_    0.200294 0.629735 0.049987 0.193621
H10   H     H_    0.299613 0.118829 0.500302 0.153058
H11   H     H_    0.299525 0.881077 0.500130 0.151966
H12   H     H_    0.500400 0.278145 0.681339 0.155073
H13   H     H_    0.597809 0.119185 0.419389 0.139495
H14   H     H_    0.597930 0.878990 0.419413 0.143700
H15   H     H_    0.601939 0.120652 0.576742 0.199779
H16   H     H_    0.601987 0.880808 0.576716 0.175706
H17   H     H_    0.435207 0.120181 0.584757 0.146215
H18   H     H_    0.435238 0.881534 0.584747 0.149246
H19   H     H_    0.696130 0.118955 0.480778 0.174415
H20   H     H_    0.696222 0.880467 0.480821 0.155975
H21   H     H_    0.798366 0.389277 0.053496 0.192804
H22   H     H_    0.802410 0.389695 0.949846 0.196369
H23   H     H_    0.508159 0.725844 0.679988 0.154365
H24   H     H_    0.493696 0.276097 0.319713 0.151226
H25   H     H_    0.498168 0.722858 0.319686 0.153646
H26   H     H_    0.493602 0.721599 0.215686 0.139338
H27   H     H_    0.503120 0.282652 0.785874 0.143269
H28   H     H_    0.317171 0.284551 0.158796 0.160052
H29   H     H_    0.314976 0.062393 0.106798 0.145659
H30   H     H_    0.479350 0.886475 0.125132 0.136536
H31   H     H_    0.647044 0.933678 0.195930 0.137350
H32   H     H_    0.652205 0.156266 0.247771 0.132617
H33   H     H_    0.511321 0.727584 0.784360 0.143218
H34   H     H_    0.114166 0.694982 0.550934 0.158581
H35   H     H_    0.104930 0.281211 0.475163 0.147443
H36   H     H_    0.103513 0.542739 0.593987 0.219637
H37   H     H_    0.112492 0.304761 0.551013 0.217187
H38   H     H_    0.905048 0.707664 0.537089 0.114641
N1    N     N_R   0.506070 0.507403 0.852266 -0.361822
N2    N     N_R   0.493798 0.503704 0.147480 -0.357682
N3    N     N_3   0.499750 0.138610 0.498760 -0.039470
N4    N     N_3   0.499750 0.861390 0.498760 -0.038854
O1    O     O_R   0.314910 0.616040 0.499990 -0.636682
O2    O     O_2   0.297790 0.589789 0.849658 -0.540064
O3    O     O_2   0.286222 0.588433 0.147700 -0.566318
O4    O     O_2   0.703418 0.425480 0.150168 -0.562630
O5    O     O_R   0.314910 0.383960 0.499990 -0.639214
O6    O     O_R   0.500080 0.616070 0.416130 -0.631702
O7    O     O_R   0.500080 0.383930 0.416130 -0.633767
O8    O     O_R   0.685320 0.616040 0.499970 -0.636031
O9    O     O_R   0.685320 0.383960 0.499970 -0.605225
O10   O     O_R   0.500150 0.616010 0.583820 -0.627984
O11   O     O_R   0.500150 0.383990 0.583820 -0.620981
O12   O     O_2   0.714603 0.425666 0.851995 -0.524043
Zn1   Zn    Zn3+2 0.500150 0.654960 0.499970 0.920726
Zn2   Zn    Zn3+2 0.500150 0.345040 0.499970 0.933999

loop_
_geom_bond_atom_site_label_1
_geom_bond_atom_site_label_2
_ccdc_geom_bond_type
C32   N4    S    
C33   O10   A    
C41   C42   A    
C17   N1    S    
C44   H31   S    
C1    O5    A    
C41   H28   S    
C22   H3    S    
C7    C8    A    
C31   H15   S    
O5    Zn2   S    
C12   C23   A    
C18   H34   S    
C18   C24   S    
C36   C37   A    
C19   C21   S    
C20   Cl1   S    
C19   H35   S    
N3    Zn2   S    
C21   H2    S    
C20   C25   S    
C10   C17   A    
C28   N4    S    
C12   C37   A    
C38   C45   A    
C47   C48   A    
C8    C9    A    
C50   O3    S    
O9    Zn2   S    
C29   C30   S    
C12   H1    S    
C32   H16   S    
O7    Zn2   S    
C45   C47   A    
C13   C14   A    
C8    H26   S    
C42   H29   S    
C9    N2    S    
C44   C46   A    
C28   H8    S    
C38   C39   A    
O11   Zn2   S    
N4    Zn1   S    
C34   C50   A    
C33   O11   A    
C4    C6    S    
C11   H12   S    
C22   H4    S    
C25   C26   S    
C31   N3    S    
C20   H38   S    
C18   H36   S    
C35   C39   A    
C43   C44   A    
C13   C33   S    
C37   C38   A    
C19   H37   S    
C27   H10   S    
C36   O2    S    
C16   O9    A    
C30   H20   S    
C31   C32   S    
C23   H9    S    
C1    O1    A    
C23   C34   A    
C4    O7    A    
O8    Zn1   S    
C34   C45   A    
C2    N2    A    
C3    C9    A    
C26   H6    S    
C30   H14   S    
O1    Zn1   S    
C29   H13   S    
C36   N1    A    
C50   N2    A    
C40   C41   A    
C39   C49   A    
C3    C40   S    
C4    O6    A    
C7    H25   S    
C22   C24   S    
C27   N3    S    
C42   C43   A    
C40   C46   A    
C16   O8    A    
C16   C25   S    
C15   C17   A    
C21   C25   S    
C48   C49   A    
O6    Zn1   S    
C49   H22   S    
C48   H21   S    
C3    C5    A    
C32   H18   S    
C10   H27   S    
C6    C7    A    
C2    C47   A    
C15   H33   S    
C14   H23   S    
C5    H24   S    
C19   C24   S    
C30   N4    S    
C35   O12   S    
C27   H7    S    
C29   N3    S    
C11   C13   A    
C5    C6    A    
C46   H32   S    
C18   C20   S    
O10   Zn1   S    
C26   H5    S    
C10   C11   A    
C28   H11   S    
C31   H17   S    
C2    O4    S    
C1    C24   S    
C22   C26   S    
C27   C28   S    
C43   H30   S    
C14   C15   A    
C21   Cl2   S    
C29   H19   S    
C35   N1    A    
