data_mof_unit_65987.cif
_audit_creation_date              2012-12-10T17:58:22-0500
_audit_creation_method            fapswitch 2.2
_symmetry_space_group_name_H-M    P1
_symmetry_Int_Tables_number       1
_space_group_crystal_system       triclinic
_cell_length_a                    21.733117
_cell_length_b                    21.733932
_cell_length_c                    22.104959
_cell_angle_alpha                 119.277708
_cell_angle_beta                  119.216314
_cell_angle_gamma                 89.724121
_cell_volume                      7564.37269615

loop_
_atom_site_label
_atom_site_type_symbol
_atom_type_description
_atom_site_fract_x
_atom_site_fract_y
_atom_site_fract_z
_atom_type_partial_charge
C1    C     C_R   0.500040 0.118756 0.500269 0.798455
C2    C     C_3   0.712527 0.251927 0.049645 -0.383359
C3    C     C_3   0.792131 0.290446 0.082721 0.296638
C4    C     C_3   0.826426 0.229665 0.050059 -0.375821
C5    C     C_3   0.778341 0.179941 0.952357 -0.022596
C6    C     C_1   0.837866 0.337491 0.174928 -0.105346
C7    C     C_1   0.662212 0.161559 0.824992 -0.122644
C8    C     C_1   0.624274 0.124530 0.749609 -0.178963
C9    C     C_R   0.437106 0.195738 0.452704 0.127580
C10   C     C_R   0.501193 0.186010 0.502306 -0.089464
C11   C     C_R   0.568035 0.244014 0.554031 -0.210645
C12   C     C_R   0.579745 0.079990 0.659886 0.823341
C13   C     C_R   0.567979 0.309206 0.554664 -0.214621
C14   C     C_R   0.501527 0.315657 0.501424 -0.090100
C15   C     C_R   0.437549 0.256884 0.450957 0.126990
C16   C     C_3   0.356462 0.230056 0.387026 -0.485601
C17   C     C_3   0.356064 0.159768 0.388327 -0.474283
C18   C     C_3   0.224056 0.732074 0.049658 -0.374620
C19   C     C_3   0.337234 0.750128 0.047951 -0.372140
C20   C     C_3   0.288619 0.701505 0.950956 -0.374729
C21   C     C_1   0.125127 0.624350 0.749744 -0.175051
C22   C     C_3   0.291963 0.790981 0.082589 0.324212
C23   C     C_R   0.500534 0.881550 0.500607 0.793060
C24   C     C_3   0.175443 0.683454 0.952670 -0.374007
C25   C     C_3   0.209175 0.708178 0.917416 0.323685
C26   C     C_3   0.214725 0.790848 0.950898 -0.373168
C27   C     C_3   0.263338 0.839468 0.047883 -0.376442
C28   C     C_1   0.162936 0.661980 0.825175 -0.115279
C29   C     C_1   0.338146 0.837228 0.174829 -0.115253
C30   C     C_1   0.375743 0.875045 0.250260 -0.175163
C31   C     C_R   0.440232 0.751022 0.436944 0.101784
C32   C     C_R   0.501535 0.814470 0.499503 -0.074155
C33   C     C_R   0.567019 0.809955 0.555924 -0.210684
C34   C     C_R   0.420237 0.920042 0.340072 0.825241
C35   C     C_R   0.566984 0.745631 0.556181 -0.215821
C36   C     C_R   0.502132 0.684743 0.498085 -0.087114
C37   C     C_R   0.440840 0.686820 0.435588 0.138190
C38   C     C_3   0.361669 0.669466 0.407918 -0.485820
C39   C     C_3   0.361157 0.740237 0.409665 -0.462651
C40   C     C_R   0.881410 0.499994 0.499757 0.798252
C41   C     C_R   0.920231 0.420210 0.340091 0.821916
C42   C     C_R   0.118678 0.499464 0.499434 0.793969
C43   C     C_R   0.080138 0.579790 0.659933 0.825240
C44   C     C_R   0.618798 0.499886 0.499708 0.806764
C45   C     C_3   0.662993 0.205531 0.952713 -0.364159
C46   C     C_R   0.500190 0.381295 0.500315 0.806840
C47   C     C_R   0.381136 0.500129 0.500328 0.800626
C48   C     C_R   0.499950 0.618927 0.499664 0.800204
C49   C     C_R   0.804402 0.562965 0.547405 0.127682
C50   C     C_R   0.814129 0.498852 0.497699 -0.089450
C51   C     C_R   0.756085 0.431998 0.445828 -0.210828
C52   C     C_R   0.690874 0.432069 0.445176 -0.214684
C53   C     C_R   0.684430 0.498542 0.498544 -0.090242
C54   C     C_R   0.743235 0.562530 0.549133 0.127167
C55   C     C_3   0.770121 0.643632 0.613277 -0.485409
C56   C     C_3   0.738919 0.288465 0.950003 -0.425558
C57   C     C_3   0.840420 0.644019 0.611989 -0.474842
C58   C     C_R   0.248399 0.560918 0.561607 0.102615
C59   C     C_R   0.185865 0.498554 0.500766 -0.075881
C60   C     C_R   0.191469 0.432426 0.446399 -0.209510
C61   C     C_R   0.255720 0.432490 0.446031 -0.217261
C62   C     C_R   0.315471 0.498100 0.502068 -0.084925
C63   C     C_R   0.312600 0.560394 0.562980 0.137042
C64   C     C_3   0.328179 0.638599 0.587134 -0.488490
C65   C     C_3   0.257395 0.639017 0.585361 -0.459828
C66   C     C_3   0.787105 0.337729 0.046946 -0.383297
C67   C     C_1   0.875414 0.375545 0.250327 -0.174494
C68   C     C_3   0.709182 0.206341 0.917301 0.302007
Cu1   Cu    Cu3+1 0.438190 0.000000 0.500020 0.939979
Cu2   Cu    Cu3+1 0.561810 0.000000 0.499980 0.943516
Cu3   Cu    Cu3+1 0.000200 0.561800 0.500000 0.939635
Cu4   Cu    Cu3+1 0.000170 0.438200 0.500000 0.944238
Cu5   Cu    Cu3+1 0.541330 0.541310 0.582630 0.939000
Cu6   Cu    Cu3+1 0.458770 0.458690 0.417370 0.938112
H1    H     H_    0.687556 0.294284 0.074711 0.165286
H2    H     H_    0.634938 0.148061 0.926906 0.163671
H3    H     H_    0.714368 0.215397 0.071918 0.156302
H4    H     H_    0.883491 0.256225 0.072718 0.139571
H5    H     H_    0.619647 0.239353 0.594308 0.154458
H6    H     H_    0.619542 0.353576 0.595252 0.153343
H7    H     H_    0.326432 0.264189 0.412371 0.192370
H8    H     H_    0.343885 0.219997 0.327220 0.204174
H9    H     H_    0.325337 0.153019 0.413848 0.206633
H10   H     H_    0.343743 0.109263 0.329449 0.191565
H11   H     H_    0.171100 0.624270 0.929953 0.162821
H12   H     H_    0.617742 0.229694 0.932345 0.163234
H13   H     H_    0.242945 0.696127 0.073300 0.160498
H14   H     H_    0.386273 0.791124 0.070285 0.162672
H15   H     H_    0.358253 0.714521 0.071560 0.162091
H16   H     H_    0.286409 0.642662 0.928208 0.162986
H17   H     H_    0.314424 0.719264 0.926932 0.160778
H18   H     H_    0.230260 0.869278 0.071446 0.160429
H19   H     H_    0.310984 0.882148 0.070213 0.160844
H20   H     H_    0.158412 0.797420 0.928108 0.160446
H21   H     H_    0.190233 0.759854 0.073249 0.161752
H22   H     H_    0.118390 0.688001 0.929907 0.159946
H23   H     H_    0.772459 0.292702 0.926203 0.161299
H24   H     H_    0.239136 0.810293 0.926874 0.161474
H25   H     H_    0.616794 0.857188 0.602140 0.147266
H26   H     H_    0.616772 0.743979 0.602464 0.151555
H27   H     H_    0.325763 0.618449 0.343948 0.201956
H28   H     H_    0.354890 0.671626 0.455557 0.186353
H29   H     H_    0.324919 0.729996 0.346702 0.193335
H30   H     H_    0.354207 0.783526 0.458469 0.211406
H31   H     H_    0.760733 0.380365 0.405457 0.154290
H32   H     H_    0.646488 0.380491 0.404488 0.153305
H33   H     H_    0.736111 0.673792 0.588115 0.192735
H34   H     H_    0.691939 0.309724 0.926373 0.175430
H35   H     H_    0.780078 0.656093 0.673007 0.204197
H36   H     H_    0.847300 0.674865 0.586654 0.206599
H37   H     H_    0.890827 0.656222 0.670800 0.191566
H38   H     H_    0.145055 0.381990 0.401693 0.149018
H39   H     H_    0.258190 0.382093 0.401231 0.149971
H40   H     H_    0.379006 0.676276 0.650812 0.202390
H41   H     H_    0.325254 0.643148 0.537901 0.186428
H42   H     H_    0.267437 0.676979 0.648015 0.193534
H43   H     H_    0.213340 0.643679 0.534946 0.211053
H44   H     H_    0.762543 0.381805 0.069494 0.171550
H45   H     H_    0.843568 0.365764 0.069483 0.164179
H46   H     H_    0.812902 0.191956 0.932910 0.117496
H47   H     H_    0.832779 0.197408 0.077860 0.161538
O1    O     O_R   0.447800 0.090170 0.500010 -0.585209
O2    O     O_R   0.909990 0.447840 0.500030 -0.587354
O3    O     O_R   0.939920 0.491910 0.379430 -0.580224
O4    O     O_R   0.939890 0.387530 0.379440 -0.585499
O5    O     O_R   0.090380 0.552160 0.499970 -0.588012
O6    O     O_R   0.090350 0.447780 0.499980 -0.586228
O7    O     O_R   0.060480 0.612470 0.620560 -0.584031
O8    O     O_R   0.060450 0.508090 0.620570 -0.578940
O9    O     O_R   0.625130 0.534920 0.569820 -0.589349
O10   O     O_R   0.555400 0.465140 0.430260 -0.587031
O11   O     O_R   0.534920 0.444720 0.569790 -0.586906
O12   O     O_R   0.552190 0.090170 0.499980 -0.587342
O13   O     O_R   0.465190 0.374940 0.430230 -0.589467
O14   O     O_R   0.444700 0.534860 0.569740 -0.583176
O15   O     O_R   0.374970 0.465080 0.430180 -0.589885
O16   O     O_R   0.534910 0.625060 0.569770 -0.589639
O17   O     O_R   0.465180 0.555280 0.430210 -0.583375
O18   O     O_R   0.508090 0.060280 0.620580 -0.579384
O19   O     O_R   0.612480 0.060280 0.620550 -0.586644
O20   O     O_R   0.447810 0.909830 0.500020 -0.587833
O21   O     O_R   0.552200 0.909830 0.499990 -0.586021
O22   O     O_R   0.387520 0.939720 0.379450 -0.583933
O23   O     O_R   0.491910 0.939720 0.379420 -0.578897
O24   O     O_R   0.910020 0.552220 0.500020 -0.585212
C69   C     C_3   0.762549 0.094729 0.913336 -0.394453
C70   C     C_3   0.743378 0.064403 0.954265 -0.331883
C71   C     C_3   0.704065 0.981002 0.894723 -0.862317
H48   H     H_    0.650125 0.968686 0.838984 0.254423
H49   H     H_    0.739004 0.951544 0.874446 0.253549
H50   H     H_    0.693489 0.960299 0.926864 0.241336
H51   H     H_    0.795141 0.074206 0.010506 0.205441
H52   H     H_    0.707808 0.091767 0.974191 0.220616
H53   H     H_    0.718406 0.063884 0.845680 0.209588
H54   H     H_    0.812882 0.080509 0.916637 0.177912

loop_
_geom_bond_atom_site_label_1
_geom_bond_atom_site_label_2
_ccdc_geom_bond_type
C26   H20   S    
Cu1   O18   S    
C22   C29   S    
C47   O15   A    
Cu5   Cu6   S    
C54   C55   S    
C19   C20   S    
C71   H50   S    
C3    C6    S    
C47   C62   S    
C39   H30   S    
C14   C46   S    
C53   C54   A    
C44   O10   A    
Cu2   O19   S    
Cu6   O17   S    
C34   O23   A    
C26   C27   S    
C29   C30   T    
C40   O24   A    
C45   H2    S    
C19   H15   S    
C41   O3    A    
C36   C37   A    
C71   H49   S    
C38   H27   S    
C70   H51   S    
C24   H22   S    
C46   O11   A    
C38   C39   S    
C56   C66   S    
C20   C25   S    
C44   O9    A    
C15   C16   S    
C49   C57   S    
C1    O1    A    
C56   H34   S    
C70   C71   S    
C7    C68   S    
C21   C43   S    
C44   C53   S    
C69   H54   S    
Cu5   O14   S    
C16   C17   S    
Cu6   O15   S    
Cu2   O12   S    
C12   O19   A    
C23   O21   A    
C36   C48   S    
C24   H11   S    
C8    C12   S    
C13   H6    S    
C52   H32   S    
C59   C60   A    
C64   H41   S    
Cu6   O10   S    
C55   H35   S    
C18   H21   S    
C61   C62   A    
C56   H23   S    
C45   C68   S    
C5    C68   S    
C1    O12   A    
C2    C45   S    
C20   H17   S    
C34   O22   A    
Cu2   O21   S    
C64   H40   S    
C30   C34   S    
Cu4   O6    S    
C51   C52   A    
C41   O4    A    
Cu3   O3    S    
C7    C8    T    
C19   C22   S    
C71   H48   S    
C41   C67   S    
C19   H14   S    
C5    H46   S    
C25   C26   S    
C56   C68   S    
C20   H16   S    
C31   C37   A    
C55   H33   S    
C60   C61   A    
C25   C28   S    
C35   C36   A    
C43   O7    A    
C33   H25   S    
C4    H4    S    
C37   C38   S    
C60   H38   S    
C46   O13   A    
C58   C65   S    
C31   C32   A    
C69   H53   S    
C43   O8    A    
C51   H31   S    
C62   C63   A    
C16   H8    S    
C50   C51   A    
C12   O18   A    
C27   H18   S    
Cu3   O5    S    
C24   C25   S    
C11   H5    S    
C42   O6    A    
C26   H24   S    
C48   O16   A    
C9    C17   S    
C6    C67   T    
Cu3   O24   S    
C21   C28   T    
C22   C27   S    
C55   C57   S    
Cu4   O2    S    
C61   H39   S    
C65   H42   S    
C18   C24   S    
Cu3   O7    S    
C27   H19   S    
C3    C66   S    
C3    C4    S    
C52   C53   A    
C69   C70   S    
C9    C10   A    
Cu4   O8    S    
C58   C63   A    
C40   O2    A    
Cu5   O9    S    
C5    C69   S    
C49   C54   A    
C47   O14   A    
C18   C22   S    
C1    C10   S    
C4    C5    S    
C42   C59   S    
C57   H36   S    
C39   H29   S    
Cu1   O22   S    
Cu2   O23   S    
C18   H13   S    
C48   O17   A    
Cu4   O4    S    
C66   H45   S    
C17   H10   S    
C32   C33   A    
C45   H12   S    
C58   C59   A    
Cu3   Cu4   S    
C38   H28   S    
C2    H3    S    
C23   C32   S    
C11   C13   A    
C57   H37   S    
Cu5   O16   S    
Cu1   O1    S    
C40   C50   S    
Cu6   O13   S    
C64   C65   S    
C16   H7    S    
C33   C35   A    
C31   C39   S    
C4    H47   S    
C2    C3    S    
C9    C15   A    
Cu1   Cu2   S    
C70   H52   S    
Cu5   O11   S    
C10   C11   A    
C42   O5    A    
C63   C64   S    
C49   C50   A    
C66   H44   S    
C65   H43   S    
C14   C15   A    
C23   O20   A    
C17   H9    S    
C13   C14   A    
Cu1   O20   S    
C2    H1    S    
C35   H26   S    
