data_mof_unit_8882.cif
_audit_creation_date              2013-03-05T15:46:19-0500
_audit_creation_method            fapswitch 2.2
_symmetry_space_group_name_H-M    P1
_symmetry_Int_Tables_number       1
_space_group_crystal_system       triclinic
_cell_length_a                    17.457671
_cell_length_b                    24.682434
_cell_length_c                    14.742644
_cell_angle_alpha                 89.989679
_cell_angle_beta                  125.71826
_cell_angle_gamma                 90.007207
_cell_volume                      5157.63817059

loop_
_atom_site_label
_atom_site_type_symbol
_atom_site_description
_atom_site_fract_x
_atom_site_fract_y
_atom_site_fract_z
_atom_type_partial_charge
C1    C     C_R   0.846306 0.650422 0.911048 0.873413
C2    C     C_R   0.155855 0.350728 0.090972 0.850998
C3    C     C_R   0.155236 0.649490 0.090950 0.850880
C4    C     C_R   0.846328 0.349568 0.911070 0.872900
C5    C     C_R   0.313811 0.129386 0.910002 0.818919
C6    C     C_R   0.688336 0.873309 0.089178 0.815662
C7    C     C_R   0.688368 0.126653 0.089189 0.820744
C8    C     C_R   0.313817 0.870596 0.909992 0.822974
N1    N     N_R   0.892620 0.603790 0.941800 -0.164741
N2    N     N_R   0.107380 0.396210 0.058200 -0.156724
N3    N     N_R   0.107380 0.603790 0.058200 -0.156464
N4    N     N_R   0.892620 0.396210 0.941800 -0.164399
N5    N     N_R   0.392620 0.103790 0.941800 -0.130502
N6    N     N_R   0.607380 0.896210 0.058200 -0.129260
N7    N     N_R   0.607380 0.103790 0.058200 -0.129341
N8    N     N_R   0.392620 0.896210 0.941800 -0.130733
C9    C     C_R   0.937054 0.353371 0.097194 -0.043057
C10   C     C_R   0.061359 0.647977 0.904853 -0.002485
C11   C     C_R   0.061806 0.352218 0.904816 -0.003572
C12   C     C_R   0.937024 0.646614 0.097174 -0.045218
C13   C     C_R   0.410595 0.871482 0.096533 -0.026203
C14   C     C_R   0.593180 0.123262 0.902665 -0.042337
C15   C     C_R   0.593147 0.876728 0.902651 -0.041471
C16   C     C_R   0.410565 0.128441 0.096544 -0.025621
H1    H     H_    0.976754 0.341197 0.183691 0.250734
H2    H     H_    0.018420 0.662615 0.819944 0.257217
H3    H     H_    0.018905 0.337550 0.819945 0.256349
H4    H     H_    0.976716 0.658783 0.183668 0.250026
H5    H     H_    0.443642 0.858802 0.181392 0.262820
H6    H     H_    0.562935 0.131048 0.815889 0.229737
H7    H     H_    0.562883 0.868962 0.815866 0.229786
H8    H     H_    0.443626 0.141099 0.181406 0.262649
N9    N     N_R   0.952210 0.397600 0.057910 -0.123803
N10   N     N_R   0.047790 0.602400 0.942090 -0.133516
N11   N     N_R   0.047790 0.397600 0.942090 -0.133533
N12   N     N_R   0.952210 0.602400 0.057910 -0.123701
N13   N     N_R   0.452210 0.897600 0.057910 -0.116055
N14   N     N_R   0.547790 0.102400 0.942090 -0.093073
N15   N     N_R   0.547790 0.897600 0.942090 -0.093147
N16   N     N_R   0.452210 0.102400 0.057910 -0.115696
C17   C     C_R   0.054830 0.545010 0.308597 0.703450
C18   C     C_R   0.009887 0.454733 0.739021 0.715191
C19   C     C_R   0.009980 0.545292 0.739127 0.716032
C20   C     C_R   0.054825 0.454964 0.308587 0.703343
C21   C     C_R   0.510215 0.045020 0.280916 0.669973
C22   C     C_R   0.441906 0.955002 0.690185 0.657619
C23   C     C_R   0.441942 0.045074 0.690257 0.654892
C24   C     C_R   0.510152 0.954931 0.280847 0.672253
N17   N     N_R   0.026300 0.529110 0.206760 -0.165592
N18   N     N_R   0.973700 0.470890 0.793240 -0.160618
N19   N     N_R   0.973700 0.529110 0.793240 -0.160677
N20   N     N_R   0.026300 0.470890 0.206760 -0.165689
N21   N     N_R   0.526300 0.029110 0.206760 -0.177282
N22   N     N_R   0.473700 0.970890 0.793240 -0.179912
N23   N     N_R   0.473700 0.029110 0.793240 -0.180062
N24   N     N_R   0.526300 0.970890 0.206760 -0.177899
C25   C     C_R   0.731815 0.455238 0.752723 0.704059
C26   C     C_R   0.266973 0.544987 0.288271 0.790771
C27   C     C_R   0.266970 0.455031 0.288352 0.790513
C28   C     C_R   0.731808 0.544743 0.752742 0.704230
C29   C     C_R   0.242280 0.955605 0.695442 0.775585
C30   C     C_R   0.757774 0.044405 0.304472 0.774619
C31   C     C_R   0.757769 0.955527 0.304403 0.786930
C32   C     C_R   0.242289 0.044462 0.695503 0.782063
N25   N     N_R   0.818530 0.472270 0.792960 -0.176115
N26   N     N_R   0.181470 0.527730 0.207040 -0.204580
N27   N     N_R   0.181470 0.472270 0.207040 -0.204702
N28   N     N_R   0.818530 0.527730 0.792960 -0.176127
N29   N     N_R   0.318530 0.972270 0.792960 -0.209754
N30   N     N_R   0.681470 0.027730 0.207040 -0.204310
N31   N     N_R   0.681470 0.972270 0.207040 -0.209069
N32   N     N_R   0.318530 0.027730 0.792960 -0.213640
C33   C     C_R   0.870584 0.676526 0.006168 -0.025407
C34   C     C_R   0.130433 0.323809 0.996797 -0.034562
C35   C     C_R   0.129526 0.676570 0.996829 -0.035379
C36   C     C_R   0.870641 0.323452 0.006205 -0.025951
C37   C     C_R   0.323481 0.144412 0.005765 -0.011042
C38   C     C_R   0.680911 0.860685 0.993244 -0.022488
C39   C     C_R   0.680966 0.139274 0.993264 -0.024039
C40   C     C_R   0.323479 0.855548 0.005743 -0.013016
C41   C     C_R   0.079652 0.499978 0.377940 -0.267549
C42   C     C_R   0.041538 0.500015 0.712479 -0.220734
C43   C     C_R   0.486660 0.999966 0.316924 -0.167721
C44   C     C_R   0.416830 0.000067 0.621474 -0.271485
C45   C     C_R   0.675981 0.499984 0.727736 -0.139425
C46   C     C_R   0.322120 0.500014 0.338016 -0.222961
C47   C     C_R   0.193625 0.000042 0.632529 -0.142804
C48   C     C_R   0.806687 0.999959 0.367189 -0.138676
Ni1   Ni    Ni4+2 0.934150 0.565840 0.869060 0.312756
Ni2   Ni    Ni4+2 0.065850 0.434160 0.130940 0.321477
Ni3   Ni    Ni4+2 0.065850 0.565840 0.130940 0.321044
Ni4   Ni    Ni4+2 0.934150 0.434160 0.869060 0.312149
Ni5   Ni    Ni4+2 0.434150 0.065840 0.869060 0.348525
Ni6   Ni    Ni4+2 0.565850 0.934160 0.130940 0.340436
Ni7   Ni    Ni4+2 0.565850 0.065840 0.130940 0.337672
Ni8   Ni    Ni4+2 0.434150 0.934160 0.869060 0.347100
C49   C     C_3   0.504362 0.455758 0.596702 0.843922
C50   C     C_3   0.485981 0.544163 0.481929 0.835254
C51   C     C_3   0.486050 0.455950 0.481727 0.834258
C52   C     C_3   0.504293 0.544133 0.596906 0.843265
C53   C     C_3   0.035852 0.001715 0.606827 0.620289
C54   C     C_3   0.964498 0.998287 0.392149 0.620349
C55   C     C_3   0.972278 0.956516 0.526784 0.848510
C56   C     C_3   0.028114 0.043489 0.472236 0.859575
C57   C     C_3   0.428397 0.499908 0.559161 -0.529853
C58   C     C_3   0.560693 0.500093 0.518437 -0.614189
C59   C     C_3   0.971285 0.046039 0.522318 -0.393135
C60   C     C_3   0.029119 0.953958 0.476704 -0.378083
H9    H     H_    0.373028 0.499836 0.573926 0.284577
H10   H     H_    0.615732 0.500169 0.502846 0.267039
H11   H     H_    0.947334 0.082987 0.541954 0.294426
H12   H     H_    0.053172 0.917041 0.457109 0.299268
C61   C     C_3   0.411833 0.500021 0.444365 -0.415494
C62   C     C_3   0.578468 0.499982 0.634291 -0.413745
C63   C     C_3   0.908188 0.000119 0.442419 -0.450337
C64   C     C_3   0.092207 0.999887 0.556612 -0.442723
C65   C     C_R   0.727529 0.278924 0.955764 0.161491
C66   C     C_R   0.275095 0.719163 0.053358 0.184168
C67   C     C_R   0.275834 0.280932 0.053592 0.185351
C68   C     C_R   0.727403 0.721088 0.955403 0.161691
C69   C     C_R   0.173685 0.816434 0.952916 0.180559
C70   C     C_R   0.829350 0.180543 0.042088 0.160422
C71   C     C_R   0.829346 0.819384 0.042364 0.163376
C72   C     C_R   0.173862 0.183866 0.952611 0.186724
C73   C     C_R   0.125971 0.770014 0.946342 0.759417
C74   C     C_R   0.876140 0.228117 0.050872 0.764319
C75   C     C_R   0.876126 0.771818 0.051128 0.762360
C76   C     C_R   0.126387 0.230395 0.945975 0.756043
C77   C     C_R   0.680900 0.231880 0.945285 0.721740
C78   C     C_R   0.322222 0.764804 0.059603 0.724639
C79   C     C_R   0.322731 0.235179 0.059881 0.723915
C80   C     C_R   0.680792 0.768132 0.944939 0.722253
C81   C     C_R   0.176953 0.722468 0.996637 -0.358681
C82   C     C_R   0.824982 0.276291 0.007441 -0.363071
C83   C     C_R   0.824907 0.723683 0.007371 -0.362757
C84   C     C_R   0.177646 0.277837 0.996554 -0.358455
C85   C     C_R   0.731184 0.183234 0.988112 -0.354665
C86   C     C_R   0.272077 0.812816 0.010097 -0.333506
C87   C     C_R   0.272303 0.187258 0.010140 -0.335460
C88   C     C_R   0.731137 0.816738 0.988080 -0.354754
C89   C     C_R   0.125112 0.451080 0.642089 0.232138
C90   C     C_R   0.141640 0.548707 0.559142 0.199020
C91   C     C_R   0.141532 0.451227 0.559143 0.198024
C92   C     C_R   0.125179 0.548901 0.642055 0.231666
C93   C     C_R   0.362271 0.951669 0.445244 0.214947
C94   C     C_R   0.396433 0.049193 0.378969 0.240840
C95   C     C_R   0.396353 0.950840 0.379157 0.237271
C96   C     C_R   0.362693 0.048558 0.445389 0.201397
C97   C     C_R   0.125783 0.499966 0.500703 -0.138019
C98   C     C_R   0.095494 0.500004 0.662995 -0.142055
C99   C     C_R   0.430371 0.999984 0.363773 -0.184034
C100  C     C_R   0.370277 0.000119 0.499360 -0.114334
F1    F     F_    0.806166 0.674235 0.809973 -0.569971
F2    F     F_    0.202588 0.329335 0.194907 -0.554254
F3    F     F_    0.201748 0.670824 0.194909 -0.555110
F4    F     F_    0.806196 0.325760 0.810007 -0.571890
F5    F     F_    0.247269 0.147510 0.805690 -0.586959
F6    F     F_    0.755769 0.854929 0.192946 -0.596451
F7    F     F_    0.755825 0.144997 0.192972 -0.594048
F8    F     F_    0.247193 0.852562 0.805642 -0.585191
F9    F     F_    0.073270 0.597424 0.340116 -0.619741
F10   F     F_    0.996681 0.404565 0.695829 -0.637982
F11   F     F_    0.997105 0.595528 0.696316 -0.636885
F12   F     F_    0.073293 0.402546 0.340090 -0.618952
F13   F     F_    0.544548 0.091953 0.338830 -0.603932
F14   F     F_    0.415113 0.903306 0.655773 -0.599935
F15   F     F_    0.415101 0.096778 0.655987 -0.599137
F16   F     F_    0.544495 0.907986 0.338728 -0.599443
F17   F     F_    0.699574 0.404641 0.714016 -0.558037
F18   F     F_    0.286509 0.595180 0.333463 -0.517211
F19   F     F_    0.286484 0.404877 0.333748 -0.516835
F20   F     F_    0.699544 0.595344 0.714064 -0.557683
F21   F     F_    0.231823 0.905354 0.652795 -0.534309
F22   F     F_    0.768085 0.094637 0.347213 -0.559174
F23   F     F_    0.767845 0.905278 0.346953 -0.520080
F24   F     F_    0.232060 0.094729 0.653036 -0.500680
F25   F     F_    0.515049 0.410121 0.657269 -0.503767
F26   F     F_    0.475872 0.589850 0.421524 -0.510143
F27   F     F_    0.475976 0.410382 0.421083 -0.510889
F28   F     F_    0.514917 0.589649 0.657695 -0.504035
F29   F     F_    0.075289 0.002724 0.719919 -0.573356
F30   F     F_    0.925017 0.997280 0.279048 -0.575461
F31   F     F_    0.942671 0.912626 0.557133 -0.502143
F32   F     F_    0.057543 0.087444 0.441845 -0.493752
N33   N     N_R   0.676199 0.329312 0.917179 0.293276
O1    O     O_R   0.590641 0.330648 0.826156 -0.125978
O2    O     O_R   0.710906 0.372805 0.978284 -0.349006
N34   N     N_R   0.326989 0.669542 0.102188 0.288801
O3    O     O_R   0.297402 0.624452 0.046021 -0.316127
O4    O     O_R   0.407830 0.670081 0.199920 -0.152770
N35   N     N_R   0.328004 0.330449 0.102697 0.289053
O5    O     O_R   0.408795 0.329741 0.200483 -0.153307
O6    O     O_R   0.298700 0.375616 0.046760 -0.315601
N36   N     N_R   0.675996 0.670732 0.916534 0.293411
O7    O     O_R   0.710507 0.627191 0.977544 -0.348759
O8    O     O_R   0.590528 0.669476 0.825349 -0.125554
N37   N     N_R   0.122919 0.866204 0.902145 0.301858
O9    O     O_R   0.036369 0.865149 0.812909 -0.154718
O10   O     O_R   0.161170 0.912804 0.947382 -0.270560
N38   N     N_R   0.880876 0.130503 0.087480 0.302333
O11   O     O_R   0.841494 0.084344 0.040571 -0.293786
O12   O     O_R   0.968867 0.130905 0.173494 -0.151572
N39   N     N_R   0.880930 0.869376 0.088109 0.301458
O13   O     O_R   0.968735 0.868897 0.174615 -0.189985
O14   O     O_R   0.841796 0.915568 0.041116 -0.290243
N40   N     N_R   0.122796 0.134220 0.901484 0.301273
O15   O     O_R   0.160531 0.087540 0.946798 -0.267020
O16   O     O_R   0.036528 0.135473 0.811708 -0.203290
F33   F     F_    0.031360 0.771338 0.896088 -0.582033
F34   F     F_    0.970064 0.227496 0.097095 -0.576711
F35   F     F_    0.970107 0.772420 0.097661 -0.578677
F36   F     F_    0.031723 0.229258 0.895419 -0.585560
F37   F     F_    0.587624 0.234433 0.902413 -0.587562
F38   F     F_    0.416042 0.761075 0.105625 -0.593327
F39   F     F_    0.416617 0.238718 0.106140 -0.594256
F40   F     F_    0.587457 0.765597 0.901793 -0.587870
N41   N     N_R   0.157696 0.406887 0.719832 0.285623
O17   O     O_R   0.126738 0.357854 0.685751 -0.210687
O18   O     O_R   0.212230 0.416664 0.826559 -0.299084
N42   N     N_R   0.193300 0.591870 0.551848 0.310737
O19   O     O_R   0.169184 0.642241 0.546499 -0.159414
O20   O     O_R   0.258586 0.580456 0.537943 -0.272391
N43   N     N_R   0.193077 0.408006 0.551839 0.310827
O21   O     O_R   0.258478 0.419347 0.538086 -0.271669
O22   O     O_R   0.168739 0.357666 0.546315 -0.155982
N44   N     N_R   0.157841 0.593094 0.719775 0.285793
O23   O     O_R   0.212477 0.583317 0.826502 -0.298194
O24   O     O_R   0.126907 0.642132 0.685683 -0.209273
N45   N     N_R   0.303566 0.908949 0.440219 0.317370
O25   O     O_R   0.234492 0.920786 0.447207 -0.240579
O26   O     O_R   0.321322 0.858258 0.435722 -0.162712
N46   N     N_R   0.377903 0.095383 0.310177 0.263337
O27   O     O_R   0.311029 0.092924 0.203716 -0.358840
O28   O     O_R   0.420131 0.141318 0.354543 -0.212497
N47   N     N_R   0.378428 0.904436 0.311146 0.263808
O29   O     O_R   0.421061 0.858689 0.356365 -0.209698
O30   O     O_R   0.311492 0.906441 0.204659 -0.359557
N48   N     N_R   0.304457 0.091490 0.440568 0.317798
O31   O     O_R   0.323413 0.142126 0.437620 -0.157366
O32   O     O_R   0.234933 0.079885 0.446835 -0.188835

loop_
_geom_bond_atom_site_label_1
_geom_bond_atom_site_label_2
_geom_bond_distance
_ccdc_geom_bond_type
C53   C59   1.542648 S    
N25   Ni4   1.890423 S    
N36   O8    1.300932 A    
N39   O13   1.301435 A    
C10   C35   1.367088 A    
C17   F9    1.348587 S    
C31   C48   1.366006 A    
N21   Ni7   1.857060 S    
C78   F38   1.361599 S    
C65   C77   1.373973 A    
C72   C87   1.406389 A    
N20   Ni2   1.857342 S    
N43   O21   1.301256 A    
C10   H2    1.078748 S    
N14   Ni5   1.848041 S    
N23   Ni5   1.857341 S    
N29   Ni8   1.890423 S    
N35   O6    1.300713 A    
N31   Ni6   1.890371 S    
C94   N46   1.431644 S    
N24   Ni6   1.857342 S    
N39   O14   1.301487 A    
N36   O7    1.301549 A    
C52   C57   1.547828 S    
C58   C62   1.547470 S    
C46   C61   1.429686 S    
C55   F31   1.382243 S    
C18   F10   1.349350 S    
C90   C97   1.409990 A    
C57   C61   1.541562 S    
C45   C62   1.434424 S    
C26   F18   1.352739 S    
C67   N35   1.441387 S    
C14   C39   1.377995 A    
C76   C84   1.396044 A    
C94   C96   1.406941 A    
C91   N43   1.439706 S    
C40   C86   1.410235 S    
N33   O2    1.301534 A    
C7    F7    1.352460 S    
C29   N29   1.331774 A    
C14   N14   1.329817 A    
C30   N30   1.331570 A    
N34   O4    1.301407 A    
N37   O10   1.301446 A    
N46   O27   1.300235 A    
N5    N16   1.390803 A    
C92   C98   1.416666 A    
C54   C63   1.538939 S    
C29   C47   1.365557 A    
C3    N3    1.316231 A    
C27   N27   1.325442 A    
N6    N15   1.390803 A    
C56   C64   1.527170 S    
C71   C75   1.392472 A    
C26   N26   1.325347 A    
C2    N2    1.316228 A    
C80   C88   1.401306 A    
C33   C83   1.416950 S    
N38   O11   1.301504 A    
C18   C42   1.399923 A    
C12   C33   1.368699 A    
C9    C36   1.368647 A    
C67   C79   1.365926 A    
N47   O29   1.301510 A    
C52   C62   1.528064 S    
C54   C60   1.543240 S    
N2    N11   1.390803 A    
C80   F40   1.361381 S    
C50   F26   1.382749 S    
C3    C35   1.358730 A    
C32   C47   1.365648 A    
C5    N5    1.326205 A    
C2    C34   1.358998 A    
C22   F14   1.351777 S    
N8    N13   1.390812 A    
C72   C76   1.385964 A    
C89   N41   1.437189 S    
N11   Ni4   1.848095 S    
C20   N20   1.335325 A    
C7    N7    1.331118 A    
N26   N27   1.368890 A    
C23   N23   1.335936 A    
C21   N21   1.336742 A    
C8    N8    1.326215 A    
N47   O30   1.300215 A    
C92   N44   1.437111 S    
C21   C43   1.393607 A    
C9    N9    1.332586 A    
N17   Ni3   1.857060 S    
C27   F19   1.352799 S    
C65   C82   1.402039 A    
C26   C46   1.368397 A    
C17   N17   1.335368 A    
N42   O19   1.300214 A    
C6    F6    1.352447 S    
C77   C85   1.401332 A    
C89   C98   1.416653 A    
N18   N19   1.437009 A    
C25   F17   1.351718 S    
N3    N10   1.390812 A    
C43   C99   1.495047 S    
C35   C81   1.404083 S    
N48   O32   1.301748 A    
N8    Ni8   1.860196 S    
C66   N34   1.441376 S    
C93   C95   1.407326 A    
C79   F39   1.361610 S    
N35   O5    1.301457 A    
C54   F30   1.383497 S    
C96   C100  1.398842 A    
C29   F21   1.353973 S    
C70   C85   1.407951 A    
C20   C41   1.396623 A    
C49   C51   1.530590 S    
N1    Ni1   1.860483 S    
C79   C87   1.399306 A    
C36   C82   1.416850 S    
N40   O15   1.301471 A    
C50   C61   1.527163 S    
C12   H4    1.079235 S    
N41   O17   1.300868 A    
C95   N47   1.431456 S    
C13   H5    1.073810 S    
C71   C88   1.407893 A    
N27   Ni2   1.890371 S    
C68   N36   1.441565 S    
C60   H12   1.109922 S    
N5    Ni5   1.860483 S    
N34   O3    1.300722 A    
C28   F20   1.351724 S    
C69   C86   1.406563 A    
C70   C74   1.392533 A    
N29   N32   1.368890 A    
C55   C63   1.527095 S    
C16   H8    1.073756 S    
N7    N14   1.390812 A    
C51   F27   1.382741 S    
N45   O25   1.301998 A    
C66   C78   1.365923 A    
N1    N12   1.390803 A    
C23   F15   1.351650 S    
C49   F25   1.380616 S    
C24   F16   1.353775 S    
N25   N28   1.368890 A    
C17   C41   1.396708 A    
C22   N22   1.336295 A    
N46   O28   1.301461 A    
N28   Ni1   1.890372 S    
C1    N1    1.325179 A    
C23   C44   1.391320 A    
C56   C59   1.545534 S    
C54   C56   1.530146 S    
C10   N10   1.332132 A    
C69   N37   1.442289 S    
C47   C64   1.440031 S    
C42   C98   1.490588 S    
C66   C81   1.403066 A    
C34   C84   1.403775 S    
C18   N18   1.336724 A    
C22   C44   1.391754 A    
N32   Ni5   1.890372 S    
C44   C100  1.480938 S    
N12   Ni3   1.848096 S    
N18   Ni4   1.857059 S    
C4    F4    1.355548 S    
C31   N31   1.331500 A    
C69   C73   1.386192 A    
C5    F5    1.352229 S    
C78   C86   1.399060 A    
C74   F34   1.359613 S    
C4    C36   1.366550 A    
C96   N48   1.441327 S    
C4    N4    1.325197 A    
C3    F3    1.353759 S    
N16   Ni7   1.848096 S    
C5    C37   1.371546 A    
C52   F28   1.380549 S    
C21   F13   1.353815 S    
N30   N31   1.368890 A    
C53   F29   1.383535 S    
C7    C39   1.378455 A    
C58   H10   1.110843 S    
N21   N24   1.437009 A    
C73   C81   1.395906 A    
C24   N24   1.336763 A    
C51   C58   1.534429 S    
C93   N45   1.441789 S    
N22   N23   1.437009 A    
C41   C97   1.490746 S    
C73   F33   1.359877 S    
C14   H6    1.078702 S    
C56   F32   1.382085 S    
C68   C80   1.373995 A    
C76   F36   1.359876 S    
C59   H11   1.109879 S    
N4    Ni4   1.860196 S    
C11   C34   1.367061 A    
C37   C87   1.410080 S    
N17   N20   1.437009 A    
C75   C83   1.397761 A    
C9    H1    1.079234 S    
C38   C88   1.424576 S    
C51   C61   1.527173 S    
C28   C45   1.373564 A    
N43   O22   1.300202 A    
C31   F23   1.354123 S    
N26   Ni3   1.890422 S    
C72   N40   1.442208 S    
N41   O18   1.300526 A    
N6    Ni6   1.860483 S    
C90   N42   1.439744 S    
N44   O24   1.300873 A    
C67   C84   1.402919 A    
C50   C58   1.534452 S    
C24   C43   1.393444 A    
C71   N39   1.441975 S    
N42   O20   1.301267 A    
C68   C83   1.402077 A    
C1    C33   1.366593 A    
C60   C64   1.539870 S    
C48   C63   1.440606 S    
C89   C91   1.409560 A    
N30   Ni7   1.890422 S    
C49   C62   1.528108 S    
C27   C46   1.368467 A    
C49   C57   1.547805 S    
C6    N6    1.331168 A    
N45   O26   1.300042 A    
C11   N11   1.331855 A    
N9    Ni2   1.848042 S    
C75   F35   1.359608 S    
C30   F22   1.354422 S    
N7    Ni7   1.860196 S    
C19   N19   1.336747 A    
N33   O1    1.300972 A    
C2    F2    1.353707 S    
N10   Ni1   1.848041 S    
C57   H9    1.107876 S    
C15   N15   1.329748 A    
C95   C99   1.425647 A    
C13   C40   1.372012 A    
N48   O31   1.300047 A    
C30   C48   1.365863 A    
C16   N16   1.322817 A    
C25   C45   1.373487 A    
N13   Ni6   1.848042 S    
C59   C63   1.539707 S    
C90   C92   1.409586 A    
C32   N32   1.331728 A    
C15   C38   1.377957 A    
C77   F37   1.361385 S    
N37   O9    1.301342 A    
C50   C52   1.530605 S    
N15   Ni8   1.848095 S    
C1    F1    1.355552 S    
C93   C100  1.398639 A    
C6    C38   1.378502 A    
C28   N28   1.331136 A    
C94   C99   1.425382 A    
C12   N12   1.332601 A    
N3    Ni3   1.860196 S    
C16   C37   1.371903 A    
C91   C97   1.410038 A    
N2    Ni2   1.860483 S    
C13   N13   1.323018 A    
C74   C82   1.397766 A    
C53   C55   1.529661 S    
N44   O23   1.300513 A    
C8    C40   1.371459 A    
C53   C64   1.538957 S    
C32   F24   1.353687 S    
C55   C60   1.545706 S    
C65   N33   1.441600 S    
C20   F12   1.348551 S    
C70   N38   1.442090 S    
N4    N9    1.390812 A    
N40   O16   1.301335 A    
C19   F11   1.349264 S    
N22   Ni8   1.857059 S    
C39   C85   1.424488 S    
N38   O12   1.301294 A    
N19   Ni1   1.857341 S    
C19   C42   1.399904 A    
C15   H7    1.078722 S    
C11   H3    1.078653 S    
C25   N25   1.331064 A    
C8    F8    1.352232 S    
