data_mof_unit_34639.cif
_audit_creation_date              2012-12-10T18:58:46-0500
_audit_creation_method            fapswitch 2.2
_symmetry_space_group_name_H-M    P1
_symmetry_Int_Tables_number       1
_space_group_crystal_system       triclinic
_cell_length_a                    12.929351
_cell_length_b                    10.840664
_cell_length_c                    9.549858
_cell_angle_alpha                 89.898133
_cell_angle_beta                  96.077799
_cell_angle_gamma                 90.423145
_cell_volume                      1330.97355131

loop_
_atom_site_label
_atom_site_type_symbol
_atom_type_description
_atom_site_fract_x
_atom_site_fract_y
_atom_site_fract_z
_atom_type_partial_charge
C1    C     C_R   0.502234 0.262307 0.500526 0.817117
C2    C     C_R   0.025976 0.455056 0.543746 0.136007
C3    C     C_R   0.974266 0.545780 0.456823 0.135826
C4    C     C_R   0.867523 0.560500 0.457050 -0.270504
C5    C     C_R   0.862564 0.390674 0.623585 0.126526
C6    C     C_R   0.969943 0.378506 0.626907 -0.192975
C7    C     C_R   0.514478 0.063083 0.628514 0.141179
C8    C     C_R   0.513243 0.129288 0.502486 -0.127467
C9    C     C_R   0.526774 0.064863 0.378044 -0.165024
C10   C     C_R   0.526190 0.936168 0.377515 -0.159886
C11   C     C_R   0.511381 0.870881 0.501236 -0.120984
C12   C     C_R   0.300838 0.504592 0.473764 0.823822
C13   C     C_R   0.512101 0.935996 0.627219 0.068379
C14   C     C_3   0.438626 0.929421 0.738314 -0.259823
C15   C     C_3   0.444872 0.070530 0.743850 -0.077359
C16   C     C_R   0.572187 0.567514 0.083736 0.237539
C17   C     C_R   0.421905 0.445117 0.063375 -0.014951
C18   C     C_R   0.421547 0.445812 0.914465 -0.018993
C19   C     C_R   0.572297 0.567128 0.936631 0.312762
C20   C     C_3   0.687452 0.553939 0.947183 -0.445258
C21   C     C_3   0.687528 0.554371 0.105845 -0.484037
C22   C     C_R   0.501564 0.737697 0.500064 0.820210
C23   C     C_R   0.699171 0.495192 0.526113 0.832124
C24   C     C_R   0.811510 0.483726 0.539929 -0.090786
C25   C     C_R   0.188517 0.515818 0.459493 -0.088163
C26   C     C_R   0.029939 0.619864 0.370479 -0.198373
C27   C     C_R   0.137014 0.605418 0.370985 0.136994
C28   C     C_R   0.132858 0.441301 0.545048 -0.269233
Cu1   Cu    Cu3+1 0.499990 0.499980 0.640670 0.989602
Cu2   Cu    Cu3+1 0.500010 0.500020 0.359330 0.974895
H1    H     H_    0.827472 0.630775 0.391418 0.145580
H2    H     H_    0.369510 0.115404 0.708546 0.128927
H3    H     H_    0.360573 0.397054 0.110293 0.151236
H4    H     H_    0.359984 0.398030 0.850262 0.142988
H5    H     H_    0.711887 0.464192 0.906597 0.241514
H6    H     H_    0.726186 0.636345 0.906235 0.225715
H7    H     H_    0.712547 0.464878 0.154902 0.235324
H8    H     H_    0.726067 0.637423 0.156213 0.200329
H9    H     H_    0.990515 0.689760 0.303812 0.164689
H10   H     H_    0.009070 0.306745 0.691035 0.162558
H11   H     H_    0.173187 0.372662 0.612958 0.143891
H12   H     H_    0.532843 0.113229 0.279941 0.198821
H13   H     H_    0.532483 0.888532 0.279272 0.179967
H14   H     H_    0.360702 0.893870 0.695549 0.134612
N1    N     N_R   0.500660 0.500930 0.148010 -0.193336
N2    N     N_R   0.500660 0.500890 0.852110 -0.193166
O1    O     O_R   0.500000 0.319640 0.618810 -0.555102
O2    O     O_R   0.500010 0.319680 0.381230 -0.581628
O3    O     O_R   0.348990 0.499960 0.599490 -0.592633
O4    O     O_R   0.349000 0.500000 0.361910 -0.566174
O5    O     O_R   0.499990 0.680320 0.618770 -0.576566
O6    O     O_R   0.500000 0.680360 0.381190 -0.578530
O7    O     O_R   0.651000 0.500000 0.638090 -0.568707
O8    O     O_R   0.651010 0.500040 0.400510 -0.588775
C29   C     C_2   0.481441 0.863802 0.870949 0.953792
O9    O     O_2   0.574491 0.842606 0.894323 -0.594127
O10   O     O_R   0.413342 0.829386 0.968607 -0.740096
H15   H     H_    0.450074 0.787856 0.054867 0.324264
I1    I     I_    0.526865 0.151247 0.930481 -0.318240
I2    I     I_    0.782823 0.254619 0.731766 -0.328624
I3    I     I_    0.215825 0.729487 0.245275 -0.327668

loop_
_geom_bond_atom_site_label_1
_geom_bond_atom_site_label_2
_ccdc_geom_bond_type
C16   N1    A    
C12   O4    A    
C29   O9    D    
C1    O2    A    
C23   O7    A    
C16   C21   S    
C25   C27   A    
C1    C8    S    
Cu2   O8    S    
C9    C10   A    
C12   C25   S    
Cu2   N1    S    
C19   C20   S    
C17   C18   A    
Cu1   N2    S    
C23   C24   S    
C7    C15   S    
C12   O3    A    
Cu2   O4    S    
C19   N2    A    
C15   H2    S    
Cu1   O3    S    
C13   C14   S    
C25   C28   A    
O10   H15   S    
C11   C13   A    
C9    H12   S    
Cu1   Cu2   S    
C5    C24   A    
C17   H3    S    
Cu1   O1    S    
C16   C19   A    
C18   H4    S    
C18   N2    A    
C14   H14   S    
C17   N1    A    
C14   C29   S    
C2    C3    A    
C29   O10   S    
C26   C27   A    
C5    C6    A    
C4    C24   A    
C6    H10   S    
C26   H9    S    
C22   O5    A    
C4    H1    S    
C7    C8    A    
C10   C11   A    
C3    C4    A    
C20   H6    S    
C28   H11   S    
C7    C13   A    
C21   H7    S    
C20   C21   S    
C23   O8    A    
C22   O6    A    
Cu1   O5    S    
Cu2   O2    S    
Cu2   O6    S    
C14   C15   S    
C1    O1    A    
C2    C28   A    
C11   C22   S    
C5    I2    S    
C10   H13   S    
C20   H5    S    
C15   I1    S    
C3    C26   A    
C21   H8    S    
C2    C6    A    
C8    C9    A    
Cu1   O7    S    
C27   I3    S    
