data_mof_unit_32779.cif
_audit_creation_date              2012-12-11T14:08:34-0500
_audit_creation_method            fapswitch 2.2
_symmetry_space_group_name_H-M    P1
_symmetry_Int_Tables_number       1
_space_group_crystal_system       triclinic
_cell_length_a                    28.215354
_cell_length_b                    7.193655
_cell_length_c                    17.198393
_cell_angle_alpha                 90.080112
_cell_angle_beta                  101.911842
_cell_angle_gamma                 89.987837
_cell_volume                      3415.61132382

loop_
_atom_site_label
_atom_site_type_symbol
_atom_type_description
_atom_site_fract_x
_atom_site_fract_y
_atom_site_fract_z
_atom_type_partial_charge
O1    O     O_R   0.000700 0.436510 0.857920 -0.533019
O2    O     O_R   0.999300 0.563490 0.142080 -0.533025
O3    O     O_R   0.999300 0.936510 0.642080 -0.533025
O4    O     O_R   0.000700 0.063490 0.357920 -0.533031
O5    O     O_R   0.930080 0.766380 0.721890 -0.542410
O6    O     O_R   0.069920 0.233620 0.278110 -0.542391
O7    O     O_R   0.069920 0.266380 0.778110 -0.542494
O8    O     O_R   0.930080 0.733620 0.221890 -0.542499
C1    C     C_R   0.910569 0.597592 0.708979 0.696318
C2    C     C_R   0.089431 0.402410 0.291006 0.696330
C3    C     C_R   0.089433 0.097629 0.791009 0.696265
C4    C     C_R   0.910566 0.902372 0.208999 0.696264
O9    O     O_R   0.996180 0.766230 0.862310 -0.543331
O10   O     O_R   0.003820 0.233770 0.137690 -0.543337
O11   O     O_R   0.003820 0.266230 0.637690 -0.543043
O12   O     O_R   0.996180 0.733770 0.362310 -0.543035
O13   O     O_R   0.065870 0.936460 0.783500 -0.539417
O14   O     O_R   0.934130 0.063540 0.216500 -0.539406
O15   O     O_R   0.934130 0.436460 0.716500 -0.539556
O16   O     O_R   0.065870 0.563540 0.283500 -0.539555
C5    C     C_R   0.998486 0.596501 0.894502 0.760362
C6    C     C_R   0.001514 0.403499 0.105498 0.760326
C7    C     C_R   0.001516 0.096389 0.605530 0.761722
C8    C     C_R   0.998484 0.903611 0.394470 0.761746
O17   O     O_3   0.022790 0.603020 0.723980 -0.377870
O18   O     O_3   0.977210 0.396980 0.276020 -0.377857
O19   O     O_3   0.977210 0.103020 0.776020 -0.378385
O20   O     O_3   0.022790 0.896980 0.223980 -0.378396
V1    V     V_3+5 0.995770 0.877900 0.754830 1.411211
V2    V     V_3+5 0.004230 0.122100 0.245170 1.411261
V3    V     V_3+5 0.004230 0.377900 0.745170 1.411596
V4    V     V_3+5 0.995770 0.622100 0.254830 1.411635
C9    C     C_2   0.001709 0.082611 0.519609 -0.330119
C10   C     C_2   0.998291 0.917389 0.480391 -0.330101
C11   C     C_2   0.998301 0.582678 0.980464 -0.330462
C12   C     C_2   0.001699 0.417322 0.019536 -0.330457
H1    H     H_    0.004507 0.211457 0.488008 0.153824
H2    H     H_    0.995493 0.788543 0.511992 0.153825
H3    H     H_    0.995524 0.711536 0.012211 0.153548
H4    H     H_    0.004476 0.288464 0.987789 0.153550
C13   C     C_R   0.681220 0.866321 0.035641 0.580129
C14   C     C_R   0.318684 0.131818 0.964981 0.580059
C15   C     C_R   0.315811 0.523997 0.467100 0.578348
C16   C     C_R   0.684193 0.478762 0.532249 0.578381
O21   O     O_2   0.708631 0.780870 0.990626 -0.513666
O22   O     O_2   0.291203 0.215549 0.010347 -0.513509
O23   O     O_2   0.285729 0.586939 0.512915 -0.515447
O24   O     O_2   0.714268 0.418276 0.485951 -0.515205
N1    N     N_R   0.702781 0.942930 0.107235 -0.558342
N2    N     N_R   0.297197 0.057017 0.892983 -0.558462
N3    N     N_R   0.297042 0.444486 0.394825 -0.558578
N4    N     N_R   0.702970 0.555711 0.605049 -0.558796
C17   C     C_R   0.675587 0.031949 0.153404 0.576457
C18   C     C_R   0.324456 0.969754 0.846437 0.576431
C19   C     C_R   0.327022 0.377289 0.347972 0.577341
C20   C     C_R   0.673006 0.620396 0.652432 0.577348
C21   C     C_R   0.777925 0.759592 0.149463 -0.079794
C22   C     C_R   0.222036 0.240479 0.851267 -0.079937
C23   C     C_R   0.221823 0.260042 0.355690 -0.079520
C24   C     C_R   0.778141 0.740039 0.644966 -0.079665
C25   C     C_R   0.828372 0.749492 0.174160 -0.193337
C26   C     C_R   0.171594 0.250590 0.826495 -0.193294
C27   C     C_R   0.171413 0.249558 0.330389 -0.193708
C28   C     C_R   0.828550 0.750477 0.670284 -0.193681
C29   C     C_R   0.833249 0.085159 0.168056 -0.193469
C30   C     C_R   0.166776 0.914761 0.831438 -0.193409
C31   C     C_R   0.166895 0.585825 0.328062 -0.193235
C32   C     C_R   0.833144 0.414198 0.671090 -0.193136
C33   C     C_R   0.782861 0.094823 0.143329 -0.084465
C34   C     C_R   0.217160 0.905084 0.856217 -0.084510
C35   C     C_R   0.217245 0.595877 0.353224 -0.084567
C36   C     C_R   0.782797 0.404194 0.645876 -0.084769
C37   C     C_R   0.754781 0.932288 0.133710 0.374121
C38   C     C_R   0.245204 0.067693 0.866460 0.374414
C39   C     C_R   0.245112 0.433265 0.367536 0.375188
C40   C     C_R   0.754896 0.566845 0.632333 0.375550
C41   C     C_R   0.602097 0.970112 0.054349 -0.044125
C42   C     C_R   0.397873 0.029748 0.945916 -0.044054
C43   C     C_R   0.397772 0.471327 0.447115 -0.043619
C44   C     C_R   0.602243 0.528950 0.552758 -0.043701
C45   C     C_R   0.630660 0.878122 0.008105 -0.032253
C46   C     C_R   0.369240 0.119966 0.992547 -0.032410
C47   C     C_R   0.366318 0.539264 0.494335 -0.033135
C48   C     C_R   0.633686 0.463554 0.505002 -0.033250
C49   C     C_R   0.608317 0.800735 0.935226 -0.125445
C50   C     C_R   0.391506 0.195313 0.065881 -0.125393
C51   C     C_R   0.385807 0.620988 0.567670 -0.126055
C52   C     C_R   0.614182 0.384734 0.431063 -0.125819
C53   C     C_R   0.624953 0.047484 0.127789 -0.030153
C54   C     C_R   0.375087 0.954182 0.872072 -0.030294
C55   C     C_R   0.377758 0.389105 0.373273 -0.029888
C56   C     C_R   0.622270 0.608606 0.627138 -0.030098
C57   C     C_R   0.856801 0.912263 0.183688 -0.052657
C58   C     C_R   0.143196 0.087741 0.816356 -0.052614
C59   C     C_R   0.143180 0.412464 0.316474 -0.052174
C60   C     C_R   0.856821 0.587548 0.683464 -0.052149
H5    H     H_    0.853681 0.213640 0.174517 0.135485
H6    H     H_    0.146369 0.786216 0.824486 0.135468
H7    H     H_    0.146629 0.714429 0.317882 0.135452
H8    H     H_    0.853438 0.285572 0.680664 0.135329
H9    H     H_    0.765619 0.229154 0.131059 0.126384
H10   H     H_    0.234427 0.770681 0.868040 0.125901
H11   H     H_    0.234659 0.730658 0.361686 0.124434
H12   H     H_    0.765410 0.269435 0.636784 0.123937
H13   H     H_    0.629363 0.728828 0.898452 0.177169
H14   H     H_    0.370383 0.265258 0.103087 0.177492
H15   H     H_    0.362478 0.674758 0.605207 0.175966
H16   H     H_    0.637496 0.333786 0.392937 0.175869
C61   C     C_R   0.477350 0.922436 0.925204 0.038506
C62   C     C_R   0.522648 0.078169 0.074905 0.038565
C63   C     C_R   0.519802 0.582181 0.575279 0.038928
C64   C     C_R   0.480220 0.416996 0.424830 0.038988
C65   C     C_R   0.471426 0.092548 0.047845 0.037785
C66   C     C_R   0.528512 0.906485 0.952610 0.037832
C67   C     C_R   0.531475 0.432723 0.451050 0.037128
C68   C     C_R   0.468536 0.568706 0.548586 0.037140
C69   C     C_R   0.449112 0.014897 0.973097 0.062144
C70   C     C_R   0.550856 0.984934 0.027181 0.062126
C71   C     C_R   0.550946 0.514583 0.526241 0.062426
C72   C     C_R   0.449070 0.485712 0.473632 0.062468
C73   C     C_R   0.453107 0.849145 0.851066 -0.173343
C74   C     C_R   0.546992 0.154098 0.148461 -0.173727
C75   C     C_R   0.541343 0.661093 0.649789 -0.173101
C76   C     C_R   0.458698 0.334291 0.351115 -0.173619
C77   C     C_R   0.403194 0.864839 0.825307 -0.132967
C78   C     C_R   0.596921 0.138802 0.174125 -0.133039
C79   C     C_R   0.591363 0.673764 0.674934 -0.133431
C80   C     C_R   0.408681 0.321088 0.326078 -0.133837
O25   O     O_2   0.302735 0.899218 0.775238 -0.518056
O26   O     O_2   0.697373 0.104246 0.224224 -0.518194
O27   O     O_2   0.692172 0.694083 0.724236 -0.515559
O28   O     O_2   0.307876 0.301101 0.276663 -0.515852
C81   C     C_R   0.558473 0.814195 0.908010 -0.177186
C82   C     C_R   0.441362 0.182194 0.093028 -0.177093
C83   C     C_R   0.435671 0.635685 0.594289 -0.174670
C84   C     C_R   0.564318 0.369543 0.404550 -0.174494
H17   H     H_    0.154937 0.386240 0.815527 0.134443
H18   H     H_    0.845007 0.613909 0.185577 0.134650
H19   H     H_    0.845304 0.886399 0.678968 0.133309
H20   H     H_    0.154625 0.113631 0.322331 0.133297
H21   H     H_    0.243164 0.367329 0.858618 0.128602
H22   H     H_    0.756776 0.632798 0.142607 0.129161
H23   H     H_    0.757153 0.866950 0.634493 0.126478
H24   H     H_    0.242776 0.133155 0.366771 0.127048
H25   H     H_    0.386679 0.805850 0.768115 0.160345
H26   H     H_    0.613512 0.199758 0.230879 0.160267
H27   H     H_    0.605730 0.735316 0.732518 0.160952
H28   H     H_    0.394326 0.256708 0.269084 0.160895
H29   H     H_    0.471478 0.778396 0.810728 0.109414
H30   H     H_    0.528721 0.227417 0.188235 0.109715
H31   H     H_    0.520725 0.714596 0.690931 0.109656
H32   H     H_    0.479339 0.277052 0.310760 0.110261
H33   H     H_    0.544779 0.749630 0.851400 0.114151
H34   H     H_    0.454955 0.244153 0.150220 0.114044
H35   H     H_    0.447023 0.701436 0.651292 0.113679
H36   H     H_    0.552944 0.307559 0.346766 0.113337

loop_
_geom_bond_atom_site_label_1
_geom_bond_atom_site_label_2
_ccdc_geom_bond_type
O17   V3    S    
C47   C51   A    
N1    C17   A    
C22   C26   A    
O1    C5    A    
O19   V1    S    
O13   V1    S    
C27   H20   S    
O3    C7    A    
C11   C12   D    
C14   C46   A    
C44   C48   A    
O4    V2    S    
O15   V3    S    
C62   C70   A    
C78   H26   S    
C61   C69   A    
C68   C83   A    
C30   C34   A    
C42   C54   A    
O7    C3    A    
C41   C53   A    
C32   C60   A    
C21   H22   S    
C81   H33   S    
C74   H30   S    
C63   C71   A    
N3    C39   S    
C18   C54   A    
N2    C38   S    
C24   H23   S    
C52   H16   S    
C25   C57   A    
C25   H18   S    
C31   C35   A    
C67   C84   A    
C27   C59   A    
O1    V3    S    
C15   C47   A    
O2    V4    S    
C14   O22   S    
C21   C37   A    
O3    V1    S    
C34   C38   A    
C19   C55   A    
C73   C77   A    
C1    O15   A    
C2    O16   A    
C7    C9    S    
O2    C6    A    
C33   C37   A    
C63   C68   A    
O14   V2    S    
C79   H27   S    
C43   C55   A    
C31   H7    S    
C76   C80   A    
C16   N4    A    
O11   C7    A    
C76   H32   S    
C44   C71   A    
O12   C8    A    
C31   C59   A    
C50   H14   S    
O10   V2    S    
C49   H13   S    
C13   N1    A    
C50   C82   A    
O5    V1    S    
C53   C78   A    
C75   H31   S    
O7    V3    S    
C55   C80   A    
C63   C75   A    
O8    V4    S    
C51   C83   A    
C12   H4    S    
C42   C69   A    
C28   C60   A    
C41   C70   A    
C83   H35   S    
C64   C72   A    
O18   V4    S    
C80   H28   S    
C36   H12   S    
N4    C40   S    
C46   C50   A    
O11   V3    S    
C24   C40   A    
C8    C10   S    
C68   C72   A    
C32   C36   A    
C74   C78   A    
C11   H3    S    
C32   H8    S    
O5    C1    A    
C54   C77   A    
C42   C46   A    
C75   C79   A    
C1    C60   S    
C41   C45   A    
O8    C4    A    
C13   C45   A    
C43   C72   A    
C9    C10   D    
O9    C5    A    
C36   C40   A    
N2    C18   A    
C21   C25   A    
C44   C56   A    
C62   C65   A    
C52   C84   A    
C66   C70   A    
C61   C66   A    
C14   N2    A    
C65   C69   A    
C3    C58   S    
O6    V2    S    
C23   H24   S    
C67   C71   A    
C65   C82   A    
C26   C58   A    
C17   C53   A    
O10   C6    A    
N1    C37   S    
C4    C57   S    
C56   C79   A    
C23   C39   A    
C22   C38   A    
O16   V4    S    
O9    V1    S    
C18   O25   S    
C35   H11   S    
C3    O13   A    
C10   H2    S    
C48   C52   A    
C17   O26   S    
C16   C48   A    
O6    C2    A    
C34   H10   S    
C64   C76   A    
C5    C11   S    
C33   H9    S    
O12   V4    S    
C6    C12   S    
C23   C27   A    
C30   C58   A    
C24   C28   A    
C30   H6    S    
O20   V2    S    
C29   H5    S    
C77   H25   S    
C62   C74   A    
C35   C39   A    
C22   H21   S    
C15   N3    A    
C82   H34   S    
C2    C59   S    
O4    C8    A    
C29   C33   A    
C29   C57   A    
C66   C81   A    
C73   H29   S    
N3    C19   A    
C84   H36   S    
C26   H17   S    
C9    H1    S    
C20   O27   S    
C43   C47   A    
N4    C20   A    
C20   C56   A    
C51   H15   S    
C19   O28   S    
C4    O14   A    
C13   O21   S    
C61   C73   A    
C15   O23   S    
C64   C67   A    
C45   C49   A    
C16   O24   S    
C49   C81   A    
C28   H19   S    
