data_mof_unit_56035.cif
_audit_creation_date              2012-12-10T17:33:59-0500
_audit_creation_method            fapswitch 2.2
_symmetry_space_group_name_H-M    P1
_symmetry_Int_Tables_number       1
_space_group_crystal_system       triclinic
_cell_length_a                    10.701168
_cell_length_b                    12.032352
_cell_length_c                    12.862836
_cell_angle_alpha                 93.748284
_cell_angle_beta                  90.654564
_cell_angle_gamma                 85.844401
_cell_volume                      1648.29653407

loop_
_atom_site_label
_atom_site_type_symbol
_atom_type_description
_atom_site_fract_x
_atom_site_fract_y
_atom_site_fract_z
_atom_type_partial_charge
C1    C     C_R   0.497100 0.522348 0.700242 0.864166
C2    C     C_R   0.479627 0.451711 0.974033 0.070710
C3    C     C_R   0.533207 0.545293 0.025112 -0.014149
C4    C     C_R   0.741998 0.500155 0.503638 0.910527
C5    C     C_R   0.553683 0.547257 0.132305 0.385295
C6    C     C_R   0.454576 0.371214 0.138074 -0.415661
C7    C     C_R   0.443099 0.363107 0.030023 0.453691
C8    C     C_R   0.397328 0.954081 0.393265 -0.404955
C9    C     C_R   0.405285 0.837400 0.403187 0.575642
C10   C     C_R   0.540646 0.860127 0.550557 0.454027
C11   C     C_R   0.535862 0.977491 0.542316 0.006354
C12   C     C_3   0.121234 0.503886 0.499173 0.053470
C13   C     C_R   0.463069 0.024177 0.462139 -0.107513
C14   C     C_R   0.457763 0.140617 0.452563 -0.011488
C15   C     C_R   0.595087 0.164875 0.596640 -0.123510
C16   C     C_R   0.502864 0.477774 0.299707 0.937705
C17   C     C_R   0.603450 0.049429 0.610805 0.416047
C18   C     C_R   0.257824 0.501362 0.502236 0.882468
C19   C     C_3   0.938073 0.429552 0.590500 0.218696
C20   C     C_3   0.081541 0.419841 0.578688 -0.569732
C21   C     C_3   0.929308 0.448510 0.392434 -0.011610
C22   C     C_3   0.916659 0.621047 0.520402 -0.482301
C23   C     C_3   0.073217 0.466622 0.384493 0.376371
C24   C     C_3   0.878281 0.498951 0.500866 -0.030029
C25   C     C_3   0.104922 0.734250 0.512631 -0.799085
C26   C     C_3   0.849546 0.484713 0.297552 -0.872538
C27   C     C_3   0.100061 0.554947 0.305728 -0.816110
C28   C     C_3   0.141341 0.355121 0.339327 -0.938991
C29   C     C_3   0.057028 0.621724 0.542070 -0.031558
C30   C     C_R   0.505809 0.463922 0.188186 -0.153865
C31   C     C_R   0.498687 0.536300 0.811493 -0.082900
C32   C     C_R   0.560344 0.636579 0.968484 -0.173498
C33   C     C_R   0.543387 0.631783 0.861761 -0.188378
C34   C     C_R   0.463412 0.448501 0.867227 -0.185689
H1    H     H_    0.420404 0.306869 0.183231 0.172940
H2    H     H_    0.116082 0.332752 0.555648 0.221546
H3    H     H_    0.918187 0.357337 0.390769 0.164241
H4    H     H_    0.889716 0.670001 0.452217 0.228906
H5    H     H_    0.866391 0.663662 0.589042 0.181856
H6    H     H_    0.068402 0.626113 0.628572 0.162957
H7    H     H_    0.920948 0.274500 0.535999 0.338255
H8    H     H_    0.132291 0.734933 0.430471 0.274056
H9    H     H_    0.031824 0.803574 0.528375 0.232713
H10   H     H_    0.185998 0.756444 0.562520 0.251848
H11   H     H_    0.756523 0.450332 0.299429 0.240492
H12   H     H_    0.593917 0.712190 0.005506 0.167759
H13   H     H_    0.835417 0.576753 0.296344 0.268020
H14   H     H_    0.893407 0.449710 0.223634 0.242488
H15   H     H_    0.198503 0.577907 0.311891 0.258449
H16   H     H_    0.087114 0.521987 0.223915 0.236819
H17   H     H_    0.036374 0.631251 0.316350 0.231231
H18   H     H_    0.688700 0.646669 0.140949 0.318988
H19   H     H_    0.372192 0.218304 0.029723 0.339045
H20   H     H_    0.716909 0.068657 0.729374 0.330141
H21   H     H_    0.294719 0.812339 0.284351 0.311809
H22   H     H_    0.632307 0.737721 0.612774 0.367548
H23   H     H_    0.569053 0.700810 0.818395 0.199551
H24   H     H_    0.134471 0.285505 0.390639 0.223576
H25   H     H_    0.098600 0.328548 0.263388 0.243701
H26   H     H_    0.241773 0.364813 0.324263 0.254726
H27   H     H_    0.424860 0.376806 0.826505 0.209185
H28   H     H_    0.401011 0.178074 0.392061 0.136529
H29   H     H_    0.915125 0.476941 0.665995 0.148203
H30   H     H_    0.645427 0.221160 0.647962 0.174708
H31   H     H_    0.340794 0.989751 0.331623 0.157309
H32   H     H_    0.124884 0.438541 0.656496 0.168294
N1    N     N_R   0.523380 0.207800 0.519350 -0.117581
N2    N     N_R   0.476620 0.792180 0.480650 -0.180100
O1    O     O_R   0.506240 0.421700 0.658830 -0.621521
O2    O     O_3   0.617758 0.629857 0.184721 -0.750232
O3    O     O_3   0.392653 0.272140 0.978363 -0.773741
O4    O     O_3   0.676984 0.006871 0.689988 -0.695045
O5    O     O_3   0.342102 0.767330 0.335544 -0.739275
O6    O     O_3   0.609624 0.816537 0.631041 -0.716772
O7    O     O_R   0.491240 0.609310 0.646410 -0.640914
O8    O     O_R   0.692710 0.406190 0.506230 -0.577031
O9    O     O_R   0.677700 0.593810 0.493810 -0.662112
O10   O     O_R   0.508760 0.390690 0.353590 -0.653628
O11   O     O_R   0.493760 0.578300 0.341170 -0.497287
O12   O     O_R   0.322300 0.406190 0.506190 -0.629114
O13   O     O_R   0.307290 0.593810 0.493770 -0.598091
O14   O     O_3   0.891254 0.323601 0.596865 -0.743157
Zn1   Zn    Zn3+2 0.510020 0.374730 0.508290 0.952570
Zn2   Zn    Zn3+2 0.489980 0.625270 0.491710 0.993535

loop_
_geom_bond_atom_site_label_1
_geom_bond_atom_site_label_2
_ccdc_geom_bond_type
C21   C26   S    
N1    Zn1   S    
C8    C13   A    
C22   C29   S    
C12   C29   S    
C10   O6    S    
C19   C20   S    
C25   H9    S    
C12   C23   S    
C20   H32   S    
C7    O3    S    
O11   Zn2   S    
C4    C24   S    
O7    Zn2   S    
H7    O14   S    
C16   C30   S    
C22   H4    S    
C1    C31   S    
C18   O13   A    
C6    H1    S    
O8    Zn1   S    
C26   H11   S    
O10   Zn1   S    
C2    C7    A    
C19   H29   S    
C8    C9    A    
C15   H30   S    
C31   C33   A    
C23   C27   S    
C19   O14   S    
C27   H16   S    
C26   H14   S    
C2    C34   A    
C8    H31   S    
C13   C14   A    
C9    O5    S    
O12   Zn1   S    
C25   H10   S    
C27   H17   S    
C28   H26   S    
C25   C29   S    
H22   O6    S    
N2    Zn2   S    
C20   H2    S    
O9    Zn2   S    
C34   H27   S    
C1    O1    A    
C1    O7    A    
C5    O2    S    
O1    Zn1   S    
C14   N1    A    
C15   N1    A    
C12   C20   S    
C31   C34   A    
H20   O4    S    
C23   C28   S    
C26   H13   S    
C6    C30   A    
C28   H24   S    
C21   C23   S    
C22   C24   S    
H19   O3    S    
O13   Zn2   S    
C5    C30   A    
C28   H25   S    
C15   C17   A    
C11   C17   A    
C33   H23   S    
C32   H12   S    
C3    C5    A    
C25   H8    S    
C6    C7    A    
C10   N2    A    
C16   O11   A    
C32   C33   A    
C2    C3    A    
C9    N2    A    
C4    O9    A    
C11   C13   A    
C22   H5    S    
C29   H6    S    
C19   C24   S    
C16   O10   A    
C3    C32   A    
C4    O8    A    
H18   O2    S    
C10   C11   A    
H21   O5    S    
C21   H3    S    
C17   O4    S    
C18   O12   A    
C21   C24   S    
C12   C18   S    
C27   H15   S    
C14   H28   S    
