data_mof_unit_18231.cif
_audit_creation_date              2012-12-11T14:08:20-0500
_audit_creation_method            fapswitch 2.2
_symmetry_space_group_name_H-M    P1
_symmetry_Int_Tables_number       1
_space_group_crystal_system       triclinic
_cell_length_a                    28.163224
_cell_length_b                    7.204157
_cell_length_c                    17.193758
_cell_angle_alpha                 90.000097
_cell_angle_beta                  102.248519
_cell_angle_gamma                 90.00005
_cell_volume                      3409.07116954

loop_
_atom_site_label
_atom_site_type_symbol
_atom_type_description
_atom_site_fract_x
_atom_site_fract_y
_atom_site_fract_z
_atom_type_partial_charge
O1    O     O_R   0.000700 0.436510 0.857920 -0.533790
O2    O     O_R   0.999300 0.563490 0.142080 -0.532859
O3    O     O_R   0.999300 0.936510 0.642080 -0.533790
O4    O     O_R   0.000700 0.063490 0.357920 -0.532859
O5    O     O_R   0.930080 0.766380 0.721890 -0.541037
O6    O     O_R   0.069920 0.233620 0.278110 -0.541758
O7    O     O_R   0.069920 0.266380 0.778110 -0.541039
O8    O     O_R   0.930080 0.733620 0.221890 -0.541759
C1    C     C_R   0.910654 0.597976 0.707495 0.695026
C2    C     C_R   0.089527 0.402528 0.290083 0.695492
C3    C     C_R   0.089346 0.097976 0.792505 0.695028
C4    C     C_R   0.910473 0.902528 0.209917 0.695492
O9    O     O_R   0.996180 0.766230 0.862310 -0.542406
O10   O     O_R   0.003820 0.233770 0.137690 -0.542786
O11   O     O_R   0.003820 0.266230 0.637690 -0.542406
O12   O     O_R   0.996180 0.733770 0.362310 -0.542786
O13   O     O_R   0.065870 0.936460 0.783500 -0.538192
O14   O     O_R   0.934130 0.063540 0.216500 -0.538919
O15   O     O_R   0.934130 0.436460 0.716500 -0.538191
O16   O     O_R   0.065870 0.563540 0.283500 -0.538919
C5    C     C_R   0.998498 0.596432 0.894461 0.760553
C6    C     C_R   0.001517 0.403570 0.105542 0.760421
C7    C     C_R   0.001502 0.096431 0.605539 0.760554
C8    C     C_R   0.998483 0.903570 0.394458 0.760422
O17   O     O_3   0.022790 0.603020 0.723980 -0.378002
O18   O     O_3   0.977210 0.396980 0.276020 -0.378192
O19   O     O_3   0.977210 0.103020 0.776020 -0.378001
O20   O     O_3   0.022790 0.896980 0.223980 -0.378192
V1    V     V_3+5 0.995770 0.877900 0.754830 1.411231
V2    V     V_3+5 0.004230 0.122100 0.245170 1.409517
V3    V     V_3+5 0.004230 0.377900 0.745170 1.411230
V4    V     V_3+5 0.995770 0.622100 0.254830 1.409517
C9    C     C_2   0.001682 0.082553 0.519574 -0.331288
C10   C     C_2   0.998279 0.917449 0.480415 -0.331638
C11   C     C_2   0.998318 0.582553 0.980426 -0.331288
C12   C     C_2   0.001721 0.417449 0.019585 -0.331637
H1    H     H_    0.004468 0.211195 0.487897 0.154152
H2    H     H_    0.995487 0.788808 0.512089 0.153573
H3    H     H_    0.995532 0.711195 0.012103 0.154152
H4    H     H_    0.004513 0.288808 0.987911 0.153573
C13   C     C_R   0.681124 0.042486 0.053975 0.582869
C14   C     C_R   0.315568 0.941981 0.976475 0.592663
C15   C     C_R   0.318876 0.542512 0.446020 0.582870
C16   C     C_R   0.684431 0.441976 0.523530 0.592665
O21   O     O_2   0.709859 0.107535 0.006494 -0.519135
O22   O     O_2   0.286078 0.821894 0.003593 -0.523969
O23   O     O_2   0.290140 0.607577 0.493497 -0.519135
O24   O     O_2   0.713921 0.321876 0.496416 -0.523967
N1    N     N_R   0.701385 0.951971 0.123256 -0.557014
N2    N     N_R   0.296200 0.071044 0.919699 -0.554112
N3    N     N_R   0.298615 0.451981 0.376742 -0.557016
N4    N     N_R   0.703799 0.571048 0.580301 -0.554114
C17   C     C_R   0.672640 0.880813 0.171299 0.598355
C18   C     C_R   0.325750 0.196834 0.893000 0.599128
C19   C     C_R   0.327360 0.380812 0.328703 0.598358
C20   C     C_R   0.674251 0.696849 0.606995 0.599132
C21   C     C_R   0.776810 0.763968 0.153465 -0.080255
C22   C     C_R   0.217821 0.240363 0.892124 -0.079312
C23   C     C_R   0.217836 0.598827 0.338515 -0.084389
C24   C     C_R   0.780613 0.419270 0.648445 -0.083485
C25   C     C_R   0.827635 0.751821 0.173980 -0.196136
C26   C     C_R   0.167904 0.247975 0.859740 -0.197402
C27   C     C_R   0.167166 0.587141 0.318314 -0.192862
C28   C     C_R   0.830797 0.425798 0.679746 -0.198870
C29   C     C_R   0.832834 0.087141 0.181668 -0.192863
C30   C     C_R   0.169202 0.925789 0.820265 -0.198870
C31   C     C_R   0.172365 0.251826 0.326036 -0.196134
C32   C     C_R   0.832098 0.747968 0.640249 -0.197401
C33   C     C_R   0.782164 0.098825 0.161466 -0.084387
C34   C     C_R   0.219385 0.919261 0.851566 -0.083487
C35   C     C_R   0.223190 0.263976 0.346551 -0.080256
C36   C     C_R   0.782180 0.740356 0.607865 -0.079312
C37   C     C_R   0.753694 0.937694 0.146781 0.370781
C38   C     C_R   0.244208 0.076403 0.888042 0.358569
C39   C     C_R   0.246306 0.437700 0.353218 0.370785
C40   C     C_R   0.755792 0.576405 0.611958 0.358567
C41   C     C_R   0.600506 0.996733 0.080552 -0.041020
C42   C     C_R   0.396720 0.062998 0.980452 -0.046029
C43   C     C_R   0.399493 0.496748 0.419446 -0.041019
C44   C     C_R   0.603280 0.563006 0.519547 -0.046028
C45   C     C_R   0.630522 0.068105 0.031795 -0.025783
C46   C     C_R   0.366119 0.935133 0.007594 -0.024043
C47   C     C_R   0.369478 0.568132 0.468200 -0.025783
C48   C     C_R   0.633881 0.435131 0.492409 -0.024044
C49   C     C_R   0.609321 0.161473 0.961547 -0.110998
C50   C     C_R   0.386774 0.801926 0.064220 -0.117234
C51   C     C_R   0.390679 0.661511 0.538445 -0.111001
C52   C     C_R   0.613225 0.301919 0.435785 -0.117232
C53   C     C_R   0.621645 0.900791 0.150524 -0.068537
C54   C     C_R   0.376301 0.196070 0.923310 -0.066307
C55   C     C_R   0.378354 0.400794 0.349477 -0.068538
C56   C     C_R   0.623700 0.696086 0.576685 -0.066308
C57   C     C_R   0.856396 0.913510 0.188033 -0.053118
C58   C     C_R   0.142848 0.090671 0.823592 -0.051752
C59   C     C_R   0.143604 0.413512 0.311966 -0.053120
C60   C     C_R   0.857152 0.590671 0.676408 -0.051752
H5    H     H_    0.853457 0.214852 0.192422 0.136288
H6    H     H_    0.151135 0.802081 0.792911 0.140075
H7    H     H_    0.155686 0.115745 0.321719 0.133479
H8    H     H_    0.851212 0.876592 0.635612 0.135901
H9    H     H_    0.764939 0.233959 0.156953 0.126277
H10   H     H_    0.239006 0.791791 0.847080 0.149730
H11   H     H_    0.244582 0.138193 0.358082 0.131156
H12   H     H_    0.763974 0.862665 0.579357 0.151197
H13   H     H_    0.631213 0.210889 0.921070 0.178406
H14   H     H_    0.364439 0.697356 0.084234 0.176358
H15   H     H_    0.368786 0.710937 0.578919 0.178406
H16   H     H_    0.635559 0.197342 0.415775 0.176358
C61   C     C_R   0.478501 0.174190 0.976278 0.010238
C62   C     C_R   0.518898 0.934874 0.104372 0.021027
C63   C     C_R   0.521500 0.674210 0.523718 0.010241
C64   C     C_R   0.481102 0.434881 0.395628 0.021029
C65   C     C_R   0.467913 0.931780 0.072014 0.084236
C66   C     C_R   0.529050 0.134871 0.992970 0.071803
C67   C     C_R   0.532086 0.431786 0.427986 0.084239
C68   C     C_R   0.470950 0.634895 0.507025 0.071805
C69   C     C_R   0.447804 0.056779 0.009874 0.066513
C70   C     C_R   0.549365 0.021974 0.059290 0.066366
C71   C     C_R   0.552196 0.556790 0.490125 0.066516
C72   C     C_R   0.450634 0.521989 0.440708 0.066369
C73   C     C_R   0.456879 0.323434 0.927064 0.136939
C74   C     C_R   0.541193 0.857017 0.179432 0.184296
C75   C     C_R   0.543122 0.823459 0.572928 0.136939
C76   C     C_R   0.458807 0.357016 0.320569 0.184294
C77   C     C_R   0.406532 0.329470 0.899596 -0.128881
C78   C     C_R   0.591724 0.836325 0.200305 -0.124732
C79   C     C_R   0.593469 0.829493 0.600396 -0.128882
C80   C     C_R   0.408276 0.336321 0.299697 -0.124733
O25   O     O_2   0.306460 0.320964 0.836275 -0.521582
O26   O     O_2   0.693269 0.793494 0.239520 -0.518462
O27   O     O_2   0.693542 0.820990 0.663716 -0.521581
O28   O     O_2   0.306732 0.293479 0.260484 -0.518459
C81   C     C_R   0.559402 0.192722 0.942194 -0.115879
C82   C     C_R   0.436766 0.799668 0.095343 -0.107634
C83   C     C_R   0.440598 0.692758 0.557798 -0.115880
C84   C     C_R   0.563233 0.299665 0.404661 -0.107629
H17   H     H_    0.148791 0.376606 0.864368 0.135900
H18   H     H_    0.844314 0.615736 0.178312 0.133479
H19   H     H_    0.848862 0.302096 0.707109 0.140077
H20   H     H_    0.146542 0.714848 0.307546 0.136292
H21   H     H_    0.236029 0.362678 0.920624 0.151191
H22   H     H_    0.755418 0.638181 0.141947 0.131156
H23   H     H_    0.760991 0.291807 0.652939 0.149736
H24   H     H_    0.235061 0.733959 0.343015 0.126278
H25   H     H_    0.390989 0.443003 0.861226 0.189616
H26   H     H_    0.607699 0.776111 0.257617 0.190019
H27   H     H_    0.609013 0.943031 0.638763 0.189616
H28   H     H_    0.392301 0.276101 0.242386 0.190019
H29   H     H_    0.544590 0.254929 0.885101 0.170641
H30   H     H_    0.450955 0.687004 0.134620 0.185377
H31   H     H_    0.455409 0.754974 0.614889 0.170641
H32   H     H_    0.549043 0.186998 0.365385 0.185377
I1    I     I_    0.493544 0.574185 0.908853 -0.422890
I2    I     I_    0.506037 0.824989 0.277168 -0.435597
I3    I     I_    0.506459 0.074216 0.591134 -0.422902
I4    I     I_    0.493964 0.324988 0.222834 -0.435591

loop_
_geom_bond_atom_site_label_1
_geom_bond_atom_site_label_2
_ccdc_geom_bond_type
O17   V3    S    
C47   C51   A    
N1    C17   A    
C22   C26   A    
O1    C5    A    
O19   V1    S    
O13   V1    S    
C27   H20   S    
O3    C7    A    
C11   C12   D    
C14   C46   A    
C44   C48   A    
O4    V2    S    
O15   V3    S    
C62   C70   A    
C78   H26   S    
C61   C69   A    
C68   C83   A    
C75   I3    S    
C42   C54   A    
O7    C3    A    
C41   C53   A    
C32   C60   A    
C73   I1    S    
C21   H22   S    
C63   C71   A    
N3    C39   S    
C18   C54   A    
N2    C38   S    
C24   H23   S    
C52   H16   S    
C25   C57   A    
C25   H18   S    
C31   C35   A    
C67   C84   A    
C82   H30   S    
C27   C59   A    
O1    V3    S    
C15   C47   A    
O2    V4    S    
C14   O22   S    
C21   C37   A    
O3    V1    S    
C34   C38   A    
C19   C55   A    
C73   C77   A    
C1    O15   A    
C2    O16   A    
C7    C9    S    
O2    C6    A    
C33   C37   A    
C63   C68   A    
O14   V2    S    
C79   H27   S    
C43   C55   A    
C31   H7    S    
C76   C80   A    
C16   N4    A    
O11   C7    A    
C44   C71   A    
O12   C8    A    
C31   C59   A    
C74   I2    S    
C50   H14   S    
O10   V2    S    
C49   H13   S    
C13   N1    A    
C84   H32   S    
C50   C82   A    
O5    V1    S    
C53   C78   A    
O7    V3    S    
C55   C80   A    
C63   C75   A    
O8    V4    S    
C51   C83   A    
C12   H4    S    
C42   C69   A    
C81   H29   S    
C28   C60   A    
C41   C70   A    
C64   C72   A    
O18   V4    S    
C80   H28   S    
C36   H12   S    
N4    C40   S    
C46   C50   A    
O11   V3    S    
C24   C40   A    
C8    C10   S    
C68   C72   A    
C32   C36   A    
C74   C78   A    
C11   H3    S    
C32   H8    S    
O5    C1    A    
C54   C77   A    
C42   C46   A    
C75   C79   A    
C1    C60   S    
C41   C45   A    
O8    C4    A    
C13   C45   A    
C43   C72   A    
C9    C10   D    
O9    C5    A    
C36   C40   A    
N2    C18   A    
C21   C25   A    
C44   C56   A    
C62   C65   A    
C52   C84   A    
C66   C70   A    
C61   C66   A    
C14   N2    A    
C65   C69   A    
C3    C58   S    
O6    V2    S    
C23   H24   S    
C67   C71   A    
C65   C82   A    
C26   C58   A    
C17   C53   A    
O10   C6    A    
N1    C37   S    
C4    C57   S    
C56   C79   A    
C23   C39   A    
C22   C38   A    
O16   V4    S    
O9    V1    S    
C83   H31   S    
C18   O25   S    
C35   H11   S    
C3    O13   A    
C10   H2    S    
C48   C52   A    
C17   O26   S    
C16   C48   A    
O6    C2    A    
C34   H10   S    
C64   C76   A    
C5    C11   S    
C33   H9    S    
O12   V4    S    
C6    C12   S    
C23   C27   A    
C30   C58   A    
C24   C28   A    
C30   H6    S    
C76   I4    S    
C29   H5    S    
C77   H25   S    
C62   C74   A    
C35   C39   A    
C22   H21   S    
C15   N3    A    
C30   C34   A    
C2    C59   S    
O4    C8    A    
C29   C33   A    
O20   V2    S    
C29   C57   A    
C66   C81   A    
N3    C19   A    
C26   H17   S    
C9    H1    S    
C20   O27   S    
C43   C47   A    
N4    C20   A    
C20   C56   A    
C51   H15   S    
C19   O28   S    
C4    O14   A    
C13   O21   S    
C61   C73   A    
C15   O23   S    
C64   C67   A    
C45   C49   A    
C16   O24   S    
C49   C81   A    
C28   H19   S    
