data_mof_unit_51715.cif
_audit_creation_date              2012-12-11T14:51:42-0500
_audit_creation_method            fapswitch 2.2
_symmetry_space_group_name_H-M    P1
_symmetry_Int_Tables_number       1
_space_group_crystal_system       triclinic
_cell_length_a                    6.941038
_cell_length_b                    16.651744
_cell_length_c                    16.942656
_cell_angle_alpha                 101.413738
_cell_angle_beta                  90.257857
_cell_angle_gamma                 90.446244
_cell_volume                      1919.41745923

loop_
_atom_site_label
_atom_site_type_symbol
_atom_type_description
_atom_site_fract_x
_atom_site_fract_y
_atom_site_fract_z
_atom_type_partial_charge
O1    O     O_R   0.506340 0.439070 0.579550 -0.537574
O2    O     O_R   0.170010 0.404890 0.412100 -0.540107
O3    O     O_R   0.005010 0.560930 0.420450 -0.537745
C1    C     C_R   0.339173 0.381441 0.383260 0.677838
O4    O     O_R   0.176280 0.429360 0.578400 -0.542652
O5    O     O_R   0.011320 0.585570 0.587940 -0.537929
C2    C     C_R   0.343488 0.413736 0.605338 0.698862
O6    O     O_R   0.500030 0.414430 0.412060 -0.537786
O7    O     O_3   0.340950 0.551220 0.502940 -0.367567
V1    V     V_3+5 0.064020 0.490500 0.499460 1.398613
O8    O     O_R   0.681910 0.595110 0.587900 -0.541817
C3    C     C_R   0.851607 0.618394 0.616667 0.679639
O9    O     O_R   0.675640 0.570640 0.421600 -0.542228
C4    C     C_R   0.842623 0.586191 0.394597 0.699652
V2    V     V_3+5 0.564670 0.509500 0.500540 1.399068
O10   O     O_3   0.837610 0.448780 0.497060 -0.367581
C5    C     C_R   0.927204 0.861131 0.167185 -0.069624
C6    C     C_R   0.838431 0.638852 0.332919 -0.069723
C7    C     C_R   0.647859 0.695750 0.235298 -0.202953
C8    C     C_R   0.668570 0.640672 0.287111 -0.165526
C9    C     C_R   0.990097 0.692696 0.324094 -0.245739
C10   C     C_R   0.969259 0.749053 0.272307 0.160762
C11   C     C_R   0.796330 0.750945 0.227811 0.160770
C12   C     C_R   0.775517 0.807293 0.176009 -0.245771
C13   C     C_R   0.097027 0.859326 0.213020 -0.165526
C14   C     C_R   0.117722 0.804253 0.264834 -0.202964
H1    H     H_    0.644747 0.807273 0.140771 0.121970
H2    H     H_    0.216608 0.900177 0.207985 0.125757
H3    H     H_    0.514579 0.695659 0.201703 0.121647
H4    H     H_    0.250991 0.804347 0.298436 0.121648
H5    H     H_    0.548996 0.599822 0.292158 0.125823
H6    H     H_    0.120888 0.692709 0.359318 0.122039
C15   C     C_3   0.808524 0.817923 0.731251 -0.141219
C16   C     C_3   0.978363 0.768626 0.687195 -0.139310
H7    H     H_    0.056556 0.783568 0.634858 0.102009
H8    H     H_    0.747371 0.874522 0.716290 0.099445
C17   C     C_3   0.865827 0.688651 0.687447 -0.007470
C18   C     C_3   0.695829 0.737119 0.730683 -0.115995
C19   C     C_3   0.787726 0.731304 0.812861 -0.139315
C20   C     C_3   0.957566 0.682007 0.768805 -0.141235
C21   C     C_3   0.070261 0.762810 0.769373 -0.115991
C22   C     C_3   0.900262 0.811279 0.812609 -0.007448
H9    H     H_    0.541549 0.726169 0.714221 0.106169
H10   H     H_    0.709533 0.716362 0.865198 0.101974
H11   H     H_    0.018719 0.625408 0.783766 0.099412
H12   H     H_    0.224541 0.773760 0.785834 0.106166
C23   C     C_3   0.479327 0.234583 0.313980 -0.132861
C24   C     C_3   0.317003 0.180056 0.267903 -0.138141
H13   H     H_    0.263367 0.121749 0.282495 0.098526
H14   H     H_    0.557955 0.221918 0.367339 0.101794
C25   C     C_3   0.409953 0.189168 0.187569 -0.011120
C26   C     C_3   0.572126 0.242921 0.232876 -0.118414
C27   C     C_3   0.449116 0.320068 0.231988 -0.138130
C28   C     C_3   0.286791 0.265539 0.185910 -0.132811
C29   C     C_3   0.193994 0.257201 0.267015 -0.118414
C30   C     C_3   0.356165 0.310955 0.312321 -0.011175
H15   H     H_    0.727378 0.236717 0.217990 0.103227
H16   H     H_    0.502752 0.378376 0.217398 0.098585
H17   H     H_    0.208164 0.278203 0.132550 0.101861
H18   H     H_    0.038741 0.263405 0.281901 0.103223
C31   C     C_R   0.427507 0.139246 0.833127 -0.069453
C32   C     C_R   0.339045 0.360864 0.666861 -0.069642
C33   C     C_R   0.149093 0.303097 0.764069 -0.203517
C34   C     C_R   0.169702 0.358197 0.712218 -0.165909
C35   C     C_R   0.490260 0.307809 0.676157 -0.245458
C36   C     C_R   0.469495 0.251426 0.727978 0.160890
C37   C     C_R   0.297097 0.248699 0.772024 0.160841
C38   C     C_R   0.276309 0.192305 0.823829 -0.245379
C39   C     C_R   0.596889 0.141933 0.787801 -0.165983
C40   C     C_R   0.617512 0.197036 0.735950 -0.203518
H19   H     H_    0.145848 0.191641 0.858649 0.122249
H20   H     H_    0.716092 0.101709 0.793186 0.126279
H21   H     H_    0.016270 0.302567 0.797357 0.121661
H22   H     H_    0.750349 0.197575 0.702674 0.121674
H23   H     H_    0.050500 0.398429 0.706849 0.126220
H24   H     H_    0.620698 0.308464 0.641322 0.122134
O11   O     O_R   0.266070 0.085680 0.087850 -0.537841
O12   O     O_R   0.590090 0.070660 0.921580 -0.542587
O13   O     O_R   0.754780 0.914400 0.912080 -0.537931
C41   C     C_R   0.422939 0.086338 0.894617 0.699155
O14   O     O_R   0.596110 0.095130 0.087880 -0.540103
O15   O     O_R   0.760850 0.939050 0.079570 -0.537770
C42   C     C_R   0.426937 0.118651 0.116659 0.677811
O16   O     O_R   0.260010 0.061030 0.920360 -0.537793
O17   O     O_3   0.425070 0.948840 0.997010 -0.367622
V3    V     V_3+5 0.702100 0.009490 0.000550 1.398673
O18   O     O_R   0.090200 0.929250 0.078500 -0.542519
C43   C     C_R   0.923150 0.913756 0.105473 0.699376
O19   O     O_R   0.084180 0.904770 0.912200 -0.541879
C44   C     C_R   0.914487 0.881536 0.883389 0.679622
V4    V     V_3+5 0.201420 0.990350 0.999580 1.399206
O20   O     O_3   0.928580 0.051150 0.002990 -0.367504

loop_
_geom_bond_atom_site_label_1
_geom_bond_atom_site_label_2
_ccdc_geom_bond_type
C24   C29   S    
O18   C43   A    
O18   V4    S    
C16   C17   S    
C21   C22   S    
C4    C6    S    
O2    C1    A    
C7    C8    A    
C12   H1    S    
C41   O16   A    
O17   V4    S    
O17   V3    S    
C13   H2    S    
C35   H24   S    
C15   C22   S    
C9    C10   A    
C17   C20   S    
O5    C3    A    
C18   C19   S    
O12   C41   A    
O11   C42   A    
C31   C41   S    
V2    O10   S    
C6    C9    A    
C15   H8    S    
C16   H7    S    
C3    C17   S    
O13   C44   A    
C32   C34   A    
O8    V2    S    
C24   C25   S    
O11   V4    S    
C40   H22   S    
C21   H12   S    
O1    V2    S    
O16   V4    S    
C23   H14   S    
O7    V1    S    
O14   V3    S    
C1    O6    A    
O12   V3    S    
C36   C37   A    
O9    C4    A    
C1    C30   S    
C16   C21   S    
O14   C42   A    
C19   C22   S    
C28   H17   S    
C20   H11   S    
C9    H6    S    
C33   C37   A    
C5    C12   A    
C25   C26   S    
V4    O20   S    
O4    C2    A    
C33   H21   S    
C13   C14   A    
O15   V3    S    
C37   C38   A    
C22   C44   S    
C39   H20   S    
C7    C11   A    
C2    C32   S    
C17   C18   S    
C23   C24   S    
C11   C12   A    
C29   C30   S    
C15   C16   S    
C19   H10   S    
O3    C4    A    
C24   H13   S    
C14   H4    S    
O6    V2    S    
O9    V2    S    
O19   V4    S    
O2    V1    S    
C25   C42   S    
C19   C20   S    
C26   C27   S    
C27   C30   S    
C31   C39   A    
C28   C29   S    
C20   C21   S    
C32   C35   A    
O1    C2    A    
C5    C43   S    
O5    V1    S    
C27   H16   S    
C27   C28   S    
C23   C26   S    
C15   C18   S    
C25   C28   S    
C5    C13   A    
O7    V2    S    
O4    V1    S    
O3    V1    S    
V3    O20   S    
C31   C38   A    
C36   C40   A    
C38   H19   S    
O15   C43   A    
C34   H23   S    
C6    C8    A    
C39   C40   A    
C26   H15   S    
C33   C34   A    
C18   H9    S    
C35   C36   A    
C10   C14   A    
C10   C11   A    
V1    O10   S    
O19   C44   A    
C29   H18   S    
O13   V3    S    
O8    C3    A    
C23   C30   S    
C8    H5    S    
C7    H3    S    
