data_mof_unit_49772.cif
_audit_creation_date              2012-12-10T17:46:18-0500
_audit_creation_method            fapswitch 2.2
_symmetry_space_group_name_H-M    P1
_symmetry_Int_Tables_number       1
_space_group_crystal_system       triclinic
_cell_length_a                    14.125628
_cell_length_b                    10.667616
_cell_length_c                    10.012331
_cell_angle_alpha                 90.246224
_cell_angle_beta                  89.636473
_cell_angle_gamma                 92.690507
_cell_volume                      1507.02033673

loop_
_atom_site_label
_atom_site_type_symbol
_atom_type_description
_atom_site_fract_x
_atom_site_fract_y
_atom_site_fract_z
_atom_type_partial_charge
C1    C     C_R   0.500791 0.260725 0.499010 0.889771
C2    C     C_1   0.772116 0.501149 0.498652 -0.122840
C3    C     C_R   0.323534 0.117551 0.517593 -0.197001
C4    C     C_R   0.238893 0.049616 0.550227 -0.045977
C5    C     C_R   0.242664 0.922179 0.586128 -0.064832
C6    C     C_R   0.327782 0.861628 0.566615 -0.236125
C7    C     C_R   0.411696 0.929338 0.527773 0.089071
C8    C     C_R   0.411157 0.059444 0.514264 0.078853
C9    C     C_R   0.498435 0.127411 0.494482 -0.152975
C10   C     C_R   0.583989 0.066976 0.474126 -0.041840
C11   C     C_R   0.581678 0.937694 0.477137 -0.211250
C12   C     C_R   0.329523 0.499444 0.500087 0.836601
C13   C     C_R   0.497107 0.870798 0.503316 -0.067586
C14   C     C_R   0.361720 0.359986 0.144890 -0.184370
C15   C     C_R   0.275892 0.322264 0.087399 -0.140588
C16   C     C_R   0.266938 0.332254 0.949164 -0.220631
C17   C     C_R   0.348445 0.366779 0.871705 0.452349
C18   C     C_R   0.427400 0.434441 0.930785 0.084420
C19   C     C_R   0.430590 0.432048 0.073958 0.002944
C20   C     C_R   0.567008 0.567152 0.073050 0.473320
C21   C     C_R   0.567867 0.565631 0.928591 -0.128862
C22   C     C_R   0.500014 0.738902 0.500666 0.851444
C23   C     C_R   0.670521 0.501168 0.499616 0.898729
C24   C     C_1   0.228022 0.499101 0.499052 -0.078278
C25   C     C_1   0.142695 0.498993 0.496717 0.177637
C26   C     C_1   0.042734 0.499190 0.495670 0.085606
C27   C     C_1   0.957409 0.499704 0.496111 0.042189
C28   C     C_1   0.857455 0.500566 0.497451 0.039454
H1    H     H_    0.320418 0.216085 0.493360 0.169727
H2    H     H_    0.329077 0.762426 0.587836 0.164958
H3    H     H_    0.646022 0.888310 0.458688 0.171042
H4    H     H_    0.371185 0.336133 0.246868 0.223493
N1    N     N_R   0.499190 0.498800 0.142780 -0.102773
N2    N     N_R   0.499160 0.498720 0.857170 -0.138654
O1    O     O_R   0.500000 0.316780 0.614690 -0.542140
O2    O     O_R   0.499990 0.316750 0.385360 -0.600153
O3    O     O_R   0.373720 0.500010 0.614690 -0.530877
O4    O     O_R   0.373710 0.499990 0.385360 -0.643750
O5    O     O_R   0.500010 0.683250 0.614640 -0.585817
O6    O     O_R   0.500000 0.683220 0.385310 -0.569581
O7    O     O_R   0.626290 0.500010 0.614640 -0.593285
O8    O     O_R   0.626280 0.499990 0.385310 -0.520575
Zn1   Zn    Zn3+2 0.500010 0.500020 0.653130 1.037396
Zn2   Zn    Zn3+2 0.499990 0.499980 0.346870 1.026486
C29   C     C_2   0.676190 0.134752 0.446118 0.896896
O9    O     O_2   0.748545 0.099425 0.497571 -0.606263
O10   O     O_R   0.681387 0.234489 0.356069 -0.780152
H5    H     H_    0.748690 0.269140 0.341439 0.344682
C30   C     C_2   0.176086 0.297399 0.882371 1.000773
O11   O     O_2   0.135757 0.195323 0.903195 -0.563433
O12   O     O_R   0.136942 0.382614 0.795445 -0.748154
H6    H     H_    0.072823 0.351540 0.760474 0.369451
O13   O     O_3   0.357221 0.314261 0.748020 -0.716530
H7    H     H_    0.310748 0.242737 0.737891 0.318766
C31   C     C_2   0.643246 0.636857 0.855704 0.954704
O14   O     O_2   0.721714 0.594051 0.844782 -0.606244
O15   O     O_R   0.626350 0.755810 0.806047 -0.776063
H8    H     H_    0.683729 0.795836 0.758741 0.346491
C32   C     C_2   0.147647 0.112049 0.538910 1.040613
O16   O     O_2   0.144704 0.224733 0.558673 -0.664351
O17   O     O_R   0.065786 0.043463 0.498967 -0.753005
H9    H     H_    0.008662 0.097237 0.492896 0.362335
C33   C     C_2   0.161891 0.853257 0.653529 0.974809
O18   O     O_2   0.154491 0.738847 0.647854 -0.640046
O19   O     O_R   0.097088 0.918361 0.730267 -0.739210
H10   H     H_    0.046380 0.860720 0.772622 0.368916
O20   O     O_3   0.633075 0.636656 0.147151 -0.716826
H11   H     H_    0.673951 0.690498 0.088529 0.331884
C34   C     C_2   0.197572 0.272871 0.174387 0.984471
O21   O     O_2   0.214156 0.199928 0.263964 -0.647535
O22   O     O_R   0.105313 0.311387 0.155965 -0.766521
H12   H     H_    0.058722 0.272159 0.222895 0.354813

loop_
_geom_bond_atom_site_label_1
_geom_bond_atom_site_label_2
_ccdc_geom_bond_type
O3    Zn1   S    
C2    C28   T    
C31   O14   D    
C33   O19   S    
O4    Zn2   S    
C6    C7    A    
C16   C30   S    
O1    Zn1   S    
C9    C10   A    
C12   C24   S    
C20   O20   S    
O10   H5    S    
C23   O7    A    
C7    C13   A    
C22   O6    A    
C2    C23   S    
C10   C29   S    
C29   O10   S    
C17   C18   A    
O15   H8    S    
C11   H3    S    
C32   O16   D    
C12   O3    A    
C29   O9    D    
C20   C21   A    
C18   C19   A    
C4    C5    A    
O7    Zn1   S    
C5    C33   S    
C26   C27   T    
C34   O21   D    
C23   O8    A    
O8    Zn2   S    
C18   N2    A    
C5    C6    A    
C22   O5    A    
C4    C32   S    
C6    H2    S    
C13   C22   S    
C3    C8    A    
C31   O15   S    
C1    O2    A    
C12   O4    A    
O17   H9    S    
C15   C34   S    
C30   O11   D    
O2    Zn2   S    
C11   C13   A    
C32   O17   S    
C10   C11   A    
C20   N1    A    
O12   H6    S    
C1    C9    S    
C17   O13   S    
O6    Zn2   S    
O22   H12   S    
C24   C25   T    
C1    O1    A    
C3    H1    S    
O19   H10   S    
C19   N1    A    
C27   C28   S    
C34   O22   S    
C7    C8    A    
C14   C15   A    
C16   C17   A    
C21   C31   S    
O5    Zn1   S    
C21   N2    A    
C25   C26   S    
C33   O18   D    
N1    Zn2   S    
C14   C19   A    
C15   C16   A    
N2    Zn1   S    
O20   H11   S    
O13   H7    S    
C14   H4    S    
C8    C9    A    
C30   O12   S    
C3    C4    A    
