data_mof_unit_53032.cif
_audit_creation_date              2012-10-26T20:02:33-0400
_audit_creation_method            fapswitch 2.2
_symmetry_space_group_name_H-M    P1
_symmetry_Int_Tables_number       1
_space_group_crystal_system       triclinic
_cell_length_a                    19.280625
_cell_length_b                    18.635266
_cell_length_c                    12.305924
_cell_angle_alpha                 90.051835
_cell_angle_beta                  128.393414
_cell_angle_gamma                 89.933209
_cell_volume                      3465.42424426

loop_
_atom_site_label
_atom_site_type_symbol
_atom_type_description
_atom_site_fract_x
_atom_site_fract_y
_atom_site_fract_z
_atom_type_partial_charge
C1    C     C_R   0.611039 0.897881 0.652672 0.544502
C2    C     C_R   0.706384 0.767820 0.097924 0.051697
C3    C     C_R   0.197328 0.740207 0.083591 0.064806
C4    C     C_R   0.204835 0.266153 0.095338 0.046589
C5    C     C_R   0.624014 0.198183 0.985160 -0.060241
C6    C     C_R   0.632872 0.807953 0.996823 -0.081755
C7    C     C_R   0.125389 0.698053 0.985093 -0.063044
C8    C     C_R   0.130764 0.305392 0.993387 -0.100925
C9    C     C_R   0.606256 0.182391 0.860776 -0.081112
C10   C     C_R   0.615769 0.821373 0.871865 -0.090272
C11   C     C_R   0.108297 0.683238 0.860764 -0.082263
C12   C     C_R   0.608565 0.103591 0.649513 0.542180
C13   C     C_R   0.114342 0.319724 0.869138 -0.098658
C14   C     C_R   0.314483 0.820587 0.142626 -0.111083
C15   C     C_R   0.326099 0.189529 0.159304 -0.108553
C16   C     C_R   0.811094 0.323044 0.138534 -0.110689
C17   C     C_R   0.826638 0.690180 0.160308 -0.108591
C18   C     C_R   0.275503 0.809825 0.294827 -0.076006
C19   C     C_R   0.278994 0.192760 0.301237 -0.089264
C20   C     C_R   0.774371 0.310866 0.293400 -0.073657
C21   C     C_R   0.779739 0.693394 0.302482 -0.089330
C22   C     C_R   0.662065 0.167974 0.725511 -0.049561
C23   C     C_R   0.110923 0.397788 0.652474 0.543929
C24   C     C_R   0.674285 0.840233 0.741373 -0.046628
C25   C     C_R   0.167274 0.664765 0.731192 -0.048715
C26   C     C_R   0.173937 0.339898 0.740622 -0.046351
C27   C     C_R   0.683583 0.003115 0.286563 0.204249
C28   C     C_R   0.183557 0.502795 0.286628 0.204393
C29   C     C_R   0.345093 0.001668 0.631880 0.261760
C30   C     C_R   0.845157 0.502776 0.631864 0.274600
C31   C     C_R   0.313792 0.009395 0.706351 -0.037590
C32   C     C_R   0.814002 0.510913 0.706466 -0.025389
C33   C     C_R   0.388779 0.101622 0.348104 0.568472
C34   C     C_R   0.109478 0.603055 0.650507 0.541080
C35   C     C_R   0.387257 0.899615 0.345881 0.569849
C36   C     C_R   0.888841 0.601707 0.348216 0.568559
C37   C     C_R   0.887009 0.399793 0.345539 0.567745
C38   C     C_R   0.370515 0.014045 0.849472 0.079013
C39   C     C_R   0.870740 0.514654 0.849671 0.074546
C40   C     C_R   0.463314 0.005045 0.923822 0.032935
C41   C     C_R   0.963461 0.505080 0.923907 0.035240
C42   C     C_R   0.493453 0.001360 0.842112 0.154066
C43   C     C_R   0.993532 0.501252 0.842177 0.154731
C44   C     C_R   0.527781 0.002151 0.073649 -0.019438
C45   C     C_R   0.252631 0.768216 0.053784 0.028758
C46   C     C_R   0.027873 0.501982 0.073727 -0.015266
C47   C     C_R   0.620025 0.004491 0.139051 0.006942
C48   C     C_R   0.120093 0.504241 0.139189 0.008643
C49   C     C_R   0.645666 0.007371 0.055411 -0.169579
C50   C     C_R   0.145872 0.507275 0.055710 -0.165400
C51   C     C_R   0.584846 0.002196 0.912748 -0.129997
C52   C     C_R   0.085024 0.502091 0.912895 -0.124007
C53   C     C_R   0.504939 0.993952 0.162177 0.057030
C54   C     C_R   0.004992 0.493769 0.162188 0.059868
C55   C     C_R   0.653390 0.004383 0.364401 0.105690
C56   C     C_R   0.263805 0.241789 0.070486 0.027967
C57   C     C_R   0.153335 0.504358 0.364472 0.105783
C58   C     C_R   0.710152 0.260353 0.205745 0.125695
C59   C     C_R   0.718281 0.746540 0.218534 0.101954
C60   C     C_R   0.211464 0.759120 0.207042 0.124934
C61   C     C_R   0.216934 0.245312 0.216318 0.092386
C62   C     C_R   0.324846 0.842285 0.260485 -0.016135
C63   C     C_R   0.330276 0.162200 0.268755 -0.008769
C64   C     C_R   0.823312 0.343448 0.258517 -0.018088
C65   C     C_R   0.830683 0.662627 0.269479 -0.009167
C66   C     C_R   0.712846 0.196550 0.690561 -0.084544
C67   C     C_R   0.746941 0.272488 0.047041 0.029594
C68   C     C_R   0.736362 0.821287 0.722394 -0.091665
C69   C     C_R   0.224829 0.687689 0.705372 -0.086813
C70   C     C_R   0.236244 0.321240 0.721973 -0.091576
C71   C     C_R   0.290604 0.737412 0.790976 0.283457
C72   C     C_R   0.308296 0.278479 0.817744 0.275336
C73   C     C_R   0.771294 0.252384 0.766447 0.285151
C74   C     C_R   0.808678 0.778841 0.818548 0.275899
C75   C     C_R   0.301441 0.763810 0.906838 -0.082218
C76   C     C_R   0.319326 0.253526 0.934361 -0.072546
C77   C     C_R   0.783517 0.278222 0.883840 -0.082868
C78   C     C_R   0.764845 0.742931 0.072311 0.025492
C79   C     C_R   0.820041 0.754306 0.935675 -0.072934
C80   C     C_R   0.733548 0.250687 0.923693 0.001189
C81   C     C_R   0.756174 0.768551 0.955167 0.001744
C82   C     C_R   0.242665 0.743973 0.934578 0.000116
C83   C     C_R   0.255268 0.267537 0.953528 0.003361
C84   C     C_R   0.666593 0.199571 0.835655 0.007761
C85   C     C_R   0.680990 0.810344 0.854481 0.007877
C86   C     C_R   0.171715 0.696968 0.840656 0.006834
C87   C     C_R   0.180129 0.309377 0.852826 0.010803
C88   C     C_R   0.694380 0.242362 0.080649 0.065241
Cu1   Cu    Cu3+1 0.526340 1.000000 0.421010 1.002837
Cu2   Cu    Cu3+1 0.026340 0.500000 0.421010 1.003681
Cu3   Cu    Cu3+1 0.473640 0.000000 0.578990 0.990832
Cu4   Cu    Cu3+1 0.973640 0.500000 0.578990 0.991151
H1    H     H_    0.285040 0.825047 0.388193 0.198819
H2    H     H_    0.743468 0.517019 0.650484 0.170717
H3    H     H_    0.613405 0.000673 0.861738 0.196007
H4    H     H_    0.113559 0.500687 0.861807 0.195791
H5    H     H_    0.579201 0.177809 0.002456 0.195263
H6    H     H_    0.584052 0.824468 0.008410 0.194459
H7    H     H_    0.078587 0.679471 0.999333 0.199123
H8    H     H_    0.081633 0.320851 0.004673 0.198096
H9    H     H_    0.352836 0.847730 0.118990 0.138641
H10   H     H_    0.368318 0.165885 0.139896 0.158672
H11   H     H_    0.851730 0.348559 0.117899 0.138714
H12   H     H_    0.285144 0.174461 0.390308 0.165231
H13   H     H_    0.868512 0.666331 0.140376 0.159201
H14   H     H_    0.706975 0.175488 0.603124 0.203146
H15   H     H_    0.731137 0.842739 0.635856 0.204251
H16   H     H_    0.220696 0.664816 0.620630 0.204174
H17   H     H_    0.231391 0.343104 0.636011 0.204467
H18   H     H_    0.357683 0.798233 0.974418 0.147529
H19   H     H_    0.380038 0.225201 0.010045 0.160936
H20   H     H_    0.831485 0.320396 0.939714 0.150054
H21   H     H_    0.880869 0.726164 0.011548 0.161344
H22   H     H_    0.542321 0.159001 0.784704 0.192824
H23   H     H_    0.785125 0.325276 0.388033 0.206699
H24   H     H_    0.549294 0.838688 0.790158 0.193109
H25   H     H_    0.043321 0.662387 0.781539 0.191216
H26   H     H_    0.048055 0.337296 0.787054 0.186399
H27   H     H_    0.699924 0.006003 0.476460 0.176873
H28   H     H_    0.199889 0.506081 0.476509 0.175539
H29   H     H_    0.825202 0.921475 0.278095 0.349552
H30   H     H_    0.322527 0.417356 0.279113 0.351068
H31   H     H_    0.390777 0.720346 0.622881 0.382163
H32   H     H_    0.361154 0.257986 0.597481 0.361150
H33   H     H_    0.898768 0.241122 0.644388 0.369012
H34   H     H_    0.785697 0.674829 0.391255 0.162994
H35   H     H_    0.861898 0.757885 0.598253 0.360297
H36   H     H_    0.713135 0.014416 0.096981 0.200239
H37   H     H_    0.213460 0.514513 0.097775 0.201192
H38   H     H_    0.439860 0.979079 0.123248 0.166778
H39   H     H_    0.939968 0.478704 0.123174 0.165882
H40   H     H_    0.243197 0.014778 0.650322 0.166795
I1    I     I_    0.241206 0.998346 0.414097 -0.216426
I2    I     I_    0.741235 0.500082 0.413871 -0.183258
I3    I     I_    0.299670 0.050711 0.920403 -0.355303
I4    I     I_    0.800255 0.551243 0.921320 -0.351955
I5    I     I_    0.639269 0.215628 0.270281 -0.248050
I6    I     I_    0.643835 0.788674 0.278592 -0.315649
I7    I     I_    0.137809 0.715903 0.267696 -0.264130
I8    I     I_    0.142427 0.287648 0.276132 -0.326368
N1    N     N_R   0.566260 0.000000 0.302220 -0.274066
N2    N     N_R   0.066260 0.500000 0.302220 -0.273627
N3    N     N_R   0.434410 0.000000 0.697680 -0.237069
N4    N     N_R   0.934410 0.500000 0.697680 -0.242216
O1    O     O_R   0.608610 0.924520 0.551740 -0.494184
O2    O     O_R   0.435880 0.924530 0.314850 -0.507890
O3    O     O_R   0.935880 0.575470 0.314850 -0.492794
O4    O     O_R   0.935880 0.424530 0.314850 -0.507231
O5    O     O_R   0.391380 0.075460 0.448260 -0.492482
O6    O     O_R   0.391380 0.924540 0.448260 -0.479776
O7    O     O_R   0.891380 0.575460 0.448260 -0.494789
O8    O     O_R   0.891380 0.424540 0.448260 -0.480577
O9    O     O_2   0.840951 0.067305 0.457086 -0.199415
O10   O     O_2   0.832641 0.940559 0.496292 -0.224952
O11   O     O_3   0.838437 0.973398 0.298642 -0.502946
O12   O     O_R   0.608610 0.075480 0.551740 -0.501964
O13   O     O_2   0.341841 0.566296 0.453875 -0.206328
O14   O     O_2   0.332532 0.440729 0.498355 -0.222578
O15   O     O_3   0.336884 0.469375 0.297981 -0.500300
O16   O     O_2   0.366955 0.841748 0.749780 -0.307262
O17   O     O_2   0.455444 0.734674 0.879099 -0.288802
O18   O     O_3   0.335351 0.723879 0.611773 -0.499260
O19   O     O_2   0.475455 0.293795 0.919293 -0.239455
O20   O     O_2   0.400954 0.181716 0.796747 -0.348964
O21   O     O_3   0.361622 0.298150 0.650709 -0.463570
O22   O     O_2   0.775118 0.350586 0.614750 -0.268173
O23   O     O_R   0.108610 0.424520 0.551740 -0.494383
O24   O     O_2   0.916813 0.318004 0.835186 -0.346958
O25   O     O_3   0.842989 0.227414 0.628230 -0.489043
O26   O     O_2   0.975710 0.794210 0.919251 -0.240396
O27   O     O_2   0.901256 0.681924 0.797640 -0.350395
O28   O     O_3   0.861442 0.798084 0.650694 -0.464610
O29   O     O_R   0.108610 0.575480 0.551740 -0.502792
O30   O     O_R   0.564110 0.924510 0.685150 -0.543055
O31   O     O_R   0.564110 0.075490 0.685150 -0.548941
O32   O     O_R   0.064110 0.424510 0.685150 -0.542476
O33   O     O_R   0.064110 0.575490 0.685150 -0.548325
O34   O     O_R   0.435880 0.075470 0.314850 -0.493891
S1    S     S_3+6 0.800689 0.996385 0.385962 0.035779
S2    S     S_3+6 0.300547 0.495205 0.385771 0.036703
S3    S     S_3+6 0.365159 0.761436 0.759842 0.002162
S4    S     S_3+6 0.389755 0.261499 0.798256 0.010923
S5    S     S_3+6 0.828852 0.289826 0.712083 -0.000466
S6    S     S_3+6 0.889956 0.761721 0.798695 0.009298

loop_
_geom_bond_atom_site_label_1
_geom_bond_atom_site_label_2
_ccdc_geom_bond_type
C83   C87   A    
O9    S1    D    
C10   C85   A    
C8    C13   A    
C55   N1    A    
Cu2   O23   S    
C71   S3    S    
C29   I1    S    
C45   C82   A    
O15   S2    S    
C80   C84   A    
C13   H26   S    
C39   C41   A    
C55   H27   S    
C28   C57   A    
Cu4   O32   S    
Cu1   O1    S    
C54   H39   S    
Cu2   O29   S    
C67   C88   A    
C31   H40   S    
C7    H7    S    
C57   N2    A    
C9    H22   S    
C6    H6    S    
C70   H17   S    
C27   S1    S    
C21   C59   A    
C3    C7    A    
C73   S5    S    
C27   C55   A    
C43   C52   A    
C32   C39   A    
C74   S6    S    
C11   C86   A    
C68   C74   A    
C14   C62   A    
C61   I8    S    
C12   C22   S    
C30   N4    A    
C23   C26   S    
C69   C71   A    
O14   S2    D    
O25   S5    S    
Cu2   O4    S    
C16   H11   S    
C5    C88   A    
C1    O1    A    
C44   C53   A    
C22   C66   A    
C19   C63   A    
C26   C87   A    
C30   I2    S    
Cu4   O8    S    
C50   C52   A    
C41   C46   A    
C68   H15   S    
Cu1   Cu3   S    
H33   O25   S    
C24   C85   A    
C44   C47   A    
C4    C8    A    
C42   C51   A    
C21   C65   A    
C3    C60   A    
C40   C42   A    
C15   H10   S    
C38   C40   A    
O10   S1    D    
C4    C56   A    
O19   S4    D    
C41   C43   A    
C13   C87   A    
C43   N4    A    
C2    C6    A    
C12   O12   A    
C76   C83   A    
C69   H16   S    
O11   S1    S    
C14   C45   A    
Cu3   N3    S    
C39   I4    S    
Cu1   O2    S    
C46   C48   A    
C1    O30   A    
O22   S5    D    
C30   C32   A    
O27   S6    D    
O18   S3    S    
C47   C49   A    
H30   O15   S    
Cu3   O5    S    
H31   O18   S    
C2    C59   A    
C18   C62   A    
C14   H9    S    
C23   O32   A    
C9    C84   A    
C59   I6    S    
C49   C51   A    
H35   O28   S    
C82   C86   A    
C66   C73   A    
C4    C61   A    
C3    C45   A    
Cu3   O30   S    
O13   S2    D    
C22   C84   A    
C20   C64   A    
C77   H20   S    
C7    C11   A    
C5    C9    A    
Cu2   O3    S    
C2    C78   A    
C50   H37   S    
C17   H13   S    
C20   H23   S    
C19   H12   S    
O28   S6    S    
C36   O3    A    
Cu2   Cu4   S    
C54   N2    A    
C33   C63   S    
O24   S5    D    
C46   C54   A    
Cu4   O7    S    
Cu3   O31   S    
C72   C76   A    
C36   O7    A    
C16   C67   A    
Cu1   O34   S    
C28   S2    S    
Cu2   N2    S    
C57   H28   S    
C23   O23   A    
C58   I5    S    
C18   C60   A    
C35   O6    A    
C5    H5    S    
C74   C79   A    
C12   O31   A    
C26   C70   A    
C25   C86   A    
C25   C69   A    
O21   S4    S    
C37   O8    A    
C20   C58   A    
C11   H25   S    
O16   S3    D    
C37   C64   S    
C10   H24   S    
C56   C83   A    
C79   C81   A    
C77   C80   A    
C27   C47   A    
C49   H36   S    
C28   C48   A    
C75   H18   S    
C73   C77   A    
H29   O11   S    
O26   S6    D    
C33   O34   A    
C36   C65   S    
C67   C80   A    
Cu1   O12   S    
C58   C88   A    
C6    C10   A    
Cu3   O6    S    
C75   C82   A    
C25   C34   S    
C17   C65   A    
C31   C38   A    
C15   C56   A    
C79   H21   S    
C8    H8    S    
C72   S4    S    
C29   C31   A    
C34   O29   A    
C33   O5    A    
C71   C75   A    
C78   C81   A    
C66   H14   S    
C19   C61   A    
C76   H19   S    
Cu1   N1    S    
C48   C50   A    
C17   C78   A    
C38   I3    S    
C52   H4    S    
C35   C62   S    
C53   N1    A    
C37   O4    A    
O17   S3    D    
Cu4   N4    S    
O20   S4    D    
Cu4   O33   S    
C24   C68   A    
C60   I7    S    
H32   O21   S    
C40   C44   A    
C1    C24   S    
C32   H2    S    
C42   N3    A    
C18   H1    S    
C15   C63   A    
C34   O33   A    
C70   C72   A    
C53   H38   S    
C16   C64   A    
C21   H34   S    
C35   O2    A    
C81   C85   A    
C51   H3    S    
C29   N3    A    
