data_mof_unit_10619.cif
_audit_creation_date              2012-12-10T19:25:03-0500
_audit_creation_method            fapswitch 2.2
_symmetry_space_group_name_H-M    P1
_symmetry_Int_Tables_number       1
_space_group_crystal_system       triclinic
_cell_length_a                    15.715633
_cell_length_b                    10.486972
_cell_length_c                    9.766976
_cell_angle_alpha                 90.448294
_cell_angle_beta                  89.912571
_cell_angle_gamma                 90.021898
_cell_volume                      1609.63823074

loop_
_atom_site_label
_atom_site_type_symbol
_atom_type_description
_atom_site_fract_x
_atom_site_fract_y
_atom_site_fract_z
_atom_type_partial_charge
C1    C     C_R   0.500027 0.257516 0.499396 0.854034
C2    C     C_3   0.518252 0.611792 0.952317 -0.078036
C3    C     C_3   0.555425 0.420437 0.950480 -0.068625
C4    C     C_3   0.444575 0.579563 0.049520 -0.068625
C5    C     C_3   0.426255 0.467802 0.951405 -0.074224
C6    C     C_3   0.573745 0.532198 0.048594 -0.074224
C7    C     C_R   0.338078 0.499922 0.500063 0.899433
C8    C     C_R   0.661922 0.500077 0.499937 0.899433
C9    C     C_3   0.971316 0.403817 0.578852 -0.214381
C10   C     C_3   0.028684 0.596180 0.421149 -0.214376
C11   C     C_3   0.027396 0.389234 0.449933 0.162874
C12   C     C_R   0.499973 0.742484 0.500604 0.854034
C13   C     C_3   0.972604 0.610764 0.550068 0.162874
C14   C     C_1   0.249132 0.499796 0.500253 -0.198354
C15   C     C_1   0.750868 0.500203 0.499747 -0.198354
C16   C     C_3   0.028167 0.515531 0.629685 -0.211766
C17   C     C_3   0.971833 0.484467 0.370316 -0.211764
C18   C     C_3   0.082908 0.499679 0.500194 0.147735
C19   C     C_3   0.917092 0.500318 0.499807 0.147735
C20   C     C_1   0.173815 0.499716 0.500320 -0.090799
C21   C     C_1   0.826185 0.500282 0.499680 -0.090797
C22   C     C_3   0.569987 0.043055 0.564489 -0.183375
C23   C     C_3   0.570100 0.956980 0.435524 -0.180460
C24   C     C_3   0.430013 0.956945 0.435511 -0.183375
C25   C     C_3   0.061766 0.263120 0.393441 -0.429953
C26   C     C_3   0.989223 0.173997 0.350115 -0.331830
C27   C     C_3   0.023548 0.046962 0.296621 -0.896458
C28   C     C_3   0.938236 0.736879 0.606559 -0.429952
C29   C     C_3   0.010780 0.826010 0.649862 -0.331828
C30   C     C_3   0.976458 0.953047 0.703356 -0.896458
C31   C     C_3   0.429900 0.043020 0.564476 -0.180460
C32   C     C_3   0.499980 0.877626 0.501744 0.037519
C33   C     C_3   0.500020 0.122374 0.498256 0.037519
C34   C     C_3   0.499867 0.960995 0.630875 -0.139747
C35   C     C_3   0.500133 0.039005 0.369125 -0.139747
C36   C     C_3   0.481747 0.388208 0.047683 -0.078036
H1    H     H_    0.946086 0.324904 0.642282 0.135165
H2    H     H_    0.500241 0.074833 0.262440 0.132773
H3    H     H_    0.602054 0.353393 0.903893 0.116974
H4    H     H_    0.397946 0.646607 0.096107 0.116974
H5    H     H_    0.466336 0.293995 0.092493 0.115415
H6    H     H_    0.533664 0.706005 0.907507 0.115415
H7    H     H_    0.364123 0.440557 0.905821 0.122257
H8    H     H_    0.635877 0.559443 0.094179 0.122257
H9    H     H_    0.062843 0.062141 0.203524 0.259414
H10   H     H_    0.062938 0.000173 0.375963 0.260439
H11   H     H_    0.969684 0.982897 0.269990 0.247078
H12   H     H_    0.053914 0.675092 0.357717 0.135162
H13   H     H_    0.946811 0.155849 0.438935 0.217148
H14   H     H_    0.950947 0.219428 0.268262 0.217684
H15   H     H_    0.103277 0.283214 0.303950 0.201322
H16   H     H_    0.100730 0.217041 0.474016 0.201458
H17   H     H_    0.937067 0.999835 0.624015 0.260439
H18   H     H_    0.937164 0.937870 0.796455 0.259416
H19   H     H_    0.030323 0.017111 0.729982 0.247076
H20   H     H_    0.049065 0.780586 0.731708 0.217686
H21   H     H_    0.053183 0.844155 0.561031 0.217146
H22   H     H_    0.899263 0.782951 0.525991 0.201459
H23   H     H_    0.946967 0.471079 0.264845 0.133006
H24   H     H_    0.896733 0.716788 0.696061 0.201319
H25   H     H_    0.053034 0.528918 0.735156 0.133008
H26   H     H_    0.627093 0.917030 0.383358 0.128556
H27   H     H_    0.372907 0.082970 0.616642 0.128556
H28   H     H_    0.626886 0.083024 0.616684 0.127995
H29   H     H_    0.373114 0.916976 0.383315 0.127995
H30   H     H_    0.499759 0.925167 0.737560 0.132773
N1    N     N_3   0.499940 0.500030 0.863290 -0.072188
N2    N     N_3   0.500060 0.499970 0.136710 -0.072188
O1    O     O_R   0.500000 0.313960 0.616610 -0.621665
O2    O     O_R   0.500000 0.686040 0.383390 -0.621665
O3    O     O_R   0.500040 0.313950 0.383350 -0.629251
O4    O     O_R   0.499960 0.686050 0.616650 -0.629251
O5    O     O_R   0.376760 0.499990 0.616610 -0.617569
O6    O     O_R   0.623240 0.500010 0.383390 -0.617569
O7    O     O_R   0.376790 0.499980 0.383350 -0.614524
O8    O     O_R   0.623210 0.500020 0.616650 -0.614524
Zn1   Zn    Zn3+2 0.499980 0.500010 0.655740 0.934921
Zn2   Zn    Zn3+2 0.500020 0.499990 0.344260 0.934921

loop_
_geom_bond_atom_site_label_1
_geom_bond_atom_site_label_2
_ccdc_geom_bond_type
C11   C18   S    
O2    Zn2   S    
O1    Zn1   S    
N1    Zn1   S    
C5    N1    S    
C3    C6    S    
C34   H30   S    
C25   H15   S    
C1    C33   S    
C7    O5    A    
C30   H18   S    
C26   C27   S    
C29   C30   S    
C28   C29   S    
C19   C21   S    
C9    C16   S    
C10   C18   S    
C26   H14   S    
C11   C25   S    
C10   C17   S    
C5    C36   S    
C8    O8    A    
C33   C35   S    
C9    C19   S    
C7    C14   S    
C4    H4    S    
C31   C33   S    
C13   C28   S    
C27   H9    S    
C6    N2    S    
C5    H7    S    
C3    H3    S    
C6    H8    S    
C12   C32   S    
C36   H5    S    
C2    C6    S    
C9    H1    S    
C28   H24   S    
N2    Zn2   S    
C22   C34   S    
C30   H17   S    
C24   C35   S    
C13   C19   S    
C31   H27   S    
C35   H2    S    
O8    Zn1   S    
C2    N1    S    
C26   H13   S    
C4    N2    S    
C7    O7    A    
C25   C26   S    
C1    O1    A    
C32   C34   S    
C2    C4    S    
C24   C32   S    
O4    Zn1   S    
C14   C20   T    
C8    O6    A    
C31   C34   S    
C1    O3    A    
C9    C11   S    
C24   H29   S    
C17   H23   S    
C27   H10   S    
C29   H21   S    
C8    C15   S    
C23   C35   S    
C10   H12   S    
C16   H25   S    
C27   H11   S    
C22   C33   S    
C12   O2    A    
C11   C17   S    
C3    N1    S    
C4    C5    S    
C10   C13   S    
C36   N2    S    
C29   H20   S    
C28   H22   S    
C30   H19   S    
C23   C32   S    
C25   H16   S    
C3    C36   S    
C2    H6    S    
C17   C19   S    
C18   C20   S    
C12   O4    A    
O7    Zn2   S    
C24   C31   S    
C22   H28   S    
C15   C21   T    
C16   C18   S    
O6    Zn2   S    
C13   C16   S    
O5    Zn1   S    
C22   C23   S    
C23   H26   S    
O3    Zn2   S    
