data_mof_unit_46118.cif
_audit_creation_date              2013-03-05T15:55:20-0500
_audit_creation_method            fapswitch 2.2
_symmetry_space_group_name_H-M    P1
_symmetry_Int_Tables_number       1
_space_group_crystal_system       triclinic
_cell_length_a                    27.694289
_cell_length_b                    10.712904
_cell_length_c                    9.94236
_cell_angle_alpha                 89.217862
_cell_angle_beta                  90.08372
_cell_angle_gamma                 93.460283
_cell_volume                      2944.10888595

loop_
_atom_site_label
_atom_site_type_symbol
_atom_site_description
_atom_site_fract_x
_atom_site_fract_y
_atom_site_fract_z
_atom_type_partial_charge
O1    O     O_R   0.500000 0.316780 0.614690 -0.671604
O2    O     O_R   0.500000 0.316750 0.385360 -0.567787
C1    C     C_R   0.504514 0.260935 0.501812 0.909351
O3    O     O_R   0.428760 0.500030 0.614650 -0.577429
O4    O     O_R   0.428750 0.500010 0.385320 -0.654450
C2    C     C_R   0.406031 0.499693 0.499905 0.884106
Zn1   Zn    Zn3+2 0.500000 0.500020 0.653130 0.934786
Zn2   Zn    Zn3+2 0.500000 0.499980 0.346870 0.954107
O5    O     O_R   0.500000 0.683250 0.614640 -0.637547
O6    O     O_R   0.500000 0.683220 0.385310 -0.631076
O7    O     O_R   0.571250 0.499990 0.614680 -0.639182
O8    O     O_R   0.571240 0.499970 0.385350 -0.618728
C3    C     C_R   0.496141 0.738938 0.499552 0.903929
C4    C     C_R   0.593926 0.500927 0.500015 0.892328
C5    C     C_R   0.174040 0.387319 0.463062 0.524622
O9    O     O_2   0.196005 0.278202 0.462447 -0.555502
N1    N     N_R   0.201013 0.497698 0.474353 -0.346004
C6    C     C_R   0.180276 0.610186 0.473953 0.513249
C7    C     C_R   0.275694 0.525301 0.604563 -0.219139
C8    C     C_R   0.326297 0.526817 0.613430 0.422712
C9    C     C_R   0.328804 0.467756 0.377371 -0.305798
C10   C     C_R   0.278829 0.466688 0.370299 -0.101623
C11   C     C_R   0.252320 0.495786 0.483453 0.279392
C12   C     C_R   0.101330 0.501689 0.455559 -0.056151
C13   C     C_R   0.123636 0.387237 0.452997 -0.073637
C14   C     C_R   0.095552 0.276016 0.434930 -0.146167
C15   C     C_R   0.130023 0.614432 0.464183 -0.014435
C16   C     C_R   0.353040 0.497993 0.498050 -0.083354
H1    H     H_    0.348451 0.444716 0.287839 0.185064
H2    H     H_    0.260596 0.444146 0.276500 0.152814
H3    H     H_    0.112853 0.188857 0.421658 0.196177
C17   C     C_R   0.646780 0.503842 0.499392 -0.071838
C18   C     C_R   0.971747 0.392422 0.477304 0.048981
C19   C     C_R   0.977404 0.620787 0.441478 0.045160
C20   C     C_R   0.949394 0.507530 0.464484 0.077974
C21   C     C_R   0.943831 0.287017 0.526095 -0.222566
C22   C     C_R   0.894112 0.289884 0.541717 -0.131859
C23   C     C_R   0.870989 0.399692 0.513744 -0.024275
C24   C     C_R   0.898652 0.509598 0.477525 -0.051490
C25   C     C_R   0.875608 0.621672 0.455389 -0.034602
C26   C     C_R   0.825207 0.620605 0.465110 0.572524
N2    N     N_R   0.799055 0.512000 0.496784 -0.339986
C27   C     C_R   0.820721 0.403054 0.522884 0.536803
C28   C     C_R   0.722813 0.508555 0.619590 -0.189964
C29   C     C_R   0.672604 0.505110 0.620928 -0.213032
C30   C     C_R   0.671806 0.506351 0.376550 -0.323562
C31   C     C_R   0.722399 0.509808 0.374713 0.515151
C32   C     C_R   0.747582 0.510956 0.497125 0.284876
O10   O     O_2   0.793555 0.298180 0.555543 -0.543283
C33   C     C_R   0.021887 0.388652 0.450938 0.022284
C34   C     C_R   0.050404 0.503381 0.450994 0.032408
C35   C     C_R   0.028397 0.619827 0.447810 0.059700
C36   C     C_R   0.045221 0.275879 0.426394 0.184893
H4    H     H_    0.654095 0.503330 0.716882 0.174994
H5    H     H_    0.742610 0.509117 0.713617 0.164890
H6    H     H_    0.873930 0.205753 0.576223 0.194934
H7    H     H_    0.960192 0.202328 0.556919 0.171986
O11   O     O_2   0.208309 0.717364 0.482259 -0.551570
C37   C     C_R   0.108087 0.728464 0.463569 -0.133817
H8    H     H_    0.254318 0.547788 0.691132 0.138827
H9    H     H_    0.129420 0.816291 0.470778 0.193432
C38   C     C_R   0.953306 0.731440 0.416812 -0.216717
C39   C     C_R   0.903201 0.731447 0.422853 -0.128141
O12   O     O_2   0.802379 0.726786 0.442814 -0.539205
C40   C     C_R   0.058169 0.731402 0.454900 -0.212580
H10   H     H_    0.972241 0.819016 0.389441 0.145115
H11   H     H_    0.652177 0.505380 0.282223 0.165804
H12   H     H_    0.886218 0.818342 0.403107 0.191383
H13   H     H_    0.043785 0.822559 0.459554 0.141087
C41   C     C_R   0.509514 0.109437 0.759782 -0.178205
H14   H     H_    0.531153 0.195111 0.776371 0.184433
C42   C     C_R   0.491184 0.046163 0.873843 -0.160550
H15   H     H_    0.496607 0.088178 0.971527 0.158030
C43   C     C_R   0.464954 0.931693 0.860941 0.223261
C44   C     C_R   0.461554 0.876348 0.734411 -0.131904
H16   H     H_    0.440931 0.787667 0.726065 0.190842
C45   C     C_R   0.484619 0.934811 0.620714 0.038880
C46   C     C_R   0.501787 0.059387 0.629579 0.021848
C47   C     C_R   0.510446 0.127736 0.507360 -0.165382
C48   C     C_R   0.516628 0.065483 0.385476 0.448223
H17   H     H_    0.515756 0.888271 0.291975 0.168610
C49   C     C_R   0.508714 0.937188 0.383873 -0.331632
C50   C     C_R   0.493049 0.872047 0.499746 -0.147190
C51   C     C_R   0.435714 0.334018 0.141696 -0.104313
H18   H     H_    0.433561 0.329063 0.248672 0.197610
C52   C     C_R   0.404033 0.252025 0.072496 -0.212352
H19   H     H_    0.379352 0.187899 0.127489 0.161373
C53   C     C_R   0.403990 0.252326 0.933138 -0.167392
H20   H     H_    0.379418 0.188108 0.879592 0.161805
C54   C     C_R   0.435736 0.334353 0.862100 -0.081303
H21   H     H_    0.434085 0.328834 0.755186 0.202424
C55   C     C_R   0.468364 0.418350 0.928834 0.091836
C56   C     C_R   0.468370 0.418307 0.073090 0.119971
N3    N     N_R   0.499540 0.498800 0.142780 -0.135471
C57   C     C_R   0.530611 0.579552 0.070748 0.210667
C58   C     C_R   0.530619 0.579537 0.927129 0.205411
N4    N     N_R   0.499520 0.498720 0.857170 -0.142869
O13   O     O_3   0.748100 0.511011 0.255741 -0.749002
H22   H     H_    0.725060 0.510106 0.179247 0.330891
O14   O     O_3   0.531887 0.130986 0.270710 -0.745655
H23   H     H_    0.534888 0.072186 0.195429 0.319885
C59   C     C_3   0.442341 0.865646 0.981397 -0.904896
H24   H     H_    0.448807 0.920386 0.074518 0.239042
H25   H     H_    0.402701 0.851330 0.965823 0.253365
H26   H     H_    0.457887 0.773246 0.995504 0.247877
C60   C     C_3   0.565724 0.670997 0.140709 -0.821173
H27   H     H_    0.558574 0.768267 0.110561 0.211005
H28   H     H_    0.564102 0.668251 0.249441 0.290169
H29   H     H_    0.603454 0.651694 0.114524 0.215640
C61   C     C_3   0.565629 0.671635 0.855098 -0.799659
H30   H     H_    0.565249 0.666931 0.746518 0.291040
H31   H     H_    0.557352 0.768803 0.879646 0.225410
H32   H     H_    0.603334 0.655084 0.885051 0.209030
C62   C     C_3   0.019682 0.158690 0.371310 -0.941076
H33   H     H_    0.040837 0.122929 0.286688 0.248957
H34   H     H_    0.016464 0.084662 0.450601 0.232261
H35   H     H_    0.983674 0.176476 0.328718 0.261282
O15   O     O_3   0.349934 0.558223 0.731854 -0.759897
H36   H     H_    0.325723 0.575423 0.801559 0.331100

loop_
_geom_bond_atom_site_label_1
_geom_bond_atom_site_label_2
_geom_bond_distance
_ccdc_geom_bond_type
C56   N3    1.376055 A    
C41   C46   1.418929 A    
C17   C29   1.403036 A    
C20   C24   1.412947 A    
C57   C58   1.427911 A    
C12   C15   1.408658 A    
C1    C47   1.446485 S    
C8    O15   1.382016 S    
H17   C49   1.083240 S    
C45   C46   1.393344 A    
C28   C29   1.388842 A    
Zn1   O7    2.010476 S    
N1    C11   1.425016 S    
C31   O13   1.380910 S    
C60   H28   1.081982 S    
C21   C22   1.388135 A    
C51   C52   1.391546 A    
C23   C24   1.408285 A    
O7    C4    1.302000 A    
C52   C53   1.385506 A    
C5    C13   1.399298 A    
C60   H27   1.109553 S    
C45   C50   1.412433 A    
C5    O9    1.350038 S    
C19   C38   1.413445 A    
C18   C21   1.410254 A    
C59   H26   1.110110 S    
C5    N1    1.365873 A    
C19   C20   1.416155 A    
C26   N2    1.366134 A    
O5    C3    1.290480 A    
O15   H36   0.991738 S    
C55   C56   1.434242 A    
C61   H30   1.081415 S    
C22   H6    1.083382 S    
C6    O11   1.350080 S    
C2    C16   1.466645 S    
C7    C8    1.403199 A    
C41   H14   1.079901 S    
Zn1   N4    2.028553 S    
C43   C59   1.500889 S    
C12   C34   1.412232 A    
C14   H3    1.084602 S    
O1    Zn1   2.005005 S    
C9    C10   1.385067 A    
C48   O14   1.384466 S    
C59   H24   1.111219 S    
O3    Zn1   2.009153 S    
C55   N4    1.374354 A    
C62   H33   1.111405 S    
C37   H9    1.083548 S    
C33   C36   1.428111 A    
C43   C44   1.398664 A    
C38   H10   1.078572 S    
C34   C35   1.421025 A    
Zn2   N3    2.029365 S    
C12   C13   1.406394 A    
C48   C49   1.378951 A    
C21   H7    1.078886 S    
C4    C17   1.462225 S    
C24   C25   1.407889 A    
C46   C47   1.423234 A    
C27   O10   1.349983 S    
C8    C16   1.414062 A    
C33   C34   1.420275 A    
C18   C33   1.416581 A    
C58   C61   1.514480 S    
O1    C1    1.288726 A    
C7    C11   1.397252 A    
C44   H16   1.082657 S    
C22   C23   1.397403 A    
C57   C60   1.513536 S    
C44   C45   1.418668 A    
C54   C55   1.408148 A    
C31   C32   1.401680 A    
Zn2   O8    2.009150 S    
C58   N4    1.378350 A    
C38   C39   1.389008 A    
N1    C6    1.365820 A    
N2    C32   1.424896 S    
C51   H18   1.065773 S    
C59   H25   1.110193 S    
C25   C39   1.397657 A    
C61   H32   1.109298 S    
C42   C43   1.394440 A    
C25   C26   1.398653 A    
C9    C16   1.406082 A    
O8    C4    1.300757 A    
C29   H4    1.083054 S    
C49   C50   1.394775 A    
O3    C2    1.302104 A    
N2    C27   1.365789 A    
C14   C36   1.396252 A    
C36   C62   1.512206 S    
Zn1   O5    1.994748 S    
C3    C50   1.433729 S    
C30   C31   1.399524 A    
C10   H2    1.083082 S    
C52   H19   1.082703 S    
C17   C30   1.404300 A    
O2    Zn2   1.994745 S    
C6    C15   1.398393 A    
C53   C54   1.391265 A    
C42   H15   1.082473 S    
O6    C3    1.297845 A    
O4    Zn2   2.010479 S    
C62   H34   1.110399 S    
C7    H8    1.083361 S    
C39   H12   1.083470 S    
C19   C35   1.414168 A    
O2    C1    1.305139 A    
C13   C14   1.396568 A    
C30   H11   1.083160 S    
C15   C37   1.396714 A    
C37   C40   1.387225 A    
C28   H5    1.082971 S    
C54   H21   1.066185 S    
O4    C2    1.302119 A    
C9    H1    1.083055 S    
C40   H13   1.078301 S    
O14   H23   0.991609 S    
C18   C20   1.416943 A    
C51   C56   1.408893 A    
N3    C57   1.377225 A    
C61   H31   1.109770 S    
C62   H35   1.108839 S    
C47   C48   1.406778 A    
C23   C27   1.397889 A    
C53   H20   1.082694 S    
Zn2   O6    2.005004 S    
O13   H22   0.991818 S    
C10   C11   1.393340 A    
C41   C42   1.393694 A    
C26   O12   1.349905 S    
C35   C40   1.413041 A    
C28   C32   1.397553 A    
C60   H29   1.109387 S    
