data_mof_unit_34448.cif
_audit_creation_date              2012-12-10T20:57:06-0500
_audit_creation_method            fapswitch 2.2
_symmetry_space_group_name_H-M    P1
_symmetry_Int_Tables_number       1
_space_group_crystal_system       triclinic
_cell_length_a                    15.843149
_cell_length_b                    15.087598
_cell_length_c                    14.937503
_cell_angle_alpha                 91.059683
_cell_angle_beta                  90.264321
_cell_angle_gamma                 90.190005
_cell_volume                      3569.91765806

loop_
_atom_site_label
_atom_site_type_symbol
_atom_type_description
_atom_site_fract_x
_atom_site_fract_y
_atom_site_fract_z
_atom_type_partial_charge
C1    C     C_R   0.338896 0.499876 0.500114 0.904157
C2    C     C_R   0.086867 0.499682 0.500293 0.179359
C3    C     C_1   0.824349 0.500399 0.499686 -0.083104
C4    C     C_1   0.175654 0.499579 0.500360 -0.083049
C5    C     C_1   0.250502 0.499629 0.500289 -0.187897
C6    C     C_1   0.749500 0.500364 0.499734 -0.187561
C7    C     C_R   0.496337 0.951126 0.416934 -0.043608
C8    C     C_R   0.503748 0.048740 0.580532 -0.043977
C9    C     C_R   0.503310 0.954235 0.580381 -0.041689
C10   C     C_R   0.497007 0.045891 0.416920 -0.041106
C11   C     C_R   0.499922 0.905038 0.498680 -0.049892
C12   C     C_R   0.661105 0.500124 0.499887 0.905164
C13   C     C_R   0.500461 0.095008 0.498882 -0.049180
C14   C     C_1   0.499963 0.806907 0.499124 0.083223
C15   C     C_1   0.500332 0.193076 0.499500 0.083196
C16   C     C_R   0.499824 0.499258 0.326541 0.884110
C17   C     C_R   0.499758 0.500715 0.673535 0.883865
C18   C     C_R   0.555070 0.446412 0.813213 -0.239287
C19   C     C_R   0.444246 0.553892 0.187176 -0.245457
C20   C     C_R   0.499729 0.501823 0.768915 -0.050095
C21   C     C_R   0.499152 0.497913 0.231315 -0.063178
C22   C     C_R   0.443368 0.556390 0.814875 -0.275767
C23   C     C_R   0.383512 0.605094 0.050404 -0.288135
C24   C     C_R   0.554267 0.442114 0.185283 -0.272976
C25   C     C_R   0.439498 0.554146 0.908040 0.062711
C26   C     C_R   0.558339 0.444798 0.092246 0.062167
C27   C     C_R   0.498313 0.499879 0.953543 0.044235
C28   C     C_R   0.499700 0.499170 0.046745 0.042980
C29   C     C_R   0.556046 0.446292 0.905638 0.109669
C30   C     C_R   0.442489 0.553211 0.094757 0.105471
C31   C     C_R   0.380026 0.605302 0.957159 -0.007554
C32   C     C_R   0.618273 0.394233 0.043458 -0.010405
C33   C     C_R   0.311645 0.657195 0.914679 0.117938
C34   C     C_R   0.615166 0.394560 0.950185 -0.292343
C35   C     C_R   0.300556 0.747176 0.937965 -0.183440
C36   C     C_R   0.235393 0.795822 0.899228 -0.138438
C37   C     C_R   0.180130 0.754912 0.837983 -0.116005
C38   C     C_R   0.189482 0.665091 0.815922 -0.139768
C39   C     C_R   0.254463 0.616137 0.854594 -0.166336
C40   C     C_R   0.687619 0.344394 0.086757 0.138843
C41   C     C_R   0.743856 0.387619 0.146371 -0.163893
C42   C     C_R   0.810122 0.340922 0.185479 -0.133505
C43   C     C_R   0.821724 0.251222 0.164302 -0.103115
C44   C     C_R   0.767385 0.208237 0.103564 -0.143581
C45   C     C_R   0.956712 0.556680 0.559108 -0.189011
C46   C     C_R   0.700816 0.254619 0.064562 -0.171669
C47   C     C_R   0.496835 0.093688 0.330578 0.118558
C48   C     C_R   0.562515 0.080406 0.268944 -0.127856
C49   C     C_R   0.561691 0.123773 0.187138 -0.125788
C50   C     C_R   0.496608 0.182502 0.166967 -0.109602
C51   C     C_R   0.431314 0.196677 0.228103 -0.120237
C52   C     C_R   0.430891 0.151908 0.309285 -0.156416
C53   C     C_R   0.506021 0.905991 0.666126 0.122662
C54   C     C_R   0.577175 0.911786 0.722448 -0.130627
C55   C     C_R   0.579996 0.863627 0.801568 -0.137994
C56   C     C_R   0.043292 0.443276 0.440962 -0.189335
C57   C     C_R   0.512345 0.808850 0.824338 -0.105220
C58   C     C_R   0.441616 0.802882 0.768332 -0.120484
C59   C     C_R   0.437928 0.851816 0.690159 -0.158104
C60   C     C_R   0.506404 0.099497 0.666759 0.123131
C61   C     C_R   0.437694 0.096824 0.725749 -0.130402
C62   C     C_R   0.440821 0.143882 0.807273 -0.132433
C63   C     C_R   0.512390 0.193843 0.830388 -0.106425
C64   C     C_R   0.580963 0.196827 0.771980 -0.132417
C65   C     C_R   0.578083 0.149932 0.690385 -0.152881
C66   C     C_R   0.489531 0.899787 0.331130 0.120043
C67   C     C_R   0.044228 0.556388 0.559365 -0.192011
C68   C     C_R   0.416736 0.906142 0.277560 -0.124549
C69   C     C_R   0.410676 0.858270 0.196668 -0.147478
C70   C     C_R   0.476998 0.803635 0.168863 -0.121388
C71   C     C_R   0.549394 0.796540 0.221987 -0.112643
C72   C     C_R   0.555879 0.844566 0.302718 -0.158751
C73   C     C_R   0.955777 0.443563 0.440711 -0.192598
C74   C     C_R   0.913138 0.500278 0.499773 0.178371
H1    H     H_    0.598712 0.405154 0.775378 0.143024
H2    H     H_    0.594434 0.398301 0.222977 0.168618
H3    H     H_    0.343240 0.779972 0.984852 0.122374
H4    H     H_    0.227871 0.865304 0.916563 0.128116
H5    H     H_    0.129789 0.792696 0.807970 0.121419
H6    H     H_    0.146154 0.633274 0.769114 0.126219
H7    H     H_    0.260215 0.546290 0.837762 0.134670
H8    H     H_    0.736437 0.457459 0.162403 0.129721
H9    H     H_    0.852737 0.374416 0.231849 0.123860
H10   H     H_    0.873119 0.215172 0.194532 0.118549
H11   H     H_    0.776757 0.138892 0.086753 0.121704
H12   H     H_    0.401508 0.596171 0.225090 0.153154
H13   H     H_    0.659175 0.220420 0.017596 0.115414
H14   H     H_    0.614038 0.036038 0.284047 0.124460
H15   H     H_    0.611487 0.111453 0.139372 0.129503
H16   H     H_    0.496591 0.216684 0.103871 0.125206
H17   H     H_    0.380732 0.241921 0.212341 0.131897
H18   H     H_    0.379245 0.162480 0.355468 0.125210
H19   H     H_    0.630509 0.952843 0.704677 0.124147
H20   H     H_    0.634917 0.868157 0.844787 0.126410
H21   H     H_    0.514802 0.770833 0.885060 0.128608
H22   H     H_    0.389645 0.759985 0.784661 0.151211
H23   H     H_    0.338621 0.644270 0.088796 0.155419
H24   H     H_    0.382493 0.846608 0.647633 0.126966
H25   H     H_    0.381934 0.058301 0.708558 0.123532
H26   H     H_    0.387784 0.141544 0.852584 0.125687
H27   H     H_    0.514742 0.230080 0.893580 0.127146
H28   H     H_    0.636478 0.235244 0.790006 0.117313
H29   H     H_    0.631775 0.152363 0.645868 0.124137
H30   H     H_    0.364866 0.948138 0.298487 0.123686
H31   H     H_    0.354581 0.863548 0.155500 0.123968
H32   H     H_    0.472416 0.766959 0.106092 0.129492
H33   H     H_    0.600622 0.754052 0.200437 0.130761
H34   H     H_    0.660764 0.356136 0.912039 0.147554
H35   H     H_    0.612622 0.839105 0.342924 0.124625
H36   H     H_    0.078518 0.600036 0.605181 0.130938
H37   H     H_    0.921489 0.399897 0.394912 0.131558
H38   H     H_    0.923143 0.600495 0.604796 0.138189
H39   H     H_    0.076862 0.399456 0.395277 0.136720
H40   H     H_    0.402315 0.598942 0.776928 0.152912
N1    N     N_1   0.500000 0.270550 0.500000 -0.088444
N2    N     N_1   0.500000 0.729450 0.500000 -0.088362
O1    O     O_R   0.378020 0.573650 0.500030 -0.614472
O2    O     O_R   0.621980 0.426350 0.499970 -0.613627
O3    O     O_R   0.621980 0.573650 0.499970 -0.610484
O4    O     O_R   0.378020 0.426350 0.500030 -0.611497
O5    O     O_R   0.499980 0.573670 0.367860 -0.613903
O6    O     O_R   0.500020 0.426330 0.632140 -0.611695
O7    O     O_R   0.500020 0.573670 0.632140 -0.613523
O8    O     O_R   0.499980 0.426330 0.367860 -0.614586
Zn1   Zn    Zn3+2 0.500000 0.598370 0.500000 0.978229
Zn2   Zn    Zn3+2 0.500000 0.401630 0.500000 0.979070

loop_
_geom_bond_atom_site_label_1
_geom_bond_atom_site_label_2
_ccdc_geom_bond_type
C25   C31   A    
C7    C10   A    
C66   C68   A    
C41   C42   A    
C26   C32   A    
C18   H1    S    
C71   H33   S    
C27   C29   A    
C73   C74   A    
C35   C36   A    
C63   H27   S    
C19   H12   S    
C53   C59   A    
C45   H38   S    
C53   C54   A    
C7    C11   A    
C37   H5    S    
C8    C13   A    
N1    Zn2   S    
C1    C5    S    
C36   C37   A    
C19   C21   A    
C37   C38   A    
C24   C26   A    
C6    C12   S    
C38   C39   A    
C11   C14   S    
O4    Zn2   S    
O7    Zn1   S    
C17   C20   S    
C64   H28   S    
C3    C74   S    
C58   H22   S    
C54   H19   S    
C51   H17   S    
C72   H35   S    
C33   C39   A    
C66   C72   A    
C44   C46   A    
C8    C9    A    
C22   C25   A    
C45   C67   A    
C56   H39   S    
C48   H14   S    
C70   C71   A    
C61   C62   A    
C3    C6    T    
C43   H10   S    
C61   H25   S    
C55   H20   S    
C50   H16   S    
C73   H37   S    
C51   C52   A    
C23   C30   A    
C39   H7    S    
C2    C67   A    
C70   H32   S    
C69   H31   S    
C68   C69   A    
C58   C59   A    
C29   C34   A    
C35   H3    S    
C45   C74   A    
C1    O4    A    
C32   C34   A    
O6    Zn2   S    
C2    C4    S    
C16   O5    A    
O5    Zn1   S    
C62   C63   A    
C12   O3    A    
C67   H36   S    
C47   C48   A    
C31   C33   S    
C50   C51   A    
C18   C29   A    
C1    O1    A    
C9    C11   A    
C62   H26   S    
O3    Zn1   S    
C48   C49   A    
C23   H23   S    
C20   C22   A    
C60   C65   A    
C40   C46   A    
N2    Zn1   S    
C55   C57   A    
C43   C44   A    
C15   N1    T    
C52   H18   S    
C9    C53   S    
C42   C43   A    
C65   H29   S    
C44   H11   S    
C10   C47   S    
O8    Zn2   S    
C46   H13   S    
C12   O2    A    
C54   C55   A    
C40   C41   A    
C56   C73   A    
C24   H2    S    
C42   H9    S    
C68   H30   S    
C49   H15   S    
C4    C5    T    
C10   C13   A    
C16   C21   S    
C47   C52   A    
C25   C27   A    
C26   C28   A    
C34   H34   S    
C64   C65   A    
C13   C15   S    
C16   O8    A    
C71   C72   A    
C2    C56   A    
C8    C60   S    
C7    C66   S    
C57   C58   A    
C38   H6    S    
C14   N2    T    
C41   H8    S    
C28   C30   A    
C33   C35   A    
C18   C20   A    
C32   C40   S    
C69   C70   A    
C63   C64   A    
C17   O6    A    
C22   H40   S    
C49   C50   A    
C57   H21   S    
C21   C24   A    
C27   C28   A    
C59   H24   S    
C60   C61   A    
C36   H4    S    
O2    Zn2   S    
C17   O7    A    
C19   C30   A    
O1    Zn1   S    
C23   C31   A    
