data_mof_unit_18236.cif
_audit_creation_date              2012-12-10T17:15:11-0500
_audit_creation_method            fapswitch 2.2
_symmetry_space_group_name_H-M    P1
_symmetry_Int_Tables_number       1
_space_group_crystal_system       triclinic
_cell_length_a                    15.860502
_cell_length_b                    13.011541
_cell_length_c                    11.782531
_cell_angle_alpha                 100.431269
_cell_angle_beta                  94.22495
_cell_angle_gamma                 92.751509
_cell_volume                      2380.20141998

loop_
_atom_site_label
_atom_site_type_symbol
_atom_type_description
_atom_site_fract_x
_atom_site_fract_y
_atom_site_fract_z
_atom_type_partial_charge
C1    C     C_R   0.499248 0.299143 0.478189 0.864343
C2    C     C_R   0.501314 0.700877 0.521881 0.846074
C3    C     C_R   0.480872 0.013013 0.343851 0.423319
C4    C     C_R   0.520751 0.987025 0.656235 0.419309
C5    C     C_R   0.484451 0.121650 0.356017 -0.168088
C6    C     C_R   0.516958 0.878366 0.644088 -0.175782
C7    C     C_R   0.509595 0.140770 0.564153 -0.137651
C8    C     C_R   0.491456 0.859300 0.436015 -0.143380
C9    C     C_R   0.508122 0.032428 0.555871 -0.019377
C10   C     C_R   0.493268 0.967636 0.444260 -0.017958
C11   C     C_R   0.396151 0.437963 0.021377 0.298862
C12   C     C_R   0.608735 0.518425 0.964541 0.318657
C13   C     C_R   0.413188 0.426245 0.141403 0.414933
C14   C     C_R   0.595269 0.538448 0.850873 0.449002
C15   C     C_R   0.545836 0.523667 0.152517 0.363226
C16   C     C_R   0.447869 0.512913 0.855339 0.382266
C17   C     C_R   0.539188 0.508538 0.029266 -0.238484
C18   C     C_R   0.459371 0.488534 0.969125 -0.243604
C19   C     C_R   0.339997 0.500558 0.499781 0.849773
C20   C     C_R   0.660060 0.499432 0.500231 0.827675
C21   C     C_3   0.979417 0.495339 0.607886 0.106837
C22   C     C_3   0.020906 0.499782 0.391508 0.136913
C23   C     C_3   0.027766 0.412256 0.532741 0.342786
C24   C     C_3   0.972528 0.582833 0.466522 0.414721
C25   C     C_1   0.250390 0.500448 0.498841 -0.046824
C26   C     C_1   0.749695 0.497670 0.500825 -0.030169
C27   C     C_3   0.035801 0.583373 0.572740 -0.281454
C28   C     C_3   0.964419 0.411759 0.426495 -0.318955
C29   C     C_3   0.083244 0.498931 0.497730 -0.090459
C30   C     C_3   0.916910 0.496253 0.501690 -0.105964
C31   C     C_1   0.174868 0.500046 0.497954 0.131283
C32   C     C_1   0.825219 0.496440 0.501596 0.137986
C33   C     C_R   0.502908 0.814674 0.534744 -0.151971
C34   C     C_R   0.498079 0.185361 0.465388 -0.157200
Cu1   Cu    Cu3+1 0.506200 0.507730 0.615930 1.087146
Cu2   Cu    Cu3+1 0.493800 0.492270 0.384070 1.071270
H1    H     H_    0.934663 0.340978 0.367490 0.219250
H2    H     H_    0.065578 0.654177 0.631692 0.218668
H3    H     H_    0.481209 0.808271 0.352591 0.230314
H4    H     H_    0.519483 0.191809 0.647626 0.233922
H5    H     H_    0.525810 0.843088 0.720154 0.238398
H6    H     H_    0.475757 0.156910 0.279957 0.243973
N1    N     N_R   0.515540 0.519350 0.790140 -0.296133
N2    N     N_R   0.484460 0.480650 0.209860 -0.293626
O1    O     O_R   0.504400 0.354460 0.582000 -0.582759
O2    O     O_R   0.495600 0.645540 0.418000 -0.594354
O3    O     O_R   0.493920 0.341410 0.386200 -0.541658
O4    O     O_R   0.506080 0.658590 0.613800 -0.545548
O5    O     O_R   0.384320 0.506520 0.597880 -0.562956
O6    O     O_R   0.615680 0.493480 0.402120 -0.573971
O7    O     O_R   0.373840 0.493460 0.402080 -0.535290
O8    O     O_R   0.626160 0.506540 0.597920 -0.525494
S1    S     S_3+6 0.066299 0.296781 0.574313 0.088045
O9    O     O_2   0.119373 0.244346 0.482886 -0.205832
O10   O     O_2   0.119570 0.324988 0.687638 -0.211316
O11   O     O_3   0.984463 0.213933 0.587415 -0.458469
H7    H     H_    0.950326 0.254393 0.644833 0.356217
S2    S     S_3+6 0.934427 0.697758 0.423504 0.075204
O12   O     O_2   0.874881 0.667149 0.316064 -0.217112
O13   O     O_2   0.888540 0.757103 0.519257 -0.239253
O14   O     O_3   0.016877 0.773140 0.396457 -0.480916
H8    H     H_    0.991336 0.834570 0.372231 0.402005
I1    I     I_    0.949715 0.494559 0.781748 -0.074173
I2    I     I_    0.054677 0.501599 0.219496 -0.031176
S3    S     S_3+6 0.459709 0.937817 0.201969 0.033784
O15   O     O_2   0.534248 0.874465 0.170959 -0.260659
O16   O     O_2   0.382522 0.865213 0.198587 -0.266819
O17   O     O_3   0.442308 0.015874 0.104510 -0.468575
H9    H     H_    0.421262 0.967847 0.031717 0.414392
S4    S     S_3+6 0.542718 0.062149 0.798016 0.038844
O18   O     O_2   0.619528 0.135159 0.800474 -0.259149
O19   O     O_2   0.468161 0.125102 0.830256 -0.232324
O20   O     O_3   0.561414 0.983805 0.894910 -0.492109
H10   H     H_    0.581936 0.031843 0.967924 0.413853
I3    I     I_    0.351092 0.618841 0.836067 -0.103198
I4    I     I_    0.635772 0.644530 0.241716 -0.016911
S5    S     S_3+6 0.674655 0.629107 0.819586 0.096658
O21   O     O_2   0.748650 0.571003 0.775200 -0.243458
O22   O     O_2   0.643865 0.694318 0.734556 -0.273096
O23   O     O_3   0.708143 0.712100 0.943211 -0.465095
H11   H     H_    0.758810 0.751303 0.924591 0.402774
S6    S     S_3+6 0.344994 0.327122 0.186176 0.098591
O24   O     O_2   0.364440 0.223789 0.116318 -0.202380
O25   O     O_2   0.349455 0.312345 0.308991 -0.279827
O26   O     O_3   0.243344 0.350643 0.154909 -0.464345
H12   H     H_    0.210207 0.285642 0.161012 0.394777
S7    S     S_3+6 0.302123 0.379756 0.929808 0.127686
O27   O     O_2   0.229318 0.445729 0.962626 -0.204463
O28   O     O_2   0.312579 0.376094 0.803427 -0.246859
O29   O     O_3   0.275616 0.255526 0.940403 -0.408471
H13   H     H_    0.218323 0.239776 0.899535 0.398765
S8    S     S_3+6 0.707623 0.470763 0.007021 0.100601
O30   O     O_2   0.772430 0.559733 0.051415 -0.173001
O31   O     O_2   0.697141 0.406522 0.099653 -0.273935
O32   O     O_3   0.742369 0.394371 0.891124 -0.475346
H14   H     H_    0.796667 0.369906 0.920000 0.394274

loop_
_geom_bond_atom_site_label_1
_geom_bond_atom_site_label_2
_ccdc_geom_bond_type
C25   C31   T    
S7    O27   D    
C11   C18   A    
C26   C32   T    
C22   C29   S    
C27   C29   S    
C16   I3    S    
O20   H10   S    
O32   H14   S    
C24   C27   S    
C5    H6    S    
C4    S4    S    
S5    O21   D    
C2    O2    A    
C23   C29   S    
C15   N2    A    
S5    O23   S    
C27   H2    S    
S2    O13   D    
O11   H7    S    
Cu2   O3    S    
C7    C9    A    
C14   S5    S    
C20   O6    A    
Cu1   Cu2   S    
C11   S7    S    
O17   H9    S    
S3    O16   D    
C6    H5    S    
C12   C17   A    
Cu1   O5    S    
C7    H4    S    
Cu2   O2    S    
S4    O18   D    
C8    H3    S    
Cu1   N1    S    
C9    C10   A    
S2    O14   S    
S1    O10   D    
C15   I4    S    
C21   C27   S    
C22   C28   S    
C3    S3    S    
Cu1   O4    S    
C1    C34   S    
C23   S1    S    
S5    O22   D    
C24   S2    S    
C4    C6    A    
C1    O3    A    
C2    O4    A    
S2    O12   D    
O26   H12   S    
C13   S6    S    
S8    O32   S    
C19   O5    A    
C29   C31   S    
S3    O17   S    
C5    C34   A    
S4    O20   S    
S8    O31   D    
C17   C18   A    
C23   C28   S    
C16   N1    A    
Cu2   O7    S    
C2    C33   S    
C8    C10   A    
C12   C14   A    
S6    O24   D    
S6    O25   D    
C21   C23   S    
C7    C34   A    
C22   C24   S    
Cu2   N2    S    
Cu1   O1    S    
Cu2   O6    S    
S1    O11   S    
C15   C17   A    
C12   S8    S    
O23   H11   S    
C3    C5    A    
S1    O9    D    
S6    O26   S    
C21   C30   S    
C6    C33   A    
C28   C30   S    
C20   O8    A    
C3    C10   A    
C30   C32   S    
C11   C13   A    
C1    O1    A    
O29   H13   S    
C20   C26   S    
C28   H1    S    
S8    O30   D    
C8    C33   A    
O14   H8    S    
C19   C25   S    
C24   C30   S    
C21   I1    S    
C22   I2    S    
C19   O7    A    
C16   C18   A    
S3    O15   D    
S7    O29   S    
Cu1   O8    S    
S7    O28   D    
S4    O19   D    
C4    C9    A    
C13   N2    A    
C14   N1    A    
