data_mof_unit_21350.cif
_audit_creation_date              2012-12-11T15:50:26-0500
_audit_creation_method            fapswitch 2.2
_symmetry_space_group_name_H-M    P1
_symmetry_Int_Tables_number       1
_space_group_crystal_system       triclinic
_cell_length_a                    19.420619
_cell_length_b                    11.14721
_cell_length_c                    18.795513
_cell_angle_alpha                 90.020814
_cell_angle_beta                  90.668746
_cell_angle_gamma                 89.96332
_cell_volume                      4068.68188487

loop_
_atom_site_label
_atom_site_type_symbol
_atom_type_description
_atom_site_fract_x
_atom_site_fract_y
_atom_site_fract_z
_atom_type_partial_charge
C1    C     C_R   0.272439 0.042540 0.852824 0.560683
C2    C     C_R   0.727065 0.041550 0.146550 0.568246
C3    C     C_R   0.772712 0.541833 0.853264 0.558648
C4    C     C_R   0.227115 0.541693 0.146636 0.557570
C5    C     C_3   0.510260 0.732206 0.971657 -0.150673
C6    C     C_3   0.462502 0.733680 0.037249 -0.164259
C7    C     C_3   0.019741 0.234070 0.965433 -0.153961
C8    C     C_3   0.976961 0.230631 0.034453 -0.155136
C9    C     C_R   0.245441 0.586349 0.076242 0.059787
C10   C     C_R   0.753912 0.586531 0.923549 0.054927
C11   C     C_R   0.744950 0.084771 0.075673 0.060562
C12   C     C_R   0.252842 0.089565 0.922179 0.063637
C13   C     C_R   0.306268 0.556207 0.040977 0.038966
C14   C     C_R   0.693269 0.555570 0.958973 0.048177
C15   C     C_R   0.805387 0.052876 0.040158 0.047355
C16   C     C_R   0.191575 0.060520 0.957283 0.052754
C17   C     C_R   0.311053 0.566806 0.967465 0.067092
C18   C     C_R   0.688890 0.564899 0.032493 0.075671
C19   C     C_R   0.809838 0.062253 0.966575 0.065157
C20   C     C_R   0.186420 0.072757 0.030631 0.070345
C21   C     C_R   0.195445 0.643698 0.962237 -0.108091
C22   C     C_R   0.803946 0.642655 0.037637 -0.120184
C23   C     C_R   0.694364 0.139039 0.961324 -0.115651
C24   C     C_R   0.301585 0.150041 0.035885 -0.119779
C25   C     C_R   0.192968 0.641936 0.035903 -0.101745
C26   C     C_R   0.806441 0.641233 0.964072 -0.115357
C27   C     C_R   0.692039 0.138785 0.035007 -0.104263
C28   C     C_R   0.305033 0.145784 0.962515 -0.107015
C29   C     C_3   0.349940 0.447424 0.043185 -0.277744
C30   C     C_3   0.647534 0.448861 0.956333 -0.273171
C31   C     C_3   0.848977 0.943868 0.042811 -0.275849
C32   C     C_3   0.144641 0.955289 0.955248 -0.271829
C33   C     C_3   0.355693 0.458435 0.962692 -0.279093
C34   C     C_3   0.642533 0.458821 0.037085 -0.275460
C35   C     C_3   0.853692 0.952915 0.962160 -0.281692
C36   C     C_3   0.138517 0.968662 0.035804 -0.275011
C37   C     C_R   0.253850 0.602337 0.926122 0.061022
C38   C     C_R   0.745931 0.601040 0.073935 0.057079
C39   C     C_R   0.752773 0.098064 0.925244 0.048906
C40   C     C_R   0.243594 0.108548 0.072129 0.056694
C41   C     C_R   0.534142 0.823810 0.434688 0.013389
C42   C     C_R   0.504721 0.823387 0.580519 -0.005017
C43   C     C_R   0.995270 0.323467 0.419485 -0.004655
C44   C     C_R   0.965724 0.323785 0.565294 0.011574
C45   C     C_R   0.441407 0.818307 0.862451 0.587530
C46   C     C_R   0.532343 0.821639 0.144103 0.583168
C47   C     C_R   0.943112 0.318551 0.862685 0.587344
C48   C     C_R   0.054126 0.318562 0.137236 0.588064
C49   C     C_R   0.528113 0.716391 0.471660 0.017025
C50   C     C_R   0.512565 0.714286 0.543568 0.066976
C51   C     C_R   0.987468 0.214333 0.456367 0.067669
C52   C     C_R   0.971864 0.216388 0.528267 0.016192
C53   C     C_R   0.512732 0.931007 0.543981 -0.198354
C54   C     C_R   0.520502 0.930390 0.470452 -0.197193
C55   C     C_R   0.979350 0.430387 0.529605 -0.197124
C56   C     C_R   0.987202 0.431063 0.456087 -0.198363
C57   C     C_3   0.477290 0.619785 0.455126 0.050691
C58   C     C_3   0.458572 0.617134 0.533528 0.070554
C59   C     C_3   0.041539 0.117181 0.466387 0.070865
C60   C     C_3   0.022763 0.119791 0.544775 0.050055
C61   C     C_R   0.242223 0.566995 0.429725 0.013168
C62   C     C_R   0.749331 0.597533 0.578838 0.019581
C63   C     C_R   0.750617 0.097567 0.421167 0.020043
C64   C     C_R   0.257762 0.067029 0.570287 0.013076
C65   C     C_R   0.191324 0.627794 0.466843 0.003804
C66   C     C_R   0.797507 0.666429 0.541651 0.008885
C67   C     C_R   0.702247 0.165967 0.458464 0.009384
C68   C     C_R   0.308605 0.127934 0.533222 0.003997
C69   C     C_R   0.191742 0.628204 0.539800 0.079341
C70   C     C_R   0.795861 0.665892 0.468521 0.068860
C71   C     C_R   0.703965 0.165403 0.531582 0.069013
C72   C     C_R   0.308207 0.128419 0.460256 0.079609
C73   C     C_R   0.294796 0.510427 0.543123 -0.163679
C74   C     C_R   0.688035 0.562487 0.467154 -0.140012
C75   C     C_R   0.812073 0.062650 0.532769 -0.140188
C76   C     C_R   0.205311 0.010454 0.456830 -0.163900
C77   C     C_R   0.294089 0.504600 0.469014 0.089372
C78   C     C_R   0.692408 0.550118 0.540466 0.068973
C79   C     C_R   0.807675 0.050390 0.459444 0.069013
C80   C     C_R   0.205989 0.004595 0.530935 0.089064
C81   C     C_3   0.116690 0.596662 0.465067 -0.256812
C82   C     C_3   0.873288 0.642951 0.539520 -0.263110
C83   C     C_3   0.626590 0.141627 0.460657 -0.263279
C84   C     C_3   0.383258 0.096790 0.534991 -0.256301
C85   C     C_3   0.118419 0.592105 0.544475 -0.268580
C86   C     C_3   0.868610 0.630485 0.460699 -0.267212
C87   C     C_3   0.631331 0.129538 0.539492 -0.267036
C88   C     C_3   0.381546 0.092239 0.455590 -0.269411
C89   C     C_R   0.261592 0.639147 0.852194 0.551281
C90   C     C_R   0.738408 0.638743 0.147866 0.557468
C91   C     C_R   0.761311 0.138089 0.851865 0.548712
C92   C     C_R   0.237676 0.141163 0.147007 0.547508
C93   C     C_R   0.245097 0.577367 0.578393 -0.020301
C94   C     C_R   0.742788 0.613107 0.430927 -0.006350
C95   C     C_R   0.757221 0.112940 0.569084 -0.006682
C96   C     C_R   0.254925 0.077526 0.421622 -0.020763
C97   C     C_R   0.273458 0.039463 0.643972 0.555398
C98   C     C_R   0.728538 0.046216 0.353371 0.555467
C99   C     C_R   0.771474 0.546144 0.646605 0.555741
C100  C     C_R   0.226540 0.539485 0.356033 0.555631
C101  C     C_R   0.470180 0.822090 0.648197 0.550631
C102  C     C_R   0.554880 0.819747 0.360569 0.553670
C103  C     C_R   0.945021 0.319726 0.639428 0.557402
C104  C     C_R   0.029816 0.322143 0.351803 0.549864
C105  C     C_R   0.259238 0.633875 0.645898 0.551856
C106  C     C_R   0.738320 0.641706 0.357189 0.548037
C107  C     C_R   0.761686 0.141628 0.642815 0.549401
C108  C     C_R   0.240770 0.133938 0.354106 0.551428
C109  C     C_3   0.464748 0.929535 0.036972 0.170293
C110  C     C_3   0.509944 0.928726 0.970995 0.180717
C111  C     C_3   0.975848 0.426670 0.036356 0.181339
C112  C     C_3   0.016122 0.430316 0.966964 0.182708
C113  C     C_3   0.418300 0.833076 0.002592 0.045025
C114  C     C_3   0.555256 0.831144 0.005784 0.069932
C115  C     C_3   0.928744 0.328719 0.004268 0.048016
C116  C     C_3   0.065523 0.334083 0.996950 0.046857
C117  C     C_3   0.465256 0.830413 0.936767 0.029634
C118  C     C_3   0.507721 0.831213 0.071056 0.032193
C119  C     C_3   0.970944 0.330792 0.935262 0.032840
C120  C     C_3   0.023629 0.329430 0.065966 0.034224
Cr1   Cr    Cr6+3 0.229640 0.835880 0.747370 1.046908
Cr2   Cr    Cr6+3 0.770360 0.835880 0.252630 1.042756
Cr3   Cr    Cr6+3 0.729640 0.335880 0.747370 1.039004
Cr4   Cr    Cr6+3 0.270360 0.335880 0.252630 1.042840
Cr5   Cr    Cr6+3 0.387390 0.989720 0.750850 0.993105
Cr6   Cr    Cr6+3 0.612610 0.989720 0.249150 0.998872
Cr7   Cr    Cr6+3 0.887390 0.489720 0.750850 0.997773
Cr8   Cr    Cr6+3 0.112610 0.489720 0.249150 0.991135
Cr9   Cr    Cr6+3 0.385770 0.677220 0.749340 0.980701
Cr10  Cr    Cr6+3 0.614230 0.677220 0.250660 1.017007
Cr11  Cr    Cr6+3 0.885770 0.177220 0.749340 1.011461
Cr12  Cr    Cr6+3 0.114230 0.177220 0.250660 0.981181
H1    H     H_    0.506353 0.015597 0.571211 0.135212
H2    H     H_    0.513212 0.012643 0.441204 0.134036
H3    H     H_    0.986740 0.512560 0.558917 0.134284
H4    H     H_    0.993603 0.515664 0.428925 0.134677
H5    H     H_    0.094439 0.147186 0.454043 0.164132
H6    H     H_    0.995661 0.037997 0.563702 0.162900
H7    H     H_    0.504444 0.538004 0.436135 0.162827
H8    H     H_    0.405650 0.647101 0.545924 0.164077
H9    H     H_    0.334898 0.465305 0.572757 0.146260
H10   H     H_    0.644407 0.525197 0.438291 0.155068
H11   H     H_    0.855821 0.025567 0.561559 0.154958
H12   H     H_    0.165293 0.965248 0.427154 0.146239
H13   H     H_    0.109281 0.506808 0.441095 0.164742
H14   H     H_    0.883989 0.556492 0.564341 0.172485
H15   H     H_    0.616365 0.054870 0.435903 0.172393
H16   H     H_    0.390711 0.006929 0.558917 0.164593
H17   H     H_    0.084352 0.670468 0.442942 0.152328
H18   H     H_    0.904657 0.720463 0.558295 0.161427
H19   H     H_    0.594852 0.218672 0.441794 0.161115
H20   H     H_    0.415546 0.170581 0.557160 0.152585
H21   H     H_    0.083787 0.657714 0.569809 0.176231
H22   H     H_    0.902410 0.691618 0.431260 0.183073
H23   H     H_    0.597399 0.190703 0.568856 0.183196
H24   H     H_    0.416184 0.157761 0.430295 0.175547
H25   H     H_    0.113171 0.501107 0.566082 0.118106
H26   H     H_    0.871175 0.536322 0.441738 0.139317
H27   H     H_    0.629005 0.035439 0.558569 0.139406
H28   H     H_    0.386827 0.001227 0.433949 0.117654
H29   H     H_    0.530209 0.650146 0.945629 0.144901
H30   H     H_    0.442827 0.654290 0.065824 0.143552
H31   H     H_    0.038883 0.154496 0.936492 0.150467
H32   H     H_    0.959944 0.147934 0.061858 0.146050
H33   H     H_    0.151266 0.678734 0.933737 0.150481
H34   H     H_    0.848141 0.677406 0.066085 0.150642
H35   H     H_    0.650148 0.173692 0.932692 0.148774
H36   H     H_    0.345575 0.185283 0.064277 0.152898
H37   H     H_    0.147382 0.676908 0.060420 0.128138
H38   H     H_    0.853261 0.672327 0.940013 0.129539
H39   H     H_    0.645397 0.171075 0.059039 0.132781
H40   H     H_    0.352450 0.175487 0.938908 0.130807
H41   H     H_    0.818781 0.867316 0.061960 0.183545
H42   H     H_    0.172014 0.873897 0.938192 0.181495
H43   H     H_    0.318958 0.371562 0.061499 0.183303
H44   H     H_    0.675687 0.369135 0.937790 0.182659
H45   H     H_    0.399394 0.461107 0.072239 0.119487
H46   H     H_    0.598114 0.467218 0.928047 0.121887
H47   H     H_    0.898819 0.959173 0.070911 0.120316
H48   H     H_    0.095898 0.973497 0.925820 0.120596
H49   H     H_    0.408581 0.481217 0.945186 0.134770
H50   H     H_    0.590168 0.484065 0.055133 0.140460
H51   H     H_    0.906482 0.974024 0.943654 0.136384
H52   H     H_    0.086219 0.996764 0.052569 0.136208
H53   H     H_    0.330444 0.384986 0.932399 0.156426
H54   H     H_    0.666721 0.383339 0.066589 0.156203
H55   H     H_    0.827283 0.879513 0.932874 0.152570
H56   H     H_    0.160999 0.893048 0.066637 0.155844
O1    O     O_R   0.214300 0.709080 0.827500 -0.531109
O2    O     O_R   0.785700 0.709080 0.172500 -0.534631
O3    O     O_R   0.714300 0.209080 0.827500 -0.532745
O4    O     O_R   0.285700 0.209080 0.172500 -0.535289
O5    O     O_R   0.445900 0.919370 0.676500 -0.513647
O6    O     O_R   0.554100 0.919370 0.323500 -0.520597
O7    O     O_R   0.945900 0.419370 0.676500 -0.512259
O8    O     O_R   0.054100 0.419370 0.323500 -0.515862
O9    O     O_R   0.456660 0.717710 0.669820 -0.532211
O10   O     O_R   0.543340 0.717710 0.330180 -0.524181
O11   O     O_R   0.956660 0.217710 0.669820 -0.518575
O12   O     O_R   0.043340 0.217710 0.330180 -0.531925
O13   O     O_R   0.320590 0.625770 0.672930 -0.541535
O14   O     O_R   0.679410 0.625770 0.327070 -0.528464
O15   O     O_R   0.820590 0.125770 0.672930 -0.527880
O16   O     O_R   0.179410 0.125770 0.327070 -0.540941
O17   O     O_3   0.334270 0.834280 0.749190 -0.277841
O18   O     O_3   0.665730 0.834280 0.250810 -0.277590
O19   O     O_3   0.834270 0.334280 0.749190 -0.293425
O20   O     O_3   0.165730 0.334280 0.250810 -0.274701
O21   O     O_R   0.236190 0.958390 0.823150 -0.496886
O22   O     O_R   0.763810 0.958390 0.176850 -0.497320
O23   O     O_R   0.736190 0.458390 0.823150 -0.497500
O24   O     O_R   0.263810 0.458390 0.176850 -0.501199
O25   O     O_R   0.332090 0.075280 0.831290 -0.548534
O26   O     O_R   0.667910 0.075280 0.168710 -0.532063
O27   O     O_R   0.832090 0.575280 0.831290 -0.545346
O28   O     O_R   0.167910 0.575280 0.168710 -0.540001
O29   O     O_R   0.446280 0.918040 0.826620 -0.506619
O30   O     O_R   0.553720 0.918040 0.173380 -0.500915
O31   O     O_R   0.946280 0.418040 0.826620 -0.501711
O32   O     O_R   0.053720 0.418040 0.173380 -0.501587
O33   O     O_R   0.457080 0.716270 0.831760 -0.525059
O34   O     O_R   0.542920 0.716270 0.168240 -0.519403
O35   O     O_R   0.957080 0.216270 0.831760 -0.518991
O36   O     O_R   0.042920 0.216270 0.168240 -0.527273
O37   O     O_R   0.320980 0.624440 0.823040 -0.514402
O38   O     O_R   0.679020 0.624440 0.176960 -0.493181
O39   O     O_R   0.820980 0.124440 0.823040 -0.507290
O40   O     O_R   0.179020 0.124440 0.176960 -0.511603
O41   O     O_R   0.213880 0.710510 0.665560 -0.473608
O42   O     O_R   0.786120 0.710510 0.334440 -0.489416
O43   O     O_R   0.713880 0.210510 0.665560 -0.487720
O44   O     O_R   0.286120 0.210510 0.334440 -0.474155
O45   O     O_R   0.235800 0.959720 0.673040 -0.460308
O46   O     O_R   0.764200 0.959720 0.326960 -0.462431
O47   O     O_R   0.735800 0.459720 0.673040 -0.461148
O48   O     O_R   0.264200 0.459720 0.326960 -0.460088
O49   O     O_R   0.331670 0.076720 0.669350 -0.535193
O50   O     O_R   0.668330 0.076720 0.330650 -0.542467
O51   O     O_R   0.831670 0.576720 0.669350 -0.541972
O52   O     O_R   0.168330 0.576720 0.330650 -0.535689
I1    I     I_    0.313225 0.851149 0.014814 -0.513128
I2    I     I_    0.662612 0.845729 0.999847 -0.461306
I3    I     I_    0.822661 0.344500 0.017690 -0.500104
I4    I     I_    0.171023 0.351610 0.979383 -0.501440
N1    N     N_2   0.420650 0.653871 0.407062 -0.497794
H57   H     H_    0.426111 0.626037 0.355111 0.293633
C121  C     C_3   0.382705 0.764834 0.414300 -0.285012
H58   H     H_    0.328421 0.750437 0.397816 0.149368
H59   H     H_    0.404389 0.832193 0.377483 0.150735
H60   H     H_    0.383483 0.798621 0.469754 0.138154
N2    N     N_2   0.475748 0.501028 0.564863 -0.508620
H61   H     H_    0.464693 0.427421 0.533956 0.276519
C122  C     C_3   0.466709 0.476832 0.639969 -0.237537
H62   H     H_    0.474241 0.379471 0.650197 0.116891
H63   H     H_    0.414650 0.499264 0.657446 0.174812
H64   H     H_    0.506254 0.524424 0.672197 0.209520
N3    N     N_2   0.024506 0.001055 0.434982 -0.508442
H65   H     H_    0.035503 0.927440 0.465893 0.276477
C123  C     C_3   0.033593 0.976771 0.359875 -0.237587
H66   H     H_    0.026083 0.879411 0.349638 0.115806
H67   H     H_    0.085651 0.999070 0.342424 0.174850
H68   H     H_    0.994063 0.024381 0.327615 0.209381
N4    N     N_2   0.079348 0.153858 0.592896 -0.497540
H69   H     H_    0.073889 0.125978 0.644824 0.295664
C124  C     C_3   0.117210 0.264829 0.585749 -0.283523
H70   H     H_    0.171480 0.250464 0.602325 0.149734
H71   H     H_    0.095411 0.332206 0.622539 0.153911
H72   H     H_    0.116494 0.298577 0.530301 0.137282
I5    I     I_    0.370997 0.393676 0.424191 -0.457081
I6    I     I_    0.621727 0.430217 0.580819 -0.440543
I7    I     I_    0.878556 0.930970 0.418824 -0.441741
I8    I     I_    0.129161 0.893625 0.575650 -0.455160
N5    N     N_2   0.438246 0.031544 0.075991 -0.520569
H73   H     H_    0.401602 0.008544 0.112809 0.270850
C125  C     C_3   0.487013 0.119257 0.102862 -0.278667
H74   H     H_    0.492738 0.111232 0.161485 0.162723
H75   H     H_    0.467443 0.210833 0.091412 0.111396
H76   H     H_    0.537917 0.108618 0.077839 0.186722
N6    N     N_2   0.540433 0.029989 0.934323 -0.505596
H77   H     H_    0.570330 0.004437 0.891954 0.276352
C126  C     C_3   0.497648 0.133338 0.918932 -0.299775
H78   H     H_    0.529959 0.206267 0.896984 0.113458
H79   H     H_    0.473176 0.168073 0.967332 0.163543
H80   H     H_    0.457359 0.111778 0.879143 0.195157
N7    N     N_2   0.948004 0.525910 0.077126 -0.511221
H81   H     H_    0.914547 0.500200 0.116470 0.277274
C127  C     C_3   0.993969 0.621836 0.098472 -0.279233
H82   H     H_    0.969035 0.709550 0.087499 0.107422
H83   H     H_    0.042530 0.617350 0.068860 0.180068
H84   H     H_    0.005028 0.617865 0.156450 0.167084
N8    N     N_2   0.042672 0.534021 0.929294 -0.506364
H85   H     H_    0.071852 0.511662 0.885778 0.280256
C128  C     C_3   0.997564 0.635203 0.916354 -0.300372
H86   H     H_    0.028979 0.714639 0.902229 0.115937
H87   H     H_    0.967821 0.658275 0.963895 0.165682
H88   H     H_    0.961752 0.617285 0.871557 0.192840

loop_
_geom_bond_atom_site_label_1
_geom_bond_atom_site_label_2
_ccdc_geom_bond_type
C107  O43   A    
Cr2   O18   S    
N8    H85   S    
C73   C93   A    
C75   C95   A    
C48   C120  S    
C126  H80   S    
C63   C98   S    
C69   C93   A    
C5    C6    S    
C20   C40   A    
C71   C95   A    
C35   H51   S    
C22   C38   A    
C29   C33   S    
C34   H54   S    
C9    C13   A    
Cr5   O25   S    
C12   C16   A    
C127  H83   S    
Cr10  O14   S    
Cr3   O47   S    
C96   C108  S    
C59   C60   S    
C29   H45   S    
N1    H57   S    
Cr4   O20   S    
C60   N4    S    
C29   H43   S    
C102  O6    A    
C30   H44   S    
C109  C118  S    
C9    C25   A    
C51   C52   A    
C7    C119  S    
N4    H69   S    
C53   H1    S    
C62   C66   A    
C91   O3    A    
C79   I7    S    
C106  O42   A    
C36   H56   S    
C5    H29   S    
Cr7   O7    S    
C66   C82   S    
C103  O11   A    
C11   C27   A    
C68   C72   A    
Cr4   O44   S    
C75   H11   S    
C23   H35   S    
C76   H12   S    
Cr9   O33   S    
C64   C97   S    
Cr2   O46   S    
C2    O26   A    
C8    H32   S    
C100  O48   A    
Cr6   O50   S    
C110  N6    S    
C121  H60   S    
C58   H8    S    
N4    C124  S    
C47   O35   A    
C90   O38   A    
C84   C88   S    
C123  H67   S    
C97   O49   A    
C38   C90   S    
C46   O34   A    
C86   H22   S    
N7    C127  S    
C19   C35   S    
C76   C96   A    
C44   C55   A    
Cr7   O27   S    
C66   C70   A    
C81   H17   S    
Cr5   O17   S    
C87   H27   S    
C88   H28   S    
C18   C38   A    
C62   C99   S    
C72   C96   A    
C61   C65   A    
Cr10  O38   S    
C73   C77   A    
C32   H48   S    
Cr8   O20   S    
C75   C79   A    
Cr9   O9    S    
Cr6   O30   S    
C60   H6    S    
C54   H2    S    
C116  I4    S    
C67   C83   S    
C4    O28   A    
C111  C112  S    
Cr11  O19   S    
C7    C8    S    
C53   C54   A    
C46   C118  S    
C64   C68   A    
N8    C128  S    
C42   C53   A    
Cr1   O1    S    
C122  H62   S    
C101  O9    A    
Cr12  O12   S    
C49   C57   S    
C41   C102  S    
N3    H65   S    
C43   C104  S    
Cr7   O19   S    
C52   C60   S    
C28   H40   S    
C61   C77   A    
Cr2   O22   S    
Cr8   O32   S    
Cr9   O13   S    
C44   C52   A    
N6    C126  S    
C104  O12   A    
C58   N2    S    
C1    C12   S    
C11   C15   A    
C2    C11   S    
C56   H4    S    
C44   C103  S    
C3    O23   A    
Cr1   O41   S    
C30   C34   S    
C1    O21   A    
C125  H76   S    
C10   C14   A    
C17   C37   A    
C48   O36   A    
C116  C120  S    
Cr4   O48   S    
C7    C116  S    
C107  O15   A    
C128  H86   S    
Cr10  O18   S    
C86   H26   S    
C105  O13   A    
C98   O46   A    
C30   H46   S    
C50   C58   S    
C21   C37   A    
C17   C33   S    
C114  C118  S    
C124  H71   S    
C26   H38   S    
Cr8   O28   S    
C113  C117  S    
C114  I2    S    
C42   C50   A    
C115  C119  S    
C74   C78   A    
C115  I3    S    
C61   C100  S    
C42   C101  S    
C112  C116  S    
C69   C85   S    
C90   O2    A    
C45   C117  S    
C21   C25   A    
C62   C78   A    
C76   C80   A    
C122  H64   S    
C15   C31   S    
C126  H79   S    
C113  I1    S    
C13   C17   A    
C45   O33   A    
C125  H75   S    
C57   C58   S    
N5    C125  S    
C100  O52   A    
C77   I5    S    
C49   C50   A    
Cr9   O37   S    
C112  N8    S    
Cr11  O35   S    
C4    C9    S    
C81   C85   S    
Cr5   O5    S    
C83   C87   S    
C55   C56   A    
Cr7   O51   S    
C46   O30   A    
C74   C94   A    
C125  H74   S    
Cr1   O17   S    
Cr7   O31   S    
N2    H61   S    
C73   H9    S    
C15   C19   A    
C103  O7    A    
C12   C28   A    
C88   H24   S    
C13   C29   S    
C70   C94   A    
C128  H88   S    
Cr12  O40   S    
C108  O44   A    
C21   H33   S    
C57   H7    S    
C39   C91   S    
Cr6   O26   S    
N6    H77   S    
Cr11  O15   S    
C99   O51   A    
C84   H16   S    
C64   C80   A    
C85   H25   S    
C110  C117  S    
C82   H14   S    
C101  O5    A    
Cr2   O2    S    
C3    O27   A    
C83   H19   S    
C121  H59   S    
Cr12  O16   S    
C68   C84   S    
C24   C28   A    
Cr10  O34   S    
Cr4   O24   S    
C82   C86   S    
C32   H42   S    
C31   H47   S    
C105  O41   A    
N7    H81   S    
Cr9   O17   S    
Cr6   O6    S    
C65   C81   S    
C127  H82   S    
C104  O8    A    
C127  H84   S    
C95   C107  S    
C71   C87   S    
Cr1   O45   S    
N1    C121  S    
C1    O25   A    
C31   C35   S    
C16   C32   S    
Cr3   O3    S    
C32   C36   S    
Cr4   O4    S    
Cr5   O49   S    
C48   O32   A    
C91   O39   A    
Cr12  O36   S    
C89   O37   A    
C112  C119  S    
C98   O50   A    
Cr8   O52   S    
C37   C89   S    
C109  C110  S    
C43   C51   A    
C7    H31   S    
Cr6   O18   S    
C65   C69   A    
C67   C71   A    
C78   I6    S    
C20   C36   S    
Cr11  O39   S    
Cr3   O43   S    
C92   O40   A    
C35   H55   S    
C22   C26   A    
C89   O1    A    
C59   N3    S    
C33   H53   S    
C80   I8    S    
C109  N5    S    
C92   O4    A    
Cr5   O29   S    
C5    C114  S    
C45   O29   A    
C14   C18   A    
C123  H68   S    
C63   C79   A    
C24   H36   S    
C102  O10   A    
C55   H3    S    
N2    C122  S    
C59   H5    S    
C8    C115  S    
C93   C105  S    
C41   C49   A    
C6    H30   S    
Cr3   O23   S    
C36   H52   S    
C22   H34   S    
C23   C27   A    
C124  H70   S    
C16   C20   A    
C128  H87   S    
C10   C26   A    
C47   C119  S    
C74   H10   S    
C14   C30   S    
C72   C88   S    
Cr2   O42   S    
C63   C67   A    
C2    O22   A    
Cr1   O21   S    
C57   N1    S    
C122  H63   S    
C126  H78   S    
C47   O31   A    
C5    C117  S    
C111  C120  S    
N3    C123  S    
Cr11  O11   S    
C6    C113  S    
C106  O14   A    
C99   O47   A    
C97   O45   A    
N5    H73   S    
C111  N7    S    
Cr3   O19   S    
C85   H21   S    
C40   C92   S    
C18   C34   S    
C82   H18   S    
C19   C39   A    
C83   H15   S    
C84   H20   S    
Cr12  O20   S    
C81   H13   S    
C87   H23   S    
C51   C59   S    
C123  H66   S    
C70   C86   S    
C27   H39   S    
C8    C120  S    
C31   H41   S    
C25   H37   S    
C110  C114  S    
C94   C106  S    
Cr8   O8    S    
C121  H58   S    
C109  C113  S    
C4    O24   A    
C108  O16   A    
C3    C10   S    
C33   H49   S    
C23   C39   A    
C24   C40   A    
C34   H50   S    
C124  H72   S    
C41   C54   A    
C43   C56   A    
C111  C115  S    
Cr10  O10   S    
C6    C118  S    
