data_mof_unit_61453.cif
_audit_creation_date              2013-03-05T16:36:44-0500
_audit_creation_method            fapswitch 2.2
_symmetry_space_group_name_H-M    P1
_symmetry_Int_Tables_number       1
_space_group_crystal_system       triclinic
_cell_length_a                    35.490578
_cell_length_b                    35.490574
_cell_length_c                    55.714626
_cell_angle_alpha                 90.000016
_cell_angle_beta                  90.000016
_cell_angle_gamma                 89.999952
_cell_volume                      70177.0834855

loop_
_atom_site_label
_atom_site_type_symbol
_atom_site_description
_atom_site_fract_x
_atom_site_fract_y
_atom_site_fract_z
_atom_type_partial_charge
O1    O     O_R   0.531300 0.944560 0.500000 -0.594625
O2    O     O_R   0.055440 0.531300 0.500000 -0.594625
O3    O     O_R   0.468700 0.055440 0.500000 -0.594625
O4    O     O_R   0.944560 0.468700 0.500000 -0.594625
O5    O     O_R   0.531300 0.055440 0.500000 -0.594625
O6    O     O_R   0.055440 0.468700 0.500000 -0.594626
O7    O     O_R   0.468700 0.944560 0.500000 -0.594625
O8    O     O_R   0.944560 0.531300 0.500000 -0.594626
O9    O     O_R   0.031300 0.444560 0.000000 -0.594624
O10   O     O_R   0.555440 0.031300 0.000000 -0.594625
O11   O     O_R   0.968700 0.555440 0.000000 -0.594624
O12   O     O_R   0.444560 0.968700 0.000000 -0.594624
O13   O     O_R   0.031300 0.555440 0.000000 -0.594625
O14   O     O_R   0.555440 0.968700 0.000000 -0.594625
O15   O     O_R   0.968700 0.444560 0.000000 -0.594625
O16   O     O_R   0.444560 0.031300 0.000000 -0.594625
C1    C     C_R   0.500000 0.926680 0.500000 1.001889
C2    C     C_R   0.073320 0.500000 0.500000 1.001888
C3    C     C_R   0.500000 0.073320 0.500000 1.001889
C4    C     C_R   0.926680 0.500000 0.500000 1.001889
C5    C     C_R   0.000000 0.426680 0.000000 1.001890
C6    C     C_R   0.573320 1.000000 0.000000 1.001890
C7    C     C_R   1.000000 0.573320 0.000000 1.001889
C8    C     C_R   0.426680 0.000000 0.000000 1.001889
O17   O     O_R   0.531300 0.999990 0.535630 -0.613650
O18   O     O_R   0.000010 0.531300 0.535630 -0.613652
O19   O     O_R   0.468700 0.000010 0.535630 -0.613649
O20   O     O_R   0.999990 0.468700 0.535630 -0.613652
O21   O     O_R   0.531300 0.000010 0.464370 -0.613650
O22   O     O_R   0.000010 0.468700 0.464370 -0.613652
O23   O     O_R   0.468700 0.999990 0.464370 -0.613649
O24   O     O_R   0.999990 0.531300 0.464370 -0.613653
O25   O     O_R   0.031300 0.499990 0.035630 -0.613648
O26   O     O_R   0.500010 0.031300 0.035630 -0.613648
O27   O     O_R   0.968700 0.500010 0.035630 -0.613648
O28   O     O_R   0.499990 0.968700 0.035630 -0.613648
O29   O     O_R   0.031300 0.500010 0.964370 -0.613647
O30   O     O_R   0.500010 0.968700 0.964370 -0.613648
O31   O     O_R   0.968700 0.499990 0.964370 -0.613646
O32   O     O_R   0.499990 0.031300 0.964370 -0.613648
C9    C     C_R   0.500000 0.000000 0.547116 0.961443
C10   C     C_R   0.000000 0.500000 0.547116 0.961444
C11   C     C_R   0.500000 0.000000 0.452884 0.961443
C12   C     C_R   0.000000 0.500000 0.452884 0.961445
C13   C     C_R   0.000000 0.500000 0.047116 0.961443
C14   C     C_R   0.500000 1.000000 0.047116 0.961441
C15   C     C_R   0.000000 0.500000 0.952884 0.961443
C16   C     C_R   0.500000 1.000000 0.952884 0.961442
Zn1   Zn    Zn3+2 0.541800 0.000000 0.500000 1.090776
Zn2   Zn    Zn3+2 1.000000 0.541800 0.500000 1.090772
Zn3   Zn    Zn3+2 0.458200 0.000000 0.500000 1.090777
Zn4   Zn    Zn3+2 1.000000 0.458200 0.500000 1.090773
Zn5   Zn    Zn3+2 0.041800 0.500000 0.000000 1.090781
Zn6   Zn    Zn3+2 0.500000 0.041800 0.000000 1.090779
Zn7   Zn    Zn3+2 0.958200 0.500000 0.000000 1.090781
Zn8   Zn    Zn3+2 0.500000 0.958200 0.000000 1.090779
C17   C     C_R   0.476209 0.974604 0.737290 0.044840
C18   C     C_R   0.025407 0.476221 0.737290 0.044840
C19   C     C_R   0.523791 0.025396 0.737290 0.044840
C20   C     C_R   0.974593 0.523779 0.737290 0.044840
C21   C     C_R   0.476208 0.025395 0.262710 0.044840
C22   C     C_R   0.025403 0.523783 0.262710 0.044840
C23   C     C_R   0.523792 0.974605 0.262710 0.044840
C24   C     C_R   0.974597 0.476217 0.262710 0.044840
C25   C     C_R   0.976195 0.474617 0.237289 0.044841
C26   C     C_R   0.525391 0.976204 0.237289 0.044840
C27   C     C_R   0.023805 0.525383 0.237289 0.044840
C28   C     C_R   0.474609 0.023796 0.237289 0.044840
C29   C     C_R   0.976191 0.525379 0.762710 0.044840
C30   C     C_R   0.525390 0.023797 0.762710 0.044840
C31   C     C_R   0.023809 0.474621 0.762710 0.044840
C32   C     C_R   0.474610 0.976203 0.762710 0.044840
C33   C     C_R   0.500000 1.000000 0.724706 0.077676
C34   C     C_R   1.000000 0.500000 0.724706 0.077676
C35   C     C_R   0.500000 0.000000 0.275294 0.077676
C36   C     C_R   0.000000 0.500000 0.275294 0.077676
C37   C     C_R   0.000000 0.500000 0.224706 0.077676
C38   C     C_R   0.500000 0.000000 0.224706 0.077676
C39   C     C_R   1.000000 0.500000 0.775294 0.077676
C40   C     C_R   0.500000 1.000000 0.775294 0.077676
C41   C     C_R   0.455019 0.948161 0.723912 -0.199419
C42   C     C_R   0.051859 0.455043 0.723912 -0.199419
C43   C     C_R   0.544981 0.051838 0.723912 -0.199419
C44   C     C_R   0.948141 0.544957 0.723912 -0.199419
C45   C     C_R   0.455016 0.051836 0.276088 -0.199419
C46   C     C_R   0.051853 0.544965 0.276088 -0.199421
C47   C     C_R   0.544984 0.948164 0.276088 -0.199419
C48   C     C_R   0.948148 0.455035 0.276088 -0.199420
C49   C     C_R   0.954991 0.448185 0.223912 -0.199421
C50   C     C_R   0.551829 0.955008 0.223912 -0.199420
C51   C     C_R   0.045009 0.551814 0.223912 -0.199420
C52   C     C_R   0.448171 0.044992 0.223912 -0.199420
C53   C     C_R   0.954982 0.551807 0.776088 -0.199419
C54   C     C_R   0.551827 0.044994 0.776088 -0.199421
C55   C     C_R   0.045018 0.448193 0.776088 -0.199420
C56   C     C_R   0.448173 0.955006 0.776088 -0.199419
C57   C     C_R   0.455902 0.947858 0.699011 -0.115936
C58   C     C_R   0.052163 0.455926 0.699011 -0.115936
C59   C     C_R   0.544098 0.052142 0.699011 -0.115936
C60   C     C_R   0.947837 0.544074 0.699011 -0.115935
C61   C     C_R   0.455899 0.052140 0.300989 -0.115937
C62   C     C_R   0.052156 0.544082 0.300989 -0.115935
C63   C     C_R   0.544101 0.947860 0.300989 -0.115936
C64   C     C_R   0.947844 0.455918 0.300989 -0.115935
C65   C     C_R   0.955874 0.447881 0.199011 -0.115936
C66   C     C_R   0.552133 0.955891 0.199011 -0.115936
C67   C     C_R   0.044126 0.552119 0.199011 -0.115936
C68   C     C_R   0.447867 0.044109 0.199011 -0.115936
C69   C     C_R   0.955865 0.552111 0.800989 -0.115935
C70   C     C_R   0.552131 0.044111 0.800989 -0.115937
C71   C     C_R   0.044135 0.447889 0.800989 -0.115936
C72   C     C_R   0.447869 0.955889 0.800989 -0.115936
C73   C     C_R   0.477886 0.973863 0.686478 -0.026864
C74   C     C_R   0.026147 0.477898 0.686478 -0.026865
C75   C     C_R   0.522114 0.026137 0.686478 -0.026865
C76   C     C_R   0.973853 0.522102 0.686478 -0.026866
C77   C     C_R   0.477885 0.026136 0.313522 -0.026864
C78   C     C_R   0.026144 0.522106 0.313522 -0.026863
C79   C     C_R   0.522115 0.973864 0.313522 -0.026865
C80   C     C_R   0.973856 0.477894 0.313522 -0.026863
C81   C     C_R   0.977872 0.473875 0.186478 -0.026863
C82   C     C_R   0.526132 0.977881 0.186478 -0.026865
C83   C     C_R   0.022128 0.526125 0.186478 -0.026863
C84   C     C_R   0.473868 0.022119 0.186478 -0.026865
C85   C     C_R   0.977868 0.526121 0.813522 -0.026863
C86   C     C_R   0.526131 0.022120 0.813522 -0.026863
C87   C     C_R   0.022132 0.473878 0.813522 -0.026862
C88   C     C_R   0.473869 0.977879 0.813522 -0.026864
C89   C     C_R   0.500000 1.000000 0.699238 -0.048898
C90   C     C_R   0.000000 0.500000 0.699238 -0.048898
C91   C     C_R   0.500000 0.000000 0.300762 -0.048897
C92   C     C_R   0.000000 0.500000 0.300761 -0.048900
C93   C     C_R   0.000000 0.500000 0.199238 -0.048899
C94   C     C_R   0.500000 0.000000 0.199238 -0.048898
C95   C     C_R   1.000000 0.500000 0.800762 -0.048899
C96   C     C_R   0.500000 1.000000 0.800762 -0.048899
C97   C     C_R   0.478564 0.974114 0.661330 0.519410
C98   C     C_R   0.025896 0.478576 0.661330 0.519409
C99   C     C_R   0.521436 0.025886 0.661330 0.519409
C100  C     C_R   0.974104 0.521424 0.661330 0.519409
C101  C     C_R   0.478563 0.025885 0.338670 0.519412
C102  C     C_R   0.025893 0.521427 0.338670 0.519409
C103  C     C_R   0.521437 0.974115 0.338670 0.519411
C104  C     C_R   0.974107 0.478573 0.338670 0.519409
C105  C     C_R   0.978551 0.474125 0.161330 0.519410
C106  C     C_R   0.525882 0.978559 0.161330 0.519410
C107  C     C_R   0.021449 0.525875 0.161330 0.519410
C108  C     C_R   0.474118 0.021441 0.161330 0.519409
C109  C     C_R   0.978546 0.525871 0.838670 0.519412
C110  C     C_R   0.525881 0.021442 0.838670 0.519410
C111  C     C_R   0.021454 0.474129 0.838670 0.519412
C112  C     C_R   0.474119 0.978558 0.838670 0.519412
N1    N     N_R   0.500000 1.000000 0.649316 -0.354978
N2    N     N_R   1.000000 0.500000 0.649316 -0.354981
N3    N     N_R   0.500000 0.000000 0.350684 -0.354978
N4    N     N_R   0.000000 0.500000 0.350683 -0.354979
N5    N     N_R   0.000000 0.500000 0.149316 -0.354975
N6    N     N_R   0.500000 0.000000 0.149316 -0.354977
N7    N     N_R   1.000000 0.500000 0.850684 -0.354975
N8    N     N_R   0.500000 1.000000 0.850684 -0.354977
H1    H     H_    0.438052 0.926579 0.732142 0.151785
H2    H     H_    0.073450 0.438085 0.732142 0.151785
H3    H     H_    0.561948 0.073421 0.732142 0.151785
H4    H     H_    0.926550 0.561915 0.732142 0.151785
H5    H     H_    0.438048 0.073418 0.267858 0.151785
H6    H     H_    0.073441 0.561925 0.267858 0.151786
H7    H     H_    0.561952 0.926582 0.267858 0.151785
H8    H     H_    0.926559 0.438075 0.267858 0.151785
H9    H     H_    0.938013 0.426612 0.232142 0.151786
H10   H     H_    0.573409 0.938037 0.232141 0.151785
H11   H     H_    0.061988 0.573388 0.232142 0.151785
H12   H     H_    0.426591 0.061963 0.232141 0.151785
H13   H     H_    0.938000 0.573377 0.767858 0.151785
H14   H     H_    0.573406 0.061966 0.767858 0.151786
H15   H     H_    0.062000 0.426623 0.767858 0.151785
H16   H     H_    0.426594 0.938033 0.767858 0.151785
H17   H     H_    0.439128 0.927055 0.689607 0.198467
H18   H     H_    0.072973 0.439162 0.689607 0.198467
H19   H     H_    0.560872 0.072945 0.689607 0.198467
H20   H     H_    0.927027 0.560838 0.689607 0.198467
H21   H     H_    0.439124 0.072942 0.310393 0.198467
H22   H     H_    0.072965 0.560848 0.310393 0.198467
H23   H     H_    0.560876 0.927058 0.310393 0.198467
H24   H     H_    0.927035 0.439151 0.310393 0.198467
H25   H     H_    0.939090 0.427087 0.189607 0.198466
H26   H     H_    0.572933 0.939113 0.189607 0.198466
H27   H     H_    0.060910 0.572913 0.189607 0.198466
H28   H     H_    0.427067 0.060887 0.189607 0.198467
H29   H     H_    0.939077 0.572902 0.810393 0.198466
H30   H     H_    0.572930 0.060889 0.810393 0.198467
H31   H     H_    0.060923 0.427098 0.810393 0.198466
H32   H     H_    0.427070 0.939110 0.810393 0.198467
O33   O     O_2   0.458203 0.948523 0.648957 -0.538062
O34   O     O_2   0.051496 0.458226 0.648957 -0.538057
O35   O     O_2   0.541797 0.051477 0.648957 -0.538062
O36   O     O_2   0.948504 0.541774 0.648957 -0.538057
O37   O     O_2   0.458200 0.051475 0.351043 -0.538064
O38   O     O_2   0.051491 0.541780 0.351043 -0.538062
O39   O     O_2   0.541800 0.948525 0.351043 -0.538064
O40   O     O_2   0.948509 0.458219 0.351043 -0.538061
O41   O     O_2   0.958176 0.448544 0.148957 -0.538069
O42   O     O_2   0.551468 0.958192 0.148957 -0.538064
O43   O     O_2   0.041824 0.551456 0.148957 -0.538069
O44   O     O_2   0.448532 0.041808 0.148957 -0.538064
O45   O     O_2   0.958167 0.551448 0.851043 -0.538070
O46   O     O_2   0.551467 0.041810 0.851043 -0.538065
O47   O     O_2   0.041833 0.448552 0.851043 -0.538070
O48   O     O_2   0.448533 0.958190 0.851043 -0.538066
C113  C     C_R   0.533271 0.992212 0.611048 -0.084746
C114  C     C_R   0.007776 0.533274 0.611048 -0.084745
C115  C     C_R   0.466729 0.007788 0.611048 -0.084746
C116  C     C_R   0.992224 0.466726 0.611048 -0.084745
C117  C     C_R   0.533271 0.007790 0.388952 -0.084746
C118  C     C_R   0.007777 0.466726 0.388952 -0.084744
C119  C     C_R   0.466729 0.992210 0.388952 -0.084747
C120  C     C_R   0.992224 0.533274 0.388952 -0.084742
C121  C     C_R   0.033268 0.492199 0.111047 -0.084746
C122  C     C_R   0.507795 0.033270 0.111048 -0.084746
C123  C     C_R   0.966732 0.507801 0.111047 -0.084745
C124  C     C_R   0.492205 0.966730 0.111048 -0.084746
C125  C     C_R   0.033267 0.507808 0.888953 -0.084747
C126  C     C_R   0.507795 0.966730 0.888952 -0.084747
C127  C     C_R   0.966733 0.492192 0.888953 -0.084748
C128  C     C_R   0.492205 0.033270 0.888952 -0.084746
H33   H     H_    0.559034 0.985964 0.620672 0.160797
H34   H     H_    0.014014 0.559039 0.620672 0.160790
H35   H     H_    0.440966 0.014035 0.620672 0.160797
H36   H     H_    0.985986 0.440961 0.620672 0.160790
H37   H     H_    0.559033 0.014039 0.379328 0.160798
H38   H     H_    0.014015 0.440961 0.379328 0.160795
H39   H     H_    0.440967 0.985961 0.379328 0.160798
H40   H     H_    0.985985 0.559039 0.379327 0.160795
H41   H     H_    0.059028 0.485941 0.120672 0.160806
H42   H     H_    0.514047 0.059031 0.120672 0.160799
H43   H     H_    0.940972 0.514058 0.120672 0.160806
H44   H     H_    0.485953 0.940969 0.120672 0.160799
H45   H     H_    0.059025 0.514071 0.879328 0.160807
H46   H     H_    0.514048 0.940969 0.879328 0.160801
H47   H     H_    0.940975 0.485929 0.879328 0.160807
H48   H     H_    0.485952 0.059031 0.879328 0.160801
C129  C     C_R   0.533344 0.992380 0.586071 -0.148563
C130  C     C_R   0.007608 0.533347 0.586071 -0.148567
C131  C     C_R   0.466656 0.007620 0.586071 -0.148564
C132  C     C_R   0.992392 0.466653 0.586071 -0.148567
C133  C     C_R   0.533344 0.007621 0.413929 -0.148562
C134  C     C_R   0.007608 0.466653 0.413929 -0.148568
C135  C     C_R   0.466656 0.992378 0.413929 -0.148561
C136  C     C_R   0.992392 0.533347 0.413929 -0.148569
C137  C     C_R   0.033341 0.492368 0.086070 -0.148558
C138  C     C_R   0.507626 0.033343 0.086070 -0.148560
C139  C     C_R   0.966659 0.507632 0.086070 -0.148559
C140  C     C_R   0.492374 0.966657 0.086070 -0.148560
C141  C     C_R   0.033340 0.507639 0.913930 -0.148555
C142  C     C_R   0.507627 0.966657 0.913929 -0.148559
C143  C     C_R   0.966660 0.492361 0.913930 -0.148554
C144  C     C_R   0.492373 0.033342 0.913929 -0.148561
H49   H     H_    0.559358 0.986234 0.576693 0.189272
H50   H     H_    0.013745 0.559363 0.576693 0.189256
H51   H     H_    0.440642 0.013766 0.576693 0.189273
H52   H     H_    0.986255 0.440637 0.576693 0.189256
H53   H     H_    0.559357 0.013770 0.423307 0.189275
H54   H     H_    0.013746 0.440636 0.423307 0.189257
H55   H     H_    0.440642 0.986230 0.423307 0.189275
H56   H     H_    0.986254 0.559363 0.423307 0.189257
H57   H     H_    0.059353 0.486211 0.076693 0.189290
H58   H     H_    0.513778 0.059355 0.076693 0.189281
H59   H     H_    0.940647 0.513789 0.076693 0.189290
H60   H     H_    0.486222 0.940645 0.076693 0.189281
H61   H     H_    0.059350 0.513801 0.923307 0.189299
H62   H     H_    0.513779 0.940645 0.923307 0.189282
H63   H     H_    0.940650 0.486199 0.923307 0.189299
H64   H     H_    0.486221 0.059355 0.923307 0.189282
C145  C     C_R   0.500000 1.000000 0.573409 -0.037324
C146  C     C_R   0.000000 0.500000 0.573409 -0.037303
C147  C     C_R   0.500000 0.000000 0.426591 -0.037328
C148  C     C_R   0.000000 0.500000 0.426591 -0.037302
C149  C     C_R   1.000000 0.500000 0.073409 -0.037347
C150  C     C_R   0.500000 0.000000 0.073409 -0.037337
C151  C     C_R   1.000000 0.500000 0.926591 -0.037359
C152  C     C_R   0.500000 1.000000 0.926591 -0.037338
O49   O     O_R   0.444640 0.499970 0.520100 -0.579709
O50   O     O_R   0.500030 0.444640 0.520100 -0.579709
O51   O     O_R   0.555360 0.500030 0.520100 -0.579709
O52   O     O_R   0.499970 0.555360 0.520100 -0.579709
O53   O     O_R   0.444640 0.500030 0.479900 -0.579709
O54   O     O_R   0.500030 0.555360 0.479900 -0.579710
O55   O     O_R   0.555360 0.499970 0.479900 -0.579709
O56   O     O_R   0.499970 0.444640 0.479900 -0.579709
O57   O     O_R   0.944640 0.999970 0.020100 -0.579709
O58   O     O_R   0.000030 0.944640 0.020100 -0.579709
O59   O     O_R   0.055360 0.000030 0.020100 -0.579709
O60   O     O_R   0.999970 0.055360 0.020100 -0.579709
O61   O     O_R   0.944640 0.000030 0.979900 -0.579709
O62   O     O_R   0.000030 0.055360 0.979900 -0.579709
O63   O     O_R   0.055360 0.999970 0.979900 -0.579710
O64   O     O_R   0.999970 0.944640 0.979900 -0.579709
C153  C     C_R   0.500000 1.000000 0.623614 0.286167
C154  C     C_R   0.000000 0.500000 0.623615 0.286176
C155  C     C_R   0.500000 0.000000 0.376385 0.286164
C156  C     C_R   1.000000 0.500000 0.376385 0.286168
C157  C     C_R   0.000000 0.500000 0.123614 0.286154
C158  C     C_R   0.500000 0.000000 0.123614 0.286163
C159  C     C_R   1.000000 0.500000 0.876386 0.286152
C160  C     C_R   0.500000 1.000000 0.876386 0.286161
C161  C     C_R   0.426787 0.500000 0.500000 1.004925
C162  C     C_R   0.500000 0.426787 0.500000 1.004924
C163  C     C_R   0.573213 0.500000 0.500000 1.004924
C164  C     C_R   0.500000 0.573213 0.500000 1.004924
C165  C     C_R   0.926787 0.000000 1.000000 1.004925
C166  C     C_R   1.000000 0.926787 1.000000 1.004925
C167  C     C_R   0.073213 0.000000 0.000000 1.004924
C168  C     C_R   0.000000 0.073213 0.000000 1.004924
Zn9   Zn    Zn3+2 0.500000 0.500000 0.526860 1.193798
Zn10  Zn    Zn3+2 0.500000 0.500000 0.473140 1.193798
Zn11  Zn    Zn3+2 1.000000 0.000000 0.026860 1.193798
Zn12  Zn    Zn3+2 1.000000 0.000000 0.973140 1.193798
C169  C     C_R   0.477979 0.673838 0.483422 -0.181144
C170  C     C_R   0.326162 0.477979 0.483421 -0.181144
C171  C     C_R   0.522021 0.326161 0.483422 -0.181143
C172  C     C_R   0.673838 0.522021 0.483422 -0.181144
C173  C     C_R   0.477979 0.326162 0.516578 -0.181144
C174  C     C_R   0.326162 0.522021 0.516578 -0.181144
C175  C     C_R   0.522021 0.673838 0.516578 -0.181144
C176  C     C_R   0.673838 0.477979 0.516578 -0.181144
C177  C     C_R   0.977979 0.173838 0.983421 -0.181144
C178  C     C_R   0.826161 0.977979 0.983421 -0.181145
C179  C     C_R   0.022021 0.826161 0.983421 -0.181144
C180  C     C_R   0.173838 0.022021 0.983421 -0.181144
C181  C     C_R   0.977979 0.826162 0.016578 -0.181144
C182  C     C_R   0.826162 0.022021 0.016578 -0.181144
C183  C     C_R   0.022021 0.173838 0.016578 -0.181144
C184  C     C_R   0.173838 0.977979 0.016578 -0.181143
H65   H     H_    0.460614 0.689440 0.470866 0.191230
H66   H     H_    0.310560 0.460614 0.470866 0.191230
H67   H     H_    0.539385 0.310560 0.470866 0.191230
H68   H     H_    0.689440 0.539386 0.470866 0.191230
H69   H     H_    0.460614 0.310560 0.529134 0.191230
H70   H     H_    0.310560 0.539385 0.529134 0.191230
H71   H     H_    0.539386 0.689440 0.529133 0.191230
H72   H     H_    0.689440 0.460614 0.529134 0.191230
H73   H     H_    0.960615 0.189440 0.970866 0.191230
H74   H     H_    0.810560 0.960614 0.970866 0.191230
H75   H     H_    0.039385 0.810560 0.970866 0.191230
H76   H     H_    0.189440 0.039386 0.970866 0.191230
H77   H     H_    0.960614 0.810560 0.029133 0.191230
H78   H     H_    0.810560 0.039386 0.029133 0.191230
H79   H     H_    0.039386 0.189440 0.029134 0.191230
H80   H     H_    0.189440 0.960614 0.029133 0.191230
C185  C     C_R   0.477164 0.634512 0.483415 0.285442
C186  C     C_R   0.365488 0.477164 0.483415 0.285442
C187  C     C_R   0.522836 0.365488 0.483415 0.285441
C188  C     C_R   0.634512 0.522836 0.483415 0.285441
C189  C     C_R   0.477164 0.365488 0.516585 0.285441
C190  C     C_R   0.365488 0.522836 0.516585 0.285442
C191  C     C_R   0.522836 0.634512 0.516585 0.285441
C192  C     C_R   0.634512 0.477164 0.516585 0.285442
C193  C     C_R   0.977164 0.134512 0.983415 0.285442
C194  C     C_R   0.865488 0.977164 0.983415 0.285442
C195  C     C_R   0.022836 0.865488 0.983415 0.285441
C196  C     C_R   0.134512 0.022836 0.983415 0.285441
C197  C     C_R   0.977164 0.865488 0.016585 0.285441
C198  C     C_R   0.865488 0.022836 0.016585 0.285440
C199  C     C_R   0.022836 0.134512 0.016585 0.285442
C200  C     C_R   0.134512 0.977164 0.016585 0.285441
C201  C     C_R   0.500000 0.614485 0.500000 -0.254054
C202  C     C_R   0.385515 0.500000 0.500000 -0.254054
C203  C     C_R   0.500000 0.385515 0.500000 -0.254054
C204  C     C_R   0.614485 0.500000 0.500000 -0.254053
C205  C     C_R   0.000000 0.114485 0.000000 -0.254054
C206  C     C_R   0.885515 0.000000 1.000000 -0.254053
C207  C     C_R   1.000000 0.885515 1.000000 -0.254054
C208  C     C_R   0.114485 0.000000 0.000000 -0.254054
C209  C     C_R   0.500000 0.693176 0.500000 0.013590
C210  C     C_R   0.306824 0.500000 0.500000 0.013591
C211  C     C_R   0.500000 0.306824 0.500000 0.013590
C212  C     C_R   0.693176 0.500000 0.500000 0.013590
C213  C     C_R   0.000000 0.193176 0.000000 0.013590
C214  C     C_R   0.806824 1.000000 0.000000 0.013591
C215  C     C_R   1.000000 0.806824 0.000000 0.013590
C216  C     C_R   0.193176 0.000000 0.000000 0.013590
C217  C     C_1   0.500000 0.733221 0.500000 0.033113
C218  C     C_1   0.266778 0.500000 0.500000 0.033113
C219  C     C_1   0.500000 0.266779 0.500000 0.033113
C220  C     C_1   0.733221 0.500000 0.500000 0.033113
C221  C     C_1   0.000000 0.233221 0.000000 0.033113
C222  C     C_1   0.766779 1.000000 0.000000 0.033113
C223  C     C_1   1.000000 0.766779 0.000000 0.033113
C224  C     C_1   0.233221 0.000000 0.000000 0.033113
C225  C     C_1   0.500000 0.766880 0.500000 0.029644
C226  C     C_1   0.233120 0.500000 0.500000 0.029643
C227  C     C_1   0.500000 0.233120 0.500000 0.029644
C228  C     C_1   0.766880 0.500000 0.500000 0.029644
C229  C     C_1   0.000000 0.266880 0.000000 0.029644
C230  C     C_1   0.733120 1.000000 0.000000 0.029644
C231  C     C_1   1.000000 0.733120 0.000000 0.029644
C232  C     C_1   0.266880 0.000000 0.000000 0.029644
C233  C     C_R   0.477401 0.826268 0.483721 -0.186271
C234  C     C_R   0.173732 0.477401 0.483721 -0.186271
C235  C     C_R   0.522599 0.173732 0.483721 -0.186271
C236  C     C_R   0.826268 0.522599 0.483721 -0.186270
C237  C     C_R   0.477401 0.173732 0.516279 -0.186271
C238  C     C_R   0.173732 0.522598 0.516279 -0.186271
C239  C     C_R   0.522599 0.826268 0.516279 -0.186271
C240  C     C_R   0.826268 0.477401 0.516279 -0.186270
C241  C     C_R   0.977401 0.326267 0.983722 -0.186273
C242  C     C_R   0.673732 0.977401 0.983721 -0.186272
C243  C     C_R   0.022599 0.673732 0.983722 -0.186274
C244  C     C_R   0.326267 0.022599 0.983722 -0.186271
C245  C     C_R   0.977401 0.673732 0.016278 -0.186273
C246  C     C_R   0.673732 0.022599 0.016278 -0.186272
C247  C     C_R   0.022599 0.326267 0.016278 -0.186273
C248  C     C_R   0.326267 0.977401 0.016278 -0.186271
H81   H     H_    0.460408 0.810665 0.470964 0.192528
H82   H     H_    0.189335 0.460408 0.470964 0.192528
H83   H     H_    0.539592 0.189335 0.470964 0.192528
H84   H     H_    0.810665 0.539592 0.470964 0.192528
H85   H     H_    0.460408 0.189335 0.529036 0.192528
H86   H     H_    0.189335 0.539592 0.529036 0.192528
H87   H     H_    0.539592 0.810665 0.529036 0.192528
H88   H     H_    0.810665 0.460408 0.529036 0.192528
H89   H     H_    0.960407 0.310665 0.970964 0.192527
H90   H     H_    0.689335 0.960407 0.970964 0.192528
H91   H     H_    0.039593 0.689335 0.970964 0.192528
H92   H     H_    0.310665 0.039593 0.970964 0.192528
H93   H     H_    0.960407 0.689335 0.029036 0.192528
H94   H     H_    0.689335 0.039592 0.029036 0.192528
H95   H     H_    0.039593 0.310665 0.029036 0.192528
H96   H     H_    0.310665 0.960407 0.029036 0.192528
C249  C     C_R   0.477522 0.865603 0.483221 0.273619
C250  C     C_R   0.134397 0.477522 0.483220 0.273616
C251  C     C_R   0.522478 0.134397 0.483221 0.273619
C252  C     C_R   0.865603 0.522478 0.483221 0.273615
C253  C     C_R   0.477522 0.134397 0.516779 0.273619
C254  C     C_R   0.134397 0.522478 0.516779 0.273616
C255  C     C_R   0.522478 0.865603 0.516779 0.273618
C256  C     C_R   0.865603 0.477522 0.516779 0.273616
C257  C     C_R   0.977522 0.365602 0.983221 0.273627
C258  C     C_R   0.634397 0.977522 0.983221 0.273622
C259  C     C_R   0.022478 0.634397 0.983221 0.273626
C260  C     C_R   0.365603 0.022478 0.983221 0.273621
C261  C     C_R   0.977522 0.634397 0.016779 0.273624
C262  C     C_R   0.634397 0.022478 0.016779 0.273621
C263  C     C_R   0.022478 0.365602 0.016779 0.273623
C264  C     C_R   0.365603 0.977522 0.016779 0.273622
C265  C     C_R   0.500000 0.885524 0.500000 -0.290870
C266  C     C_R   0.114475 0.500000 0.500000 -0.290871
C267  C     C_R   0.500000 0.114476 0.500000 -0.290870
C268  C     C_R   0.885524 0.500000 0.500000 -0.290871
C269  C     C_R   0.000000 0.385524 0.000000 -0.290869
C270  C     C_R   0.614476 1.000000 0.000000 -0.290869
C271  C     C_R   1.000000 0.614476 0.000000 -0.290869
C272  C     C_R   0.385524 0.000000 0.000000 -0.290870
C273  C     C_R   0.500000 0.806925 0.500000 0.011649
C274  C     C_R   0.193075 0.500000 0.500000 0.011650
C275  C     C_R   0.500000 0.193075 0.500000 0.011649
C276  C     C_R   0.806925 0.500000 0.500000 0.011650
C277  C     C_R   0.000000 0.306925 0.000000 0.011649
C278  C     C_R   0.693075 1.000000 0.000000 0.011649
C279  C     C_R   1.000000 0.693075 0.000000 0.011649
C280  C     C_R   0.306925 0.000000 0.000000 0.011649
N9    N     N_R   0.452099 0.615626 0.467077 0.229018
O65   O     O_R   0.446668 0.629216 0.445661 -0.336945
O66   O     O_R   0.430192 0.588775 0.474693 -0.354532
N10   N     N_R   0.384374 0.452099 0.467077 0.229017
O67   O     O_R   0.370784 0.446668 0.445661 -0.336943
O68   O     O_R   0.411225 0.430192 0.474693 -0.354531
N11   N     N_R   0.547901 0.384374 0.467077 0.229018
O69   O     O_R   0.553332 0.370784 0.445661 -0.336944
O70   O     O_R   0.569808 0.411225 0.474693 -0.354532
N12   N     N_R   0.615626 0.547901 0.467077 0.229018
O71   O     O_R   0.629216 0.553331 0.445661 -0.336944
O72   O     O_R   0.588775 0.569808 0.474693 -0.354532
N13   N     N_R   0.452099 0.384374 0.532922 0.229018
O73   O     O_R   0.446668 0.370784 0.554339 -0.336944
O74   O     O_R   0.430192 0.411225 0.525307 -0.354532
N14   N     N_R   0.384374 0.547901 0.532923 0.229017
O75   O     O_R   0.370784 0.553331 0.554339 -0.336943
O76   O     O_R   0.411225 0.569808 0.525307 -0.354531
N15   N     N_R   0.547901 0.615626 0.532922 0.229017
O77   O     O_R   0.553332 0.629215 0.554339 -0.336944
O78   O     O_R   0.569808 0.588775 0.525307 -0.354532
N16   N     N_R   0.615626 0.452099 0.532923 0.229018
O79   O     O_R   0.629216 0.446668 0.554339 -0.336944
O80   O     O_R   0.588775 0.430192 0.525307 -0.354532
N17   N     N_R   0.952099 0.115626 0.967077 0.229018
O81   O     O_R   0.946669 0.129216 0.945661 -0.336944
O82   O     O_R   0.930192 0.088775 0.974693 -0.354531
N18   N     N_R   0.884374 0.952099 0.967077 0.229018
O83   O     O_R   0.870784 0.946668 0.945661 -0.336944
O84   O     O_R   0.911225 0.930192 0.974693 -0.354531
N19   N     N_R   0.047901 0.884374 0.967077 0.229018
O85   O     O_R   0.053332 0.870784 0.945661 -0.336944
O86   O     O_R   0.069808 0.911225 0.974693 -0.354532
N20   N     N_R   0.115626 0.047901 0.967077 0.229018
O87   O     O_R   0.129216 0.053332 0.945661 -0.336944
O88   O     O_R   0.088775 0.069808 0.974693 -0.354532
N21   N     N_R   0.952099 0.884374 0.032923 0.229017
O89   O     O_R   0.946668 0.870784 0.054339 -0.336943
O90   O     O_R   0.930192 0.911225 0.025306 -0.354532
N22   N     N_R   0.884374 0.047901 0.032923 0.229018
O91   O     O_R   0.870784 0.053332 0.054339 -0.336944
O92   O     O_R   0.911225 0.069808 0.025306 -0.354532
N23   N     N_R   0.047901 0.115625 0.032923 0.229017
O93   O     O_R   0.053332 0.129215 0.054339 -0.336944
O94   O     O_R   0.069808 0.088775 0.025307 -0.354532
N24   N     N_R   0.115626 0.952099 0.032923 0.229018
O95   O     O_R   0.129216 0.946668 0.054339 -0.336943
O96   O     O_R   0.088775 0.930192 0.025306 -0.354532
N25   N     N_R   0.455870 0.884669 0.465079 0.223374
O97   O     O_R   0.423919 0.870613 0.457927 -0.351120
O98   O     O_R   0.470515 0.912511 0.453090 -0.409020
N26   N     N_R   0.115331 0.455871 0.465079 0.223376
O99   O     O_R   0.129387 0.423919 0.457926 -0.351116
O100  O     O_R   0.087488 0.470515 0.453090 -0.409007
N27   N     N_R   0.544130 0.115331 0.465079 0.223374
O101  O     O_R   0.576081 0.129387 0.457927 -0.351120
O102  O     O_R   0.529485 0.087488 0.453090 -0.409021
N28   N     N_R   0.884669 0.544129 0.465079 0.223375
O103  O     O_R   0.870613 0.576081 0.457926 -0.351116
O104  O     O_R   0.912511 0.529485 0.453090 -0.409006
N29   N     N_R   0.455870 0.115331 0.534921 0.223375
O105  O     O_R   0.423919 0.129387 0.542073 -0.351120
O106  O     O_R   0.470515 0.087488 0.546909 -0.409019
N30   N     N_R   0.115331 0.544129 0.534921 0.223376
O107  O     O_R   0.129387 0.576081 0.542074 -0.351116
O108  O     O_R   0.087488 0.529485 0.546910 -0.409006
N31   N     N_R   0.544130 0.884669 0.534921 0.223374
O109  O     O_R   0.576081 0.870613 0.542073 -0.351119
O110  O     O_R   0.529485 0.912511 0.546910 -0.409019
N32   N     N_R   0.884669 0.455871 0.534921 0.223375
O111  O     O_R   0.870613 0.423919 0.542074 -0.351116
O112  O     O_R   0.912512 0.470515 0.546910 -0.409005
N33   N     N_R   0.955870 0.384669 0.965079 0.223373
O113  O     O_R   0.923918 0.370613 0.957927 -0.351126
O114  O     O_R   0.970514 0.412511 0.953090 -0.409041
N34   N     N_R   0.615331 0.955870 0.965079 0.223374
O115  O     O_R   0.629387 0.923918 0.957927 -0.351122
O116  O     O_R   0.587489 0.970514 0.953090 -0.409027
N35   N     N_R   0.044130 0.615331 0.965079 0.223373
O117  O     O_R   0.076082 0.629387 0.957927 -0.351126
O118  O     O_R   0.029486 0.587489 0.953090 -0.409041
N36   N     N_R   0.384669 0.044130 0.965079 0.223374
O119  O     O_R   0.370613 0.076082 0.957927 -0.351121
O120  O     O_R   0.412511 0.029486 0.953090 -0.409026
N37   N     N_R   0.955870 0.615331 0.034920 0.223373
O121  O     O_R   0.923918 0.629387 0.042073 -0.351123
O122  O     O_R   0.970514 0.587489 0.046909 -0.409034
N38   N     N_R   0.615331 0.044130 0.034920 0.223373
O123  O     O_R   0.629387 0.076081 0.042073 -0.351121
O124  O     O_R   0.587489 0.029486 0.046909 -0.409027
N39   N     N_R   0.044130 0.384669 0.034920 0.223373
O125  O     O_R   0.076082 0.370613 0.042073 -0.351123
O126  O     O_R   0.029486 0.412511 0.046909 -0.409033
N40   N     N_R   0.384669 0.955870 0.034920 0.223374
O127  O     O_R   0.370613 0.923918 0.042073 -0.351121
O128  O     O_R   0.412511 0.970514 0.046909 -0.409026

loop_
_geom_bond_atom_site_label_1
_geom_bond_atom_site_label_2
_geom_bond_distance
_ccdc_geom_bond_type
N30   O108  1.301047 A    
C132  C146  1.404002 A    
C71   H31   1.083501 S    
C163  C204  1.464746 S    
C139  H59   1.083032 S    
O25   C13   1.281996 A    
C80   C104  1.401352 A    
O60   Zn11  2.000528 S    
N14   O76   1.301027 A    
C117  H37   1.082910 S    
C234  C250  1.396311 A    
C171  H67   1.084291 S    
C119  C135  1.391599 A    
C100  N2    1.367765 A    
C188  C204  1.419820 A    
C37   C93   1.418923 A    
C198  C206  1.419819 A    
C63   H23   1.083501 S    
O55   Zn10  2.000529 S    
C199  N23   1.438454 S    
C219  C227  1.194556 T    
C29   C53   1.414860 A    
O18   Zn2   2.019787 S    
C251  C267  1.417841 A    
N36   O119  1.301383 A    
C169  C185  1.396023 A    
C252  C268  1.417842 A    
C31   C55   1.414863 A    
O6    Zn4   2.002576 S    
C193  C205  1.419819 A    
O59   Zn11  2.000528 S    
N32   O111  1.301381 A    
C55   H15   1.076850 S    
C127  C159  1.400339 A    
C192  C204  1.419819 A    
C244  H92   1.084239 S    
C47   H7    1.076850 S    
C35   C91   1.418923 A    
N10   O67   1.301360 A    
C48   H8    1.076854 S    
C60   C76   1.395769 A    
C259  C271  1.417843 A    
O3    C3    1.279324 A    
C67   C83   1.395769 A    
C244  C260  1.396307 A    
C257  C269  1.417845 A    
C19   C33   1.420151 A    
C175  C191  1.396027 A    
C85   C95   1.407799 A    
C86   C96   1.407797 A    
C240  C256  1.396307 A    
C69   C85   1.395769 A    
C241  C257  1.396307 A    
C74   C90   1.407797 A    
O5    Zn1   2.002575 S    
C101  O37   1.349933 S    
C68   C84   1.395767 A    
C115  C153  1.400338 A    
C180  H76   1.084288 S    
C99   O35   1.349939 S    
C125  C141  1.391605 A    
C126  C142  1.391599 A    
C25   C37   1.420149 A    
C169  C209  1.391029 A    
C62   H22   1.083504 S    
C51   C67   1.387740 A    
C261  N37   1.438731 S    
C114  C130  1.391605 A    
N39   O126  1.301048 A    
O17   C9    1.281998 A    
N25   O98   1.301050 A    
O20   Zn4   2.019787 S    
C5    C269  1.460639 S    
N24   O95   1.301362 A    
C70   H30   1.083498 S    
C125  H45   1.082908 S    
C240  H88   1.084233 S    
C195  C207  1.419819 A    
O60   C168  1.286694 A    
C182  C198  1.396024 A    
C105  N5    1.367767 A    
C104  O40   1.349939 S    
C119  C155  1.400340 A    
N26   O99   1.301380 A    
C178  C194  1.396023 A    
C97   N1    1.367766 A    
C175  C209  1.391025 A    
C122  H42   1.082908 S    
C85   C109  1.401352 A    
C250  C266  1.417845 A    
C47   C63   1.387734 A    
C252  N28   1.438733 S    
C12   C148  1.464910 S    
C75   C99   1.401352 A    
O26   Zn6   2.019787 S    
N16   O80   1.301024 A    
N33   O114  1.301047 A    
O58   Zn11  2.000531 S    
C81   C105  1.401352 A    
C73   C97   1.401352 A    
C239  C273  1.391794 A    
C120  C136  1.391605 A    
C122  C138  1.391605 A    
C135  C147  1.403996 A    
C23   C35   1.420153 A    
O27   C13   1.281998 A    
O8    Zn2   2.002579 S    
C9    C145  1.464905 S    
C165  C206  1.464746 S    
C128  C144  1.391605 A    
O31   C15   1.281999 A    
C109  N7    1.367765 A    
N1    C153  1.431972 S    
C226  C274  1.421241 S    
C118  H38   1.082910 S    
C260  N36   1.438733 S    
C68   H28   1.083498 S    
C243  C279  1.391794 A    
C144  H64   1.083034 S    
C102  O38   1.349938 S    
C258  N34   1.438732 S    
C212  C220  1.421249 S    
N28   O103  1.301380 A    
C25   C49   1.414856 A    
C224  C232  1.194556 T    
C235  C275  1.391794 A    
C234  H82   1.084233 S    
C138  H58   1.083036 S    
C51   H11   1.076851 S    
C45   H5    1.076850 S    
C18   C42   1.414858 A    
C173  C189  1.396023 A    
C127  H47   1.082905 S    
C257  N33   1.438730 S    
O9    C5    1.279324 A    
C245  C261  1.396307 A    
C164  C201  1.464746 S    
C52   H12   1.076848 S    
O54   Zn10  2.000529 S    
O11   C7    1.279324 A    
N18   O83   1.301356 A    
C28   C52   1.414858 A    
C137  C149  1.403997 A    
C82   C106  1.401352 A    
O16   Zn6   2.002579 S    
O61   Zn12  2.000533 S    
C58   C74   1.395771 A    
C49   H9    1.076849 S    
C32   C56   1.414855 A    
C76   C90   1.407799 A    
C174  C210  1.391023 A    
C237  C253  1.396307 A    
C193  N17   1.438457 S    
C111  O47   1.349933 S    
N6    C158  1.431966 S    
C135  H55   1.083036 S    
O15   Zn7   2.002579 S    
C178  C214  1.391029 A    
C136  H56   1.083039 S    
C253  C267  1.417838 A    
C264  C272  1.417838 A    
C190  N14   1.438453 S    
C132  H52   1.083038 S    
C235  C251  1.396311 A    
C116  C132  1.391599 A    
C133  H53   1.083035 S    
C31   C39   1.420154 A    
O21   Zn1   2.019792 S    
O52   Zn9   2.000528 S    
C196  N20   1.438456 S    
C22   C46   1.414860 A    
C216  C224  1.421245 S    
O23   C11   1.282001 A    
N34   O116  1.301050 A    
C237  C275  1.391795 A    
C227  C275  1.421238 S    
C254  N30   1.438734 S    
C188  N12   1.438458 S    
N22   O91   1.301357 A    
O13   C7    1.279326 A    
C17   C33   1.420151 A    
C82   C94   1.407796 A    
C199  C205  1.419817 A    
O2    Zn2   2.002575 S    
C87   C111  1.401358 A    
C196  C208  1.419818 A    
C88   C112  1.401352 A    
O7    C1    1.279326 A    
C4    C268  1.460636 S    
C79   C91   1.407798 A    
O28   C14   1.282001 A    
O26   C14   1.281998 A    
C236  H84   1.084235 S    
O30   C16   1.282001 A    
O29   Zn5   2.019792 S    
C263  C269  1.417841 A    
C177  H73   1.084290 S    
C233  C249  1.396307 A    
C114  H34   1.082909 S    
C121  C137  1.391600 A    
C261  C271  1.417842 A    
C197  N21   1.438454 S    
C48   C64   1.387735 A    
O19   Zn3   2.019787 S    
N37   O121  1.301381 A    
O49   C161  1.286693 A    
N40   O128  1.301048 A    
O57   C165  1.286693 A    
N20   O88   1.301024 A    
C42   C58   1.387734 A    
O59   C167  1.286694 A    
C55   C71   1.387735 A    
C123  H43   1.082908 S    
C65   C81   1.395767 A    
C110  O46   1.349936 S    
C220  C228  1.194553 T    
C256  C268  1.417843 A    
C113  C129  1.391605 A    
N12   O71   1.301356 A    
C42   H2    1.076852 S    
C200  N24   1.438458 S    
N21   O90   1.301026 A    
C111  N7    1.367768 A    
C104  N4    1.367764 A    
N17   O81   1.301355 A    
C174  H70   1.084294 S    
N29   O106  1.301050 A    
C103  N3    1.367766 A    
C236  C276  1.391792 A    
C177  C213  1.391027 A    
C66   C82   1.395764 A    
O29   C15   1.281995 A    
O12   Zn8   2.002579 S    
C117  C133  1.391599 A    
C128  H48   1.082905 S    
C70   C86   1.395766 A    
C144  C152  1.403998 A    
C184  H80   1.084291 S    
C113  C153  1.400338 A    
C118  C156  1.400344 A    
C29   C39   1.420152 A    
N27   O101  1.301381 A    
C178  H74   1.084291 S    
C241  C277  1.391790 A    
C61   H21   1.083498 S    
C108  O44   1.349939 S    
C250  N26   1.438735 S    
O22   Zn4   2.019792 S    
C183  C213  1.391030 A    
C112  O48   1.349932 S    
O23   Zn3   2.019792 S    
C56   H16   1.076851 S    
N23   O93   1.301360 A    
C106  N6    1.367765 A    
N13   O74   1.301024 A    
O12   C8    1.279326 A    
O1    C1    1.279324 A    
C172  C212  1.391029 A    
C84   C94   1.407796 A    
C1    C265  1.460639 S    
C182  H78   1.084291 S    
C170  C186  1.396024 A    
C264  N40   1.438734 S    
C106  O42   1.349936 S    
C187  C203  1.419819 A    
N36   O120  1.301048 A    
C36   C92   1.418923 A    
C98   N2    1.367763 A    
C237  H85   1.084233 S    
C20   C29   1.418583 A    
C243  H91   1.084232 S    
O63   Zn12  2.000529 S    
C249  C265  1.417842 A    
C87   C95   1.407800 A    
N37   O122  1.301050 A    
C214  C222  1.421245 S    
N32   O112  1.301048 A    
C74   C98   1.401352 A    
C77   C91   1.407796 A    
C228  C276  1.421241 S    
C78   C92   1.407799 A    
C247  H95   1.084231 S    
C221  C229  1.194556 T    
O53   Zn10  2.000533 S    
N2    C154  1.431966 S    
C184  C200  1.396024 A    
C49   C65   1.387740 A    
N35   O117  1.301379 A    
C8    C272  1.460640 S    
C43   C59   1.387740 A    
C210  C218  1.421249 S    
C53   C69   1.387734 A    
C245  C279  1.391795 A    
C234  C274  1.391793 A    
C248  C280  1.391794 A    
C183  C199  1.396023 A    
C53   H13   1.076852 S    
O64   Zn12  2.000533 S    
N19   O86   1.301024 A    
N15   O77   1.301356 A    
C46   H6    1.076850 S    
C121  C157  1.400344 A    
O22   C12   1.282001 A    
C263  N39   1.438732 S    
C26   C50   1.414856 A    
O53   C161  1.286694 A    
O10   C6    1.279326 A    
C259  N35   1.438734 S    
C246  C262  1.396307 A    
C18   C34   1.420155 A    
C110  N8    1.367764 A    
C83   C93   1.407797 A    
C120  C156  1.400343 A    
C138  C150  1.403995 A    
C179  C215  1.391029 A    
C30   C54   1.414856 A    
C19   C43   1.414859 A    
C116  C154  1.400341 A    
O50   C162  1.286693 A    
C59   C75   1.395763 A    
N25   O97   1.301379 A    
C18   C31   1.418583 A    
N38   O124  1.301051 A    
C11   C147  1.464905 S    
C167  C208  1.464746 S    
C99   N1    1.367768 A    
N24   O96   1.301022 A    
C242  H90   1.084235 S    
N3    C155  1.431972 S    
C238  C254  1.396311 A    
C129  C145  1.403997 A    
C140  C150  1.403999 A    
C2    C266  1.460636 S    
C256  N32   1.438730 S    
C141  C151  1.403992 A    
C142  C152  1.403994 A    
C140  H60   1.083035 S    
O31   Zn7   2.019792 S    
C249  N25   1.438734 S    
C181  C215  1.391025 A    
N26   O100  1.301046 A    
C23   C47   1.414861 A    
C258  C270  1.417844 A    
C10   C146  1.464910 S    
C131  C145  1.404001 A    
O13   Zn5   2.002575 S    
C134  H54   1.083039 S    
O61   C165  1.286694 A    
C16   C152  1.464899 S    
C23   C26   1.418583 A    
C185  N9    1.438457 S    
O57   Zn11  2.000532 S    
C123  C139  1.391600 A    
N33   O113  1.301379 A    
O21   C11   1.281998 A    
C194  N18   1.438456 S    
C22   C36   1.420151 A    
C233  C273  1.391794 A    
C217  C225  1.194556 T    
N14   O75   1.301359 A    
C124  H44   1.082905 S    
C215  C223  1.421245 S    
C98   O34   1.349939 S    
C28   C38   1.420152 A    
C79   C103  1.401358 A    
C26   C38   1.420152 A    
C191  N15   1.438455 S    
C30   C40   1.420154 A    
C115  C131  1.391605 A    
C186  N10   1.438454 S    
C172  C188  1.396023 A    
N23   O94   1.301023 A    
O51   Zn9   2.000528 S    
C109  O45   1.349933 S    
O3    Zn3   2.002576 S    
C240  C276  1.391793 A    
N28   O104  1.301049 A    
C124  C158  1.400340 A    
N9    O65   1.301353 A    
C107  O43   1.349938 S    
C54   C70   1.387740 A    
O32   Zn6   2.019792 S    
C3    C267  1.460639 S    
C44   C60   1.387734 A    
C238  C274  1.391791 A    
C77   C101  1.401358 A    
C114  C154  1.400338 A    
C59   H19   1.083502 S    
O28   Zn8   2.019787 S    
C173  C211  1.391027 A    
C253  N29   1.438735 S    
C27   C37   1.420151 A    
C72   H32   1.083500 S    
C56   C72   1.387740 A    
C57   H17   1.083500 S    
C255  C265  1.417837 A    
C213  C221  1.421245 S    
C236  C252  1.396311 A    
C27   C51   1.414859 A    
C131  H51   1.083035 S    
N8    C160  1.431972 S    
C50   C66   1.387740 A    
C66   H26   1.083501 S    
C73   C89   1.407797 A    
O62   Zn12  2.000529 S    
C233  H81   1.084237 S    
C64   H24   1.083504 S    
C88   C96   1.407797 A    
O58   C166  1.286693 A    
O64   C166  1.286694 A    
O9    Zn5   2.002579 S    
N40   O127  1.301382 A    
C121  H41   1.082908 S    
C222  C230  1.194556 T    
O11   Zn7   2.002576 S    
N31   O110  1.301052 A    
C43   H3    1.076850 S    
C225  C273  1.421238 S    
C128  C160  1.400336 A    
C41   H1    1.076852 S    
C170  H66   1.084291 S    
C6    C270  1.460640 S    
C198  N22   1.438457 S    
N27   O102  1.301050 A    
O54   C164  1.286693 A    
C243  C259  1.396307 A    
C122  C158  1.400336 A    
O5    C3    1.279326 A    
C177  C193  1.396023 A    
C39   C95   1.418923 A    
C141  H61   1.083032 S    
C40   C96   1.418923 A    
C61   C77   1.395767 A    
C24   C25   1.418584 A    
C174  C190  1.396024 A    
O7    Zn3   2.002579 S    
C113  H33   1.082908 S    
C247  C263  1.396307 A    
C7    C271  1.460639 S    
C230  C278  1.421238 S    
O14   C6    1.279323 A    
C229  C277  1.421238 S    
C33   C89   1.418923 A    
C189  C203  1.419814 A    
C134  C148  1.404000 A    
C14   C150  1.464899 S    
N22   O92   1.301025 A    
C17   C32   1.418583 A    
O50   Zn9   2.000531 S    
O17   Zn1   2.019787 S    
C72   C88   1.395763 A    
C19   C30   1.418583 A    
C116  H36   1.082912 S    
C239  C255  1.396310 A    
O62   C168  1.286693 A    
C218  C226  1.194553 T    
C32   C40   1.420153 A    
N16   O79   1.301357 A    
O55   C163  1.286693 A    
C24   C48   1.414858 A    
C161  C202  1.464746 S    
C64   C80   1.395768 A    
C101  N3    1.367763 A    
O14   Zn8   2.002576 S    
C112  N8    1.367766 A    
C175  H71   1.084289 S    
C190  C202  1.419819 A    
C189  N13   1.438457 S    
C67   H27   1.083497 S    
N35   O118  1.301048 A    
O52   C164  1.286694 A    
O56   Zn10  2.000533 S    
C262  N38   1.438732 S    
C139  C149  1.404000 A    
C242  C258  1.396307 A    
C143  H63   1.083033 S    
C21   C35   1.420150 A    
C238  H86   1.084233 S    
C246  H94   1.084233 S    
O8    C4    1.279323 A    
C129  H49   1.083038 S    
C22   C27   1.418578 A    
O4    Zn4   2.002579 S    
C119  H39   1.082907 S    
C194  C206  1.419821 A    
N38   O123  1.301382 A    
C136  C148  1.404003 A    
C232  C280  1.421238 S    
C126  C160  1.400340 A    
C254  C266  1.417842 A    
N12   O72   1.301026 A    
C137  H57   1.083036 S    
N31   O109  1.301382 A    
C191  C201  1.419816 A    
C60   H20   1.083505 S    
C171  C187  1.396023 A    
C171  C211  1.391029 A    
N21   O89   1.301361 A    
C65   H25   1.083501 S    
C245  H93   1.084233 S    
O32   C16   1.281998 A    
C181  C197  1.396023 A    
O63   C167  1.286693 A    
C169  H65   1.084291 S    
O1    Zn1   2.002579 S    
C197  C207  1.419816 A    
C168  C205  1.464746 S    
C52   C68   1.387740 A    
N29   O105  1.301379 A    
C130  H50   1.083035 S    
C62   C78   1.395765 A    
C46   C62   1.387740 A    
C183  H79   1.084289 S    
C125  C159  1.400338 A    
O16   C8    1.279323 A    
C115  H35   1.082909 S    
C172  H68   1.084289 S    
O49   Zn9   2.000532 S    
C186  C202  1.419823 A    
N18   O84   1.301024 A    
C246  C278  1.391792 A    
O51   C163  1.286694 A    
N9    O66   1.301027 A    
O25   Zn5   2.019787 S    
O6    C2    1.279323 A    
C97   O33   1.349939 S    
O27   Zn7   2.019787 S    
C184  C216  1.391026 A    
C102  N4    1.367764 A    
C241  H89   1.084239 S    
N34   O115  1.301380 A    
C130  C146  1.404001 A    
C69   H29   1.083503 S    
N39   O125  1.301380 A    
N7    C159  1.431972 S    
C180  C196  1.396023 A    
N13   O73   1.301356 A    
C260  C272  1.417842 A    
C248  H96   1.084232 S    
C142  H62   1.083038 S    
C143  C151  1.403992 A    
C176  C192  1.396024 A    
C38   C94   1.418923 A    
O19   C9    1.282001 A    
C173  H69   1.084291 S    
N11   O69   1.301357 A    
N19   O85   1.301357 A    
O56   C162  1.286694 A    
C166  C207  1.464746 S    
C50   H10   1.076848 S    
C15   C151  1.464899 S    
C24   C36   1.420155 A    
O30   Zn8   2.019792 S    
C118  C134  1.391605 A    
C108  N6    1.367765 A    
C192  N16   1.438456 S    
C100  O36   1.349939 S    
O24   Zn2   2.019792 S    
C117  C155  1.400339 A    
C21   C45   1.414860 A    
C54   H14   1.076847 S    
C179  H75   1.084289 S    
N10   O68   1.301026 A    
C182  C214  1.391025 A    
C83   C107  1.401352 A    
C34   C90   1.418923 A    
C71   C87   1.395766 A    
C17   C41   1.414861 A    
C58   H18   1.083501 S    
C242  C278  1.391796 A    
C57   C73   1.395768 A    
C107  N5    1.367768 A    
C45   C61   1.387734 A    
C123  C157  1.400344 A    
C75   C89   1.407799 A    
C20   C34   1.420151 A    
O18   C10   1.281998 A    
N20   O87   1.301357 A    
C86   C110  1.401352 A    
C195  N19   1.438456 S    
C84   C108  1.401352 A    
N11   O70   1.301022 A    
C80   C92   1.407802 A    
N4    C156  1.431972 S    
C63   C79   1.395765 A    
N5    C157  1.431972 S    
O2    C2    1.279326 A    
C78   C102  1.401352 A    
C44   H4    1.076850 S    
N15   O78   1.301027 A    
C235  H83   1.084235 S    
O4    C4    1.279326 A    
C255  N31   1.438733 S    
C103  O39   1.349933 S    
C13   C149  1.464899 S    
C133  C147  1.403999 A    
C187  N11   1.438458 S    
C200  C208  1.419815 A    
C124  C140  1.391605 A    
C248  C264  1.396311 A    
C181  H77   1.084291 S    
N17   O82   1.301027 A    
C231  C279  1.421238 S    
C239  H87   1.084233 S    
C176  C212  1.391024 A    
C105  O41   1.349937 S    
C20   C44   1.414860 A    
C21   C28   1.418583 A    
C126  H46   1.082907 S    
C41   C57   1.387734 A    
O20   C10   1.282001 A    
C162  C203  1.464746 S    
C120  H40   1.082914 S    
C176  H72   1.084293 S    
C179  C195  1.396023 A    
O10   Zn6   2.002575 S    
C170  C210  1.391030 A    
C223  C231  1.194556 T    
C127  C143  1.391605 A    
O15   C5    1.279326 A    
N30   O107  1.301379 A    
O24   C12   1.281998 A    
C251  N27   1.438734 S    
C262  C270  1.417841 A    
C244  C280  1.391795 A    
C81   C93   1.407797 A    
C247  C277  1.391797 A    
C209  C217  1.421245 S    
C180  C216  1.391030 A    
C185  C201  1.419821 A    
C76   C100  1.401352 A    
C211  C219  1.421245 S    
