data_mof_unit_51962.cif
_audit_creation_date              2012-12-10T16:48:06-0500
_audit_creation_method            fapswitch 2.2
_symmetry_space_group_name_H-M    P1
_symmetry_Int_Tables_number       1
_space_group_crystal_system       triclinic
_cell_length_a                    15.843656
_cell_length_b                    8.693425
_cell_length_c                    7.451885
_cell_angle_alpha                 103.002964
_cell_angle_beta                  93.999925
_cell_angle_gamma                 92.225242
_cell_volume                      996.065006833

loop_
_atom_site_label
_atom_site_type_symbol
_atom_type_description
_atom_site_fract_x
_atom_site_fract_y
_atom_site_fract_z
_atom_type_partial_charge
C1    C     C_R   0.497482 0.199739 0.453273 0.880325
C2    C     C_R   0.502518 0.800261 0.546727 0.880325
C3    C     C_R   0.339992 0.499813 0.502594 0.817852
C4    C     C_R   0.660007 0.500187 0.497406 0.817852
C5    C     C_2   0.496274 0.031847 0.427028 -0.361851
C6    C     C_2   0.503726 0.968153 0.572972 -0.361851
C7    C     C_3   0.973562 0.447759 0.639324 0.478233
C8    C     C_3   0.026438 0.552241 0.360675 0.478234
C9    C     C_3   0.024095 0.350331 0.488557 -0.281042
C10   C     C_3   0.975905 0.649669 0.511443 -0.281039
C11   C     C_1   0.250547 0.500018 0.508008 -0.155756
C12   C     C_1   0.749453 0.499982 0.491992 -0.155756
C13   C     C_3   0.033624 0.595439 0.661033 -0.268118
C14   C     C_3   0.966376 0.404561 0.338967 -0.268121
C15   C     C_3   0.083343 0.499328 0.506777 0.095720
C16   C     C_3   0.916657 0.500671 0.493223 0.095720
C17   C     C_1   0.175027 0.499829 0.509053 0.022877
C18   C     C_1   0.824973 0.500171 0.490947 0.022877
Cu1   Cu    Cu3+1 0.509330 0.517380 0.684380 0.966866
Cu2   Cu    Cu3+1 0.490670 0.482620 0.315620 0.966866
H1    H     H_    0.044485 0.228791 0.483463 0.161747
H2    H     H_    0.955514 0.771208 0.516536 0.161747
H3    H     H_    0.938375 0.329551 0.205742 0.174907
H4    H     H_    0.061625 0.670449 0.794257 0.174907
H5    H     H_    0.489246 0.960282 0.286360 0.180820
H6    H     H_    0.510754 0.039718 0.713639 0.180820
H7    H     H_    0.434442 0.377557 0.948782 0.228099
H8    H     H_    0.565557 0.622443 0.051218 0.228099
N1    N     N_2   0.476600 0.456420 0.038510 -0.213194
N2    N     N_2   0.523400 0.543580 0.961490 -0.213194
O1    O     O_R   0.506070 0.286130 0.619780 -0.584744
O2    O     O_R   0.493930 0.713870 0.380220 -0.584743
O3    O     O_R   0.490300 0.256770 0.308360 -0.585735
O4    O     O_R   0.509700 0.743230 0.691640 -0.585735
O5    O     O_R   0.386960 0.514660 0.655680 -0.584835
O6    O     O_R   0.613040 0.485340 0.344320 -0.584835
O7    O     O_R   0.371190 0.485310 0.344260 -0.567356
O8    O     O_R   0.628810 0.514690 0.655740 -0.567356
O9    O     O_3   0.942986 0.392614 0.786197 -0.731021
H9    H     H_    0.993911 0.366875 0.856396 0.326205
O10   O     O_3   0.057014 0.607387 0.213803 -0.731019
H10   H     H_    0.006088 0.633117 0.143599 0.326206

loop_
_geom_bond_atom_site_label_1
_geom_bond_atom_site_label_2
_ccdc_geom_bond_type
C14   H3    S    
C9    C14   S    
C4    O6    A    
C15   C17   S    
N1    N2    D    
Cu1   O8    S    
H7    N1    S    
O10   H10   S    
Cu1   Cu2   S    
C3    O5    A    
Cu1   O1    S    
C2    O4    A    
H8    N2    S    
C9    C15   S    
C1    O3    A    
C10   C16   S    
Cu1   O5    S    
C10   H2    S    
Cu2   O7    S    
C9    H1    S    
C6    H6    S    
C5    H5    S    
Cu2   O3    S    
C16   C18   S    
C7    C16   S    
C4    O8    A    
C8    C15   S    
C14   C16   S    
Cu2   N1    S    
C13   C15   S    
C1    O1    A    
C5    C6    D    
C1    C5    S    
C4    C12   S    
Cu2   O6    S    
C7    C13   S    
C3    C11   S    
C8    O10   S    
C3    O7    A    
C2    O2    A    
Cu2   O2    S    
C12   C18   T    
O9    H9    S    
C7    C9    S    
C7    O9    S    
C11   C17   T    
C8    C14   S    
Cu1   N2    S    
Cu1   O4    S    
C8    C10   S    
C2    C6    S    
C13   H4    S    
C10   C13   S    
