data_mof_unit_66692.cif
_audit_creation_date              2013-03-05T15:41:26-0500
_audit_creation_method            fapswitch 2.2
_symmetry_space_group_name_H-M    P1
_symmetry_Int_Tables_number       1
_space_group_crystal_system       triclinic
_cell_length_a                    11.644704
_cell_length_b                    18.6904
_cell_length_c                    10.280546
_cell_angle_alpha                 89.808083
_cell_angle_beta                  110.11246
_cell_angle_gamma                 90.321969
_cell_volume                      2101.02145411

loop_
_atom_site_label
_atom_site_type_symbol
_atom_site_description
_atom_site_fract_x
_atom_site_fract_y
_atom_site_fract_z
_atom_type_partial_charge
O1    O     O_R   0.267710 0.668200 0.902110 -0.529880
O2    O     O_R   0.732290 0.331800 0.097890 -0.549098
O3    O     O_R   0.732290 0.168200 0.097890 -0.550285
O4    O     O_R   0.267710 0.831800 0.902110 -0.540542
O5    O     O_R   0.099480 0.674460 0.038850 -0.424684
O6    O     O_R   0.900520 0.325540 0.961150 -0.426620
O7    O     O_R   0.900520 0.174460 0.961150 -0.455768
O8    O     O_R   0.099480 0.825540 0.038850 -0.409355
C1    C     C_R   0.072687 0.646999 0.141409 0.609430
C2    C     C_R   0.918137 0.356652 0.855246 0.591336
C3    C     C_R   0.928955 0.148043 0.859346 0.602795
C4    C     C_R   0.082551 0.856824 0.144240 0.589226
O9    O     O_R   0.116720 0.669210 0.267660 -0.518111
O10   O     O_R   0.883280 0.330790 0.732340 -0.495292
O11   O     O_R   0.883280 0.169210 0.732340 -0.513536
O12   O     O_R   0.116720 0.830790 0.267660 -0.495663
O13   O     O_R   0.366710 0.675440 0.427590 -0.528894
O14   O     O_R   0.633290 0.324560 0.572410 -0.518041
O15   O     O_R   0.633290 0.175440 0.572410 -0.526619
O16   O     O_R   0.366710 0.824560 0.427590 -0.521523
C5    C     C_R   0.469872 0.644751 0.436702 0.570217
C6    C     C_R   0.525882 0.351646 0.557272 0.574286
C7    C     C_R   0.529813 0.144835 0.563339 0.569755
C8    C     C_R   0.474010 0.851874 0.442053 0.573557
O17   O     O_R   0.534870 0.669390 0.371760 -0.414378
O18   O     O_R   0.465130 0.330610 0.628240 -0.441019
O19   O     O_R   0.465130 0.169390 0.628240 -0.420480
O20   O     O_R   0.534870 0.830610 0.371760 -0.446114
O21   O     O_R   0.453080 0.674480 0.075160 -0.486032
O22   O     O_R   0.546920 0.325520 0.924840 -0.455389
O23   O     O_R   0.546920 0.174480 0.924840 -0.501137
O24   O     O_R   0.453080 0.825520 0.075160 -0.465552
C9    C     C_R   0.375186 0.645201 0.967763 0.550732
C10   C     C_R   0.627143 0.357471 0.027538 0.545157
C11   C     C_R   0.650023 0.140690 0.986412 0.599019
C12   C     C_R   0.375599 0.856018 0.968271 0.542153
Cr1   Cr    Cr6+3 0.187610 0.750000 0.979860 1.130261
Cr2   Cr    Cr6+3 0.812390 0.250000 0.020140 1.099054
Cr3   Cr    Cr6+3 0.245810 0.750000 0.341640 1.031991
Cr4   Cr    Cr6+3 0.754190 0.250000 0.658360 1.035290
Cr5   Cr    Cr6+3 0.485760 0.750000 0.219910 1.179074
Cr6   Cr    Cr6+3 0.514240 0.250000 0.780090 1.178663
O25   O     O_3   0.306390 0.750000 0.180470 -0.311128
O26   O     O_3   0.693610 0.250000 0.819530 -0.331595
C13   C     C_R   0.478857 0.419336 0.481301 0.046849
C14   C     C_R   0.500583 0.569849 0.491229 0.032414
C15   C     C_R   0.520730 0.919935 0.516824 0.033334
C16   C     C_R   0.498375 0.070253 0.507802 0.035640
C17   C     C_R   0.280509 0.429098 0.535549 0.277910
C18   C     C_R   0.707304 0.548273 0.442208 0.306876
C19   C     C_R   0.712591 0.930768 0.452729 0.278770
C20   C     C_R   0.290865 0.045637 0.554046 0.309260
C21   C     C_R   0.206259 0.471794 0.586641 0.116458
C22   C     C_R   0.783340 0.495924 0.412368 0.155709
C23   C     C_R   0.782471 0.972889 0.394136 0.114669
C24   C     C_R   0.213241 0.990901 0.575353 0.154306
C25   C     C_R   0.233908 0.544218 0.612592 0.052693
C26   C     C_R   0.743520 0.425214 0.387180 0.081690
C27   C     C_R   0.759020 0.045922 0.375304 0.060372
C28   C     C_R   0.255845 0.921010 0.603336 0.086423
C29   C     C_R   0.337154 0.573283 0.593672 -0.110021
C30   C     C_R   0.622926 0.410001 0.365419 -0.114086
C31   C     C_R   0.659727 0.075392 0.401668 -0.093835
C32   C     C_R   0.378252 0.908767 0.633880 -0.120635
C33   C     C_R   0.409955 0.534310 0.534328 -0.051417
C34   C     C_R   0.558474 0.453555 0.426167 -0.063860
C35   C     C_R   0.587767 0.035723 0.462227 -0.035111
C36   C     C_R   0.442495 0.953223 0.573789 -0.077746
C37   C     C_R   0.389238 0.459571 0.515991 -0.011476
C38   C     C_R   0.589115 0.526803 0.453290 -0.011743
C39   C     C_R   0.607995 0.961035 0.479147 -0.001182
C40   C     C_R   0.410569 0.026132 0.546012 -0.016254
H1    H     H_    0.360260 0.627764 0.627652 0.126574
H2    H     H_    0.589140 0.356614 0.330797 0.137439
H3    H     H_    0.638537 0.130490 0.371450 0.138302
H4    H     H_    0.413336 0.855933 0.670385 0.130376
C41   C     C_2   0.400859 0.930995 0.947589 0.137521
C42   C     C_2   0.637153 0.063906 0.981701 0.053536
C43   C     C_2   0.608507 0.434150 0.037000 0.128218
C44   C     C_2   0.384802 0.569801 0.969099 0.079152
C45   C     C_2   0.517821 0.954232 0.986586 0.134745
C46   C     C_2   0.546249 0.031411 0.014436 0.106859
C47   C     C_2   0.496235 0.461052 0.971026 0.143510
C48   C     C_2   0.479366 0.538288 0.946983 0.090827
C49   C     C_2   0.049223 0.933352 0.132728 -0.103515
C50   C     C_2   0.000524 0.082139 0.883082 -0.004851
C51   C     C_2   0.952278 0.433061 0.863967 -0.100802
C52   C     C_2   0.008213 0.578161 0.119768 -0.025891
C53   C     C_2   0.011189 0.969302 0.011981 0.145576
C54   C     C_2   0.033953 0.048178 0.004819 0.181494
C55   C     C_2   0.998166 0.468529 0.983764 0.148278
C56   C     C_2   0.971508 0.546285 0.995808 0.184211
H5    H     H_    0.996531 0.053680 0.791663 0.090909
H6    H     H_    0.080194 0.962545 0.229393 0.154083
H7    H     H_    0.021672 0.546953 0.211909 0.090414
H8    H     H_    0.915574 0.462415 0.767782 0.150371
N1    N     N_3   0.103802 0.439847 0.614534 -0.522520
H9    H     H_    0.136864 0.403604 0.696316 0.250193
H10   H     H_    0.051833 0.476953 0.645115 0.269881
N2    N     N_3   0.898123 0.516543 0.399199 -0.525200
H11   H     H_    0.877737 0.549907 0.312630 0.251530
H12   H     H_    0.945820 0.473689 0.378861 0.287317
N3    N     N_3   0.882639 0.940951 0.362837 -0.532425
H13   H     H_    0.848407 0.901699 0.287364 0.249633
H14   H     H_    0.929991 0.977287 0.323192 0.261659
N4    N     N_3   0.094290 0.008036 0.578860 -0.517142
H15   H     H_    0.108940 0.040696 0.665014 0.240363
H16   H     H_    0.048499 0.963456 0.597462 0.301754
N5    N     N_3   0.152819 0.589299 0.652212 -0.527564
H17   H     H_    0.177516 0.643162 0.652500 0.252987
H18   H     H_    0.157397 0.574480 0.751689 0.269114
N6    N     N_3   0.828308 0.367925 0.399803 -0.540606
H19   H     H_    0.786238 0.318094 0.397241 0.231600
H20   H     H_    0.857236 0.369551 0.315180 0.290722
N7    N     N_3   0.843407 0.091271 0.340851 -0.521080
H21   H     H_    0.821887 0.145258 0.344775 0.258210
H22   H     H_    0.839245 0.078074 0.240971 0.275058
N8    N     N_3   0.173172 0.861817 0.586680 -0.550798
H23   H     H_    0.215554 0.813620 0.578926 0.231528
H24   H     H_    0.150917 0.858130 0.675524 0.288415
S1    S     S_3+6 0.223096 0.340633 0.486453 0.116358
O27   O     O_2   0.272997 0.311542 0.380698 -0.218088
O28   O     O_2   0.260936 0.296044 0.615392 -0.209423
O29   O     O_3   0.070712 0.334226 0.426774 -0.463752
H25   H     H_    0.052813 0.284917 0.390002 0.376645
S2    S     S_3+6 0.772789 0.635644 0.465081 0.111429
O30   O     O_2   0.729985 0.668319 0.322618 -0.268034
O31   O     O_2   0.733095 0.677870 0.565784 -0.184302
O32   O     O_3   0.926025 0.638041 0.519928 -0.450406
H26   H     H_    0.947431 0.682043 0.479180 0.360403
S3    S     S_3+6 0.775068 0.844488 0.509736 0.107457
O33   O     O_2   0.726650 0.814863 0.616882 -0.218268
O34   O     O_2   0.741158 0.797906 0.384023 -0.217070
O35   O     O_3   0.927300 0.843910 0.571325 -0.469036
H27   H     H_    0.949181 0.794187 0.603687 0.378581
S4    S     S_3+6 0.226685 0.132968 0.537127 0.108738
O36   O     O_2   0.272392 0.164507 0.680376 -0.270537
O37   O     O_2   0.265383 0.176262 0.436257 -0.169622
O38   O     O_3   0.073461 0.136062 0.485161 -0.458026
H28   H     H_    0.054106 0.177593 0.533535 0.360960
N9    N     N_3   0.471699 0.071466 0.075216 -0.561335
H29   H     H_    0.408082 0.101448 0.997846 0.305537
H30   H     H_    0.525541 0.107281 0.148471 0.234411
N10   N     N_3   0.614840 0.902551 0.018633 -0.604099
H31   H     H_    0.689578 0.921061 0.100597 0.225117
H32   H     H_    0.638833 0.893645 0.931125 0.258877
N11   N     N_3   0.567814 0.579111 0.907580 -0.552875
H33   H     H_    0.614481 0.613424 0.988916 0.292754
H34   H     H_    0.523642 0.610567 0.821232 0.220847
N12   N     N_3   0.391510 0.414061 0.920424 -0.590136
H35   H     H_    0.320450 0.439227 0.844271 0.216094
H36   H     H_    0.363928 0.398106 0.002727 0.258622
N13   N     N_3   0.709284 0.027800 0.915111 -0.623470
H37   H     H_    0.770356 0.994004 0.986278 0.249959
H38   H     H_    0.651610 0.999713 0.829635 0.271520
N14   N     N_3   0.301468 0.980793 0.918577 -0.621336
H39   H     H_    0.273453 0.981430 0.004899 0.268604
H40   H     H_    0.227362 0.961208 0.837418 0.246608
N15   N     N_3   0.310258 0.534291 0.035742 -0.591702
H41   H     H_    0.241283 0.504208 0.964930 0.238966
H42   H     H_    0.365241 0.503650 0.118843 0.275963
N16   N     N_3   0.713801 0.480648 0.076531 -0.618463
H43   H     H_    0.742024 0.484685 0.990679 0.273232
H44   H     H_    0.786327 0.456234 0.152241 0.238393
S5    S     S_3+6 0.124160 0.098058 0.149141 0.024154
O39   O     O_2   0.043428 0.118355 0.228821 -0.241333
O40   O     O_2   0.230679 0.054836 0.238281 -0.303055
O41   O     O_3   0.177710 0.172509 0.096395 -0.484086
H45   H     H_    0.172044 0.210757 0.160254 0.416149
S6    S     S_3+6 0.928052 0.922084 0.860266 -0.003519
O42   O     O_2   0.022402 0.896892 0.803072 -0.305107
O43   O     O_2   0.862411 0.858773 0.892925 -0.228662
O44   O     O_3   0.825130 0.973559 0.744251 -0.546371
H46   H     H_    0.860473 0.983038 0.671442 0.357016
S7    S     S_3+6 0.877915 0.597764 0.855239 0.022058
O45   O     O_2   0.956773 0.623699 0.776541 -0.221318
O46   O     O_2   0.772430 0.554471 0.762943 -0.314180
O47   O     O_3   0.822521 0.668580 0.915191 -0.501840
H47   H     H_    0.794321 0.702390 0.836338 0.412447
S8    S     S_3+6 0.096161 0.422320 0.128629 -0.002634
O48   O     O_2   0.016933 0.401604 0.209778 -0.297237
O49   O     O_2   0.148351 0.356362 0.087205 -0.234232
O50   O     O_3   0.212404 0.474352 0.223740 -0.550961
H48   H     H_    0.188977 0.492133 0.301083 0.345384

loop_
_geom_bond_atom_site_label_1
_geom_bond_atom_site_label_2
_geom_bond_distance
_ccdc_geom_bond_type
C26   C30   1.372150 A    
O4    C12   1.286038 A    
S2    O30   1.503940 D    
O23   Cr6   1.988499 S    
C23   C27   1.393353 A    
N11   H33   1.045447 S    
C44   C48   1.338488 D    
S3    O35   1.664848 S    
N6    H20   1.035613 S    
N1    H9    1.044261 S    
O1    C9    1.276644 A    
S7    O46   1.502097 D    
O44   H46   0.985488 S    
O7    C3    1.300935 A    
S5    O39   1.494791 D    
C19   C39   1.453796 A    
C4    C49   1.477851 S    
C47   C48   1.466619 S    
C26   N6    1.435622 S    
C32   C36   1.392509 A    
N14   H39   1.045615 S    
N11   H34   1.041213 S    
C49   C53   1.344701 D    
C53   S6    1.763502 S    
N16   H43   1.044728 S    
O5    Cr1   1.954573 S    
C12   C41   1.460099 S    
N9    H30   1.040328 S    
C1    C52   1.464488 S    
C17   C21   1.408245 A    
S6    O42   1.492141 D    
C3    C50   1.463215 S    
N7    H21   1.045301 S    
O21   C9    1.284901 A    
O20   Cr5   2.103835 S    
O13   Cr3   1.965470 S    
O14   Cr4   1.965468 S    
N8    H23   1.045911 S    
S1    O29   1.669992 S    
C1    O9    1.289726 A    
C3    O11   1.290557 A    
C45   N10   1.439478 S    
C25   N5    1.429414 S    
C4    O12   1.286788 A    
O3    Cr2   2.082040 S    
N7    H22   1.041576 S    
O24   Cr5   1.988497 S    
O6    Cr2   1.954572 S    
C28   N8    1.433897 S    
C18   S2    1.780092 S    
O47   H47   0.990013 S    
C7    O19   1.254874 A    
O8    C4    1.306548 A    
N13   H38   1.045012 S    
C19   C23   1.404097 A    
S8    O50   1.677923 S    
O1    Cr1   2.093637 S    
C47   N12   1.443567 S    
O2    C10   1.283643 A    
C52   H7    1.075779 S    
S5    O40   1.501839 D    
C17   C37   1.460847 A    
C51   H8    1.081576 S    
Cr5   O25   1.986120 S    
C22   N2    1.439328 S    
Cr6   O26   1.986120 S    
C16   C40   1.464362 A    
C46   N9    1.444995 S    
N6    H19   1.046085 S    
N1    H10   1.040708 S    
S8    O49   1.503458 D    
Cr2   O26   2.050543 S    
C45   C46   1.484794 S    
S7    O47   1.684129 S    
N16   H44   1.037855 S    
C56   S7    1.766705 S    
C31   C35   1.410025 A    
C2    C51   1.474992 S    
C14   C38   1.466365 A    
C51   C55   1.338156 D    
O22   C10   1.289828 A    
C13   C37   1.431202 A    
C52   C56   1.337642 D    
C14   C33   1.436315 A    
N10   H32   1.043784 S    
C50   C54   1.335355 D    
O17   Cr5   2.100948 S    
C55   C56   1.502155 S    
O16   Cr3   1.958435 S    
C30   C34   1.395916 A    
S4    O36   1.504252 D    
C44   N15   1.436276 S    
Cr3   O25   2.011680 S    
S2    O32   1.676690 S    
C29   H1    1.079799 S    
O13   C5    1.308003 A    
C24   C28   1.393518 A    
S4    O38   1.678597 S    
Cr1   O25   2.050543 S    
O15   C7    1.305056 A    
O50   H48   0.984411 S    
O5    C1    1.301257 A    
C20   C40   1.472363 A    
C50   H5    1.068364 S    
C10   C43   1.459257 S    
C49   H6    1.081795 S    
C42   C46   1.356121 D    
N15   H41   1.042472 S    
O3    C11   1.318675 A    
C36   C40   1.416605 A    
C17   S1    1.787933 S    
C55   S8    1.760616 S    
N2    H12   1.039094 S    
C32   H4    1.086042 S    
N3    H14   1.039179 S    
C18   C22   1.426163 A    
N4    H15   1.041513 S    
C23   N3    1.444865 S    
C24   N4    1.435937 S    
S1    O27   1.502442 D    
S4    O37   1.498297 D    
O41   H45   0.989887 S    
S5    O41   1.684325 S    
C54   S5    1.760787 S    
C2    O10   1.282230 A    
C20   S4    1.781971 S    
N12   H36   1.045047 S    
O8    Cr1   1.965806 S    
C15   C39   1.425708 A    
C43   N16   1.439268 S    
S3    O33   1.502442 D    
C53   C54   1.502445 S    
O24   C12   1.290824 A    
C15   C36   1.391315 A    
C13   C34   1.393611 A    
S1    O28   1.496944 D    
S8    O48   1.490042 D    
O18   Cr6   2.100947 S    
C5    C14   1.504820 S    
C22   C26   1.393386 A    
C48   N11   1.443296 S    
C5    O17   1.253884 A    
S2    O31   1.499005 D    
C7    C16   1.502989 S    
O21   Cr5   1.992534 S    
O14   C6    1.310562 A    
C8    C15   1.488713 S    
O22   Cr6   1.992534 S    
C8    O20   1.240857 A    
N10   H31   1.039891 S    
S3    O34   1.495635 D    
C21   C25   1.394865 A    
O6    C2    1.309049 A    
O38   H28   0.991111 S    
C9    C44   1.413972 S    
C25   C29   1.389664 A    
O35   H27   0.990746 S    
C11   C42   1.441324 S    
C27   C31   1.391909 A    
C28   C32   1.370426 A    
C21   N1    1.445105 S    
O2    Cr2   2.093636 S    
N5    H18   1.042212 S    
N15   H42   1.045205 S    
O32   H26   0.990552 S    
C41   N14   1.437925 S    
S7    O45   1.495361 D    
N9    H29   1.044956 S    
C43   C47   1.348095 D    
C42   N13   1.426358 S    
O19   Cr6   2.103837 S    
C34   C38   1.417030 A    
N4    H16   1.038862 S    
C33   C37   1.418381 A    
O23   C11   1.313074 A    
N14   H40   1.038344 S    
N2    H11   1.043998 S    
O7    Cr2   1.965807 S    
C35   C39   1.417156 A    
C16   C35   1.436877 A    
C18   C38   1.472908 A    
C31   H3    1.079754 S    
N8    H24   1.033594 S    
O11   Cr4   2.085606 S    
O9    Cr3   2.077046 S    
O15   Cr4   1.958436 S    
O12   Cr3   2.085605 S    
O10   Cr4   2.077044 S    
C29   C33   1.409633 A    
Cr4   O26   2.011681 S    
C6    C13   1.489135 S    
O4    Cr1   2.082038 S    
C27   N7    1.427397 S    
C41   C45   1.350316 D    
C6    O18   1.239861 A    
C19   S3    1.785198 S    
N3    H13   1.042575 S    
N12   H35   1.036953 S    
C30   H2    1.085720 S    
S6    O43   1.503624 D    
N13   H37   1.041223 S    
N5    H17   1.045161 S    
O16   C8    1.307473 A    
C20   C24   1.426851 A    
O29   H25   0.990802 S    
S6    O44   1.675336 S    
