data_mof_unit_57099.cif
_audit_creation_date              2013-03-05T15:55:04-0500
_audit_creation_method            fapswitch 2.2
_symmetry_space_group_name_H-M    P1
_symmetry_Int_Tables_number       1
_space_group_crystal_system       triclinic
_cell_length_a                    14.816985
_cell_length_b                    14.877201
_cell_length_c                    14.875733
_cell_angle_alpha                 109.37433
_cell_angle_beta                  109.889454
_cell_angle_gamma                 109.128346
_cell_volume                      2524.86360943

loop_
_atom_site_label
_atom_site_type_symbol
_atom_site_description
_atom_site_fract_x
_atom_site_fract_y
_atom_site_fract_z
_atom_type_partial_charge
C1    C     C_R   0.186312 0.278864 0.257771 -0.110789
H1    H     H_    0.126361 0.303479 0.259686 0.111499
N1    N     N_R   0.291070 0.347930 0.293870 -0.042327
C2    C     C_R   0.522308 0.429749 0.743057 -0.152668
H2    H     H_    0.547808 0.370069 0.744182 0.113920
N2    N     N_R   0.554050 0.497220 0.706150 -0.047095
C3    C     C_R   0.508434 0.203404 0.408028 -0.153100
H3    H     H_    0.489318 0.156968 0.324337 0.104152
N3    N     N_R   0.497240 0.291100 0.443210 -0.041101
C4    C     C_R   0.291255 0.597898 0.589455 -0.054477
H4    H     H_    0.324856 0.658842 0.673672 0.076290
N4    N     N_R   0.347890 0.554050 0.556810 -0.041422
C5    C     C_R   0.596827 0.290374 0.590428 -0.099396
H5    H     H_    0.654142 0.319944 0.675281 0.103012
N5    N     N_R   0.554050 0.347900 0.556830 -0.044011
C6    C     C_R   0.199667 0.504528 0.407106 -0.149538
H6    H     H_    0.147874 0.475520 0.321440 0.120158
N6    N     N_R   0.291070 0.497250 0.443190 -0.041776
C7    C     C_R   0.435320 0.527011 0.750890 -0.083170
H7    H     H_    0.384857 0.562057 0.764989 0.133510
N7    N     N_R   0.497240 0.554030 0.706140 -0.055524
C8    C     C_R   0.276807 0.185231 0.251717 -0.134845
H8    H     H_    0.298740 0.121577 0.241185 0.092149
N8    N     N_R   0.347890 0.291110 0.293870 -0.039310
C9    C     C_R   0.173707 0.175187 0.229015 0.071553
C10   C     C_R   0.448047 0.446506 0.773036 0.126740
C11   C     C_R   0.570727 0.199851 0.497930 0.106188
C12   C     C_R   0.198263 0.570602 0.496788 0.069990
C13   C     C_R   0.471692 0.720474 0.405939 -0.143673
H9    H     H_    0.442250 0.696331 0.320248 0.111342
N9    N     N_R   0.445950 0.652100 0.443170 -0.042419
C14   C     C_R   0.815488 0.566222 0.593068 -0.068929
H10   H     H_    0.878189 0.616300 0.678847 0.116538
N10   N     N_R   0.708930 0.502750 0.556810 -0.041279
C15   C     C_R   0.496555 0.404412 0.196734 -0.164914
H11   H     H_    0.516613 0.340691 0.168745 0.104288
N11   N     N_R   0.502760 0.445970 0.293860 -0.041448
C16   C     C_R   0.707967 0.799888 0.803579 -0.142922
H12   H     H_    0.671268 0.846562 0.831902 0.085778
N12   N     N_R   0.652110 0.708890 0.706130 -0.043450
C17   C     C_R   0.802343 0.711143 0.804319 -0.128702
H13   H     H_    0.855398 0.679732 0.833377 0.098047
N13   N     N_R   0.708930 0.652070 0.706130 -0.046016
C18   C     C_R   0.405301 0.496291 0.194881 -0.142151
H14   H     H_    0.344112 0.519369 0.164963 0.096029
N14   N     N_R   0.445950 0.502780 0.293850 -0.040917
C19   C     C_R   0.562952 0.815399 0.590394 -0.137425
H15   H     H_    0.615794 0.880398 0.675062 0.149982
N15   N     N_R   0.502760 0.708900 0.556790 -0.047733
C20   C     C_R   0.723403 0.476509 0.408907 -0.115239
H16   H     H_    0.701141 0.445496 0.323515 0.093574
N16   N     N_R   0.652110 0.445950 0.443190 -0.041738
Ni1   Ni    Ni4+2 0.369690 0.500010 0.369700 0.217065
Ni2   Ni    Ni4+2 0.630310 0.499990 0.630300 0.231575
Ni3   Ni    Ni4+2 0.500000 0.369720 0.369720 0.214688
Ni4   Ni    Ni4+2 0.500000 0.630280 0.630280 0.213022
C21   C     C_R   0.544863 0.824220 0.496228 0.082799
C22   C     C_R   0.827282 0.555127 0.501738 0.046290
C23   C     C_R   0.436647 0.435094 0.132509 0.116292
C24   C     C_R   0.803836 0.804965 0.867472 0.089537
H17   H     H_    0.016956 0.485122 0.013425 0.117078
C25   C     C_R   0.100879 0.602505 0.186142 -0.124203
H18   H     H_    0.164003 0.661592 0.182859 0.117280
C26   C     C_R   0.102477 0.625937 0.285964 -0.155004
H19   H     H_    0.167439 0.703488 0.359575 0.115538
C27   C     C_R   0.020888 0.549141 0.290726 0.112403
C28   C     C_R   0.936933 0.449380 0.193749 -0.176740
H20   H     H_    0.873443 0.388981 0.195599 0.119592
C29   C     C_R   0.935849 0.426338 0.094162 -0.106604
H21   H     H_    0.871589 0.349102 0.019936 0.154154
C30   C     C_R   0.017781 0.502833 0.090432 -0.086426
C31   C     C_R   0.929037 0.568696 0.400716 -0.227870
H22   H     H_    0.853553 0.532975 0.324351 0.121361
C32   C     C_R   0.931207 0.604754 0.501560 0.059188
C33   C     C_R   0.034857 0.672488 0.599941 0.043664
C34   C     C_R   0.126552 0.669248 0.596380 -0.196869
H23   H     H_    0.204073 0.712865 0.672817 0.117916
C35   C     C_R   0.117565 0.608696 0.495578 0.047571
C36   C     C_R   0.023248 0.574419 0.396822 0.033738
C37   C     C_R   0.011162 0.826687 0.700174 -0.169941
H24   H     H_    0.963289 0.820113 0.622338 0.122033
C38   C     C_R   0.035245 0.910680 0.797817 -0.067072
H25   H     H_    0.005977 0.967793 0.794679 0.152168
C39   C     C_R   0.099137 0.922439 0.899302 -0.069881
H26   H     H_    0.118922 0.988694 0.974764 0.135029
C40   C     C_R   0.138067 0.849226 0.903297 -0.150373
H27   H     H_    0.187047 0.858085 0.982034 0.115852
C41   C     C_R   0.115317 0.765700 0.805819 -0.148843
H28   H     H_    0.147192 0.710406 0.810243 0.143448
C42   C     C_R   0.052078 0.754198 0.703331 0.094024
C43   C     C_R   0.459914 0.352685 0.882177 0.135737
C44   C     C_R   0.403935 0.396010 0.829076 -0.123769
C45   C     C_R   0.322008 0.409288 0.851723 0.333055
C46   C     C_R   0.324921 0.412894 0.948749 -0.321823
H29   H     H_    0.271630 0.435295 0.974216 0.178994
C47   C     C_R   0.403251 0.396437 0.016618 -0.017569
C48   C     C_R   0.458476 0.351885 0.973751 0.167747
C49   C     C_3   0.575715 0.376423 0.028457 -0.511517
C50   C     C_3   0.578345 0.378524 0.928910 -0.481418
H30   H     H_    0.632009 0.457925 0.105030 0.199044
H31   H     H_    0.582233 0.306672 0.036142 0.191506
H32   H     H_    0.636405 0.461633 0.949296 0.199512
H33   H     H_    0.587579 0.310580 0.880273 0.198701
C51   C     C_R   0.528333 0.920316 0.390456 0.170480
C52   C     C_R   0.585244 0.923081 0.488690 0.008631
C53   C     C_R   0.672617 0.024659 0.580701 -0.233756
H34   H     H_    0.726458 0.027313 0.653312 0.191316
C54   C     C_R   0.685120 0.122997 0.581041 -0.105733
C55   C     C_R   0.603415 0.115919 0.489821 -0.045102
C56   C     C_R   0.536741 0.015119 0.391151 0.169598
C57   C     C_3   0.416555 0.958510 0.306474 -0.517233
C58   C     C_3   0.407575 0.854574 0.305879 -0.522699
H35   H     H_    0.367760 0.987008 0.338901 0.202472
H36   H     H_    0.403891 0.955348 0.227156 0.187507
H37   H     H_    0.354212 0.824122 0.338478 0.198876
H38   H     H_    0.389736 0.791893 0.226201 0.193474
C59   C     C_R   0.967229 0.070000 0.134206 0.188727
C60   C     C_R   0.069301 0.073243 0.174733 0.059892
C61   C     C_R   0.067138 0.971765 0.139547 -0.221182
H39   H     H_    0.141198 0.966973 0.174948 0.128237
C62   C     C_R   0.973440 0.877838 0.044287 -0.188898
H40   H     H_    0.979243 0.804639 0.011641 0.131381
C63   C     C_R   0.881991 0.885416 0.984402 0.053462
C64   C     C_R   0.876476 0.979006 0.038531 0.068401
C65   C     C_3   0.828016 0.045505 0.006571 -0.303955
C66   C     C_3   0.928702 0.145787 0.111688 -0.593998
H41   H     H_    0.750098 0.028377 0.008841 0.135971
H42   H     H_    0.982252 0.202979 0.095446 0.206815
H43   H     H_    0.907944 0.185604 0.173285 0.198967
N17   N     N_R   0.240557 0.424100 0.781396 0.230898
O1    O     O_R   0.194285 0.474831 0.820305 -0.416332
O2    O     O_R   0.201945 0.374615 0.675438 -0.396801
C67   C     C_2   0.781809 0.228786 0.676059 1.012702
O3    O     O_2   0.818654 0.307609 0.663806 -0.635227
O4    O     O_R   0.834190 0.237109 0.778718 -0.790838
H44   H     H_    0.900827 0.312446 0.836115 0.318558
C68   C     C_2   0.824039 0.052312 0.906617 1.071026
O5    O     O_2   0.751298 0.064478 0.851450 -0.664551
O6    O     O_R   0.905395 0.049882 0.880123 -0.814509
H45   H     H_    0.894327 0.057776 0.812634 0.316507

loop_
_geom_bond_atom_site_label_1
_geom_bond_atom_site_label_2
_geom_bond_distance
_ccdc_geom_bond_type
C6    C12   1.381556 A    
C50   H33   1.112072 S    
C45   C46   1.411616 A    
C17   H13   1.080168 S    
C21   C52   1.453302 S    
C7    H7    1.079138 S    
C14   C22   1.391124 A    
C9    C60   1.464672 S    
C48   C49   1.496173 S    
O4    H44   1.013070 S    
C19   N15   1.341906 A    
N8    Ni3   1.840447 S    
C27   C36   1.481066 S    
C68   O6    1.397175 S    
C13   H9    1.076749 S    
C15   N11   1.325862 A    
C59   C64   1.375819 A    
N2    Ni2   1.849164 S    
C31   C36   1.392706 A    
C1    N1    1.332278 A    
C16   H12   1.079168 S    
C40   C41   1.399224 A    
C53   H34   1.081411 S    
C18   C23   1.383965 A    
C10   C44   1.466600 S    
C49   C50   1.504840 S    
C3    C11   1.371939 A    
C54   C55   1.421947 A    
C15   C23   1.373648 A    
C1    H1    1.071209 S    
C29   C30   1.397941 A    
C7    C10   1.395029 A    
C60   C61   1.409544 A    
C38   C39   1.396324 A    
C25   C26   1.397977 A    
N6    Ni1   1.848991 S    
C56   C57   1.501387 S    
N12   N13   1.374694 A    
C15   H11   1.080427 S    
C6    H6    1.073211 S    
N12   Ni4   1.840446 S    
C8    C9    1.391391 A    
C20   N16   1.337259 A    
N3    Ni3   1.847244 S    
C12   C35   1.479015 S    
C59   C66   1.500538 S    
C33   C42   1.482408 S    
N16   Ni3   1.840321 S    
H17   C30   1.081647 S    
C27   C28   1.407035 A    
C5    H5    1.079529 S    
C1    C9    1.384201 A    
C17   N13   1.340558 A    
N1    N8    1.374695 A    
C46   H29   1.081806 S    
N9    N15   1.377504 A    
C51   C52   1.395385 A    
C43   C48   1.373547 A    
C18   N14   1.343060 A    
C61   C62   1.401547 A    
C32   C33   1.412049 A    
C13   C21   1.377951 A    
C28   H20   1.083128 S    
C20   C22   1.395122 A    
N5    Ni2   1.853204 S    
C63   C64   1.403287 A    
C34   H23   1.080114 S    
C31   C32   1.400401 A    
C43   C44   1.403483 A    
C51   C58   1.498652 S    
C40   H27   1.082802 S    
C31   H22   1.081309 S    
C66   H43   1.111808 S    
C65   C68   1.506250 S    
N2    N7    1.374453 A    
N9    Ni1   1.853204 S    
C28   C29   1.398455 A    
C26   C27   1.406615 A    
C24   C63   1.462503 S    
N17   O2    1.301617 A    
C33   C34   1.393277 A    
C25   H18   1.081951 S    
C19   C21   1.393151 A    
N13   Ni2   1.853035 S    
C19   H15   1.076667 S    
O6    H45   1.013625 S    
C47   C48   1.394836 A    
C20   H16   1.077763 S    
C57   H35   1.112508 S    
C39   H26   1.081782 S    
C46   C47   1.406840 A    
C62   H40   1.080757 S    
N4    Ni4   1.840321 S    
C4    N4    1.338432 A    
C16   C24   1.374876 A    
C2    N2    1.327440 A    
C41   C42   1.407641 A    
N10   Ni2   1.848993 S    
C49   H30   1.112556 S    
C5    N5    1.344514 A    
C67   O3    1.223256 D    
C8    N8    1.338546 A    
C51   C56   1.370826 A    
C23   C47   1.457026 S    
C45   N17   1.437953 S    
N15   Ni4   1.847243 S    
C58   H38   1.111886 S    
C18   H14   1.081103 S    
C22   C32   1.474875 S    
C67   O4    1.398193 S    
C52   C53   1.404614 A    
C4    C12   1.390382 A    
C3    N3    1.323412 A    
C66   H42   1.111886 S    
C57   C58   1.504666 S    
C7    N7    1.340845 A    
C35   C36   1.417813 A    
C5    C11   1.386969 A    
C17   C24   1.388154 A    
C34   C35   1.402512 A    
C37   H24   1.083477 S    
N7    Ni4   1.847239 S    
C2    C10   1.382631 A    
C61   H39   1.081466 S    
C49   H31   1.111800 S    
C68   O5    1.221656 D    
N10   N16   1.377503 A    
C14   H10   1.074910 S    
N17   O1    1.301524 A    
N3    N5    1.377503 A    
C54   C67   1.481845 S    
C13   N9    1.322937 A    
C55   C56   1.400460 A    
C26   H19   1.083278 S    
C16   N12   1.329075 A    
N1    Ni1   1.853035 S    
C65   C66   1.517503 S    
C53   C54   1.411213 A    
N14   Ni1   1.849164 S    
C44   C45   1.420350 A    
C37   C38   1.396227 A    
C25   C30   1.397078 A    
C57   H36   1.111910 S    
C37   C42   1.405512 A    
C29   H21   1.082565 S    
C62   C63   1.409868 A    
C3    H3    1.081033 S    
C4    H4    1.079622 S    
N11   Ni3   1.847238 S    
C2    H2    1.075535 S    
C50   H32   1.112394 S    
C41   H28   1.083287 S    
C11   C55   1.464410 S    
C6    N6    1.331936 A    
C38   H25   1.079931 S    
N4    N6    1.377503 A    
C65   H41   1.112821 S    
C8    H8    1.079282 S    
C39   C40   1.397847 A    
C43   C50   1.503636 S    
N11   N14   1.374450 A    
C59   C60   1.402006 A    
C58   H37   1.112427 S    
C14   N10   1.334536 A    
C64   C65   1.505228 S    
