data_mof_unit_63931.cif
_audit_creation_date              2012-12-10T19:01:57-0500
_audit_creation_method            fapswitch 2.2
_symmetry_space_group_name_H-M    P1
_symmetry_Int_Tables_number       1
_space_group_crystal_system       triclinic
_cell_length_a                    24.414415
_cell_length_b                    24.42342
_cell_length_c                    25.816721
_cell_angle_alpha                 89.859253
_cell_angle_beta                  89.55031
_cell_angle_gamma                 89.980403
_cell_volume                      15393.5636727

loop_
_atom_site_label
_atom_site_type_symbol
_atom_type_description
_atom_site_fract_x
_atom_site_fract_y
_atom_site_fract_z
_atom_type_partial_charge
C1    C     C_R   0.228575 0.271032 0.250270 -0.253063
C2    C     C_R   0.228140 0.730328 0.252772 -0.252969
C3    C     C_R   0.394859 0.105270 0.750182 0.964049
C4    C     C_R   0.894497 0.394933 0.249791 0.987806
C5    C     C_R   0.105206 0.605204 0.749822 0.990443
C6    C     C_R   0.394875 0.105132 0.250066 0.992910
C7    C     C_R   0.605123 0.894836 0.749958 0.943177
C8    C     C_R   0.894884 0.605160 0.750038 0.977097
C9    C     C_R   0.105119 0.394833 0.249962 0.964931
C10   C     C_R   0.394713 0.894912 0.750018 0.978993
C11   C     C_R   0.605067 0.105188 0.249700 0.970265
C12   C     C_R   0.105270 0.394826 0.749982 1.011052
C13   C     C_R   0.728795 0.771314 0.749883 -0.251327
C14   C     C_R   0.894753 0.605202 0.250055 1.001053
C15   C     C_R   0.605084 0.105216 0.749952 0.987100
C16   C     C_R   0.394962 0.894925 0.250163 0.960519
C17   C     C_R   0.241896 0.325043 0.263529 0.623371
C18   C     C_R   0.758001 0.674773 0.736782 0.623368
C19   C     C_R   0.256518 0.828095 0.249127 0.629114
C20   C     C_R   0.716523 0.199548 0.795861 0.616734
C21   C     C_R   0.825316 0.742158 0.236599 0.624233
C22   C     C_R   0.198461 0.281866 0.795345 0.621783
C23   C     C_R   0.742188 0.174463 0.239233 0.624383
C24   C     C_R   0.271069 0.228522 0.250281 -0.246853
C25   C     C_R   0.281709 0.800788 0.794993 0.628169
C26   C     C_R   0.824968 0.257945 0.763936 0.621494
C27   C     C_R   0.191746 0.727168 0.211182 0.626154
C28   C     C_R   0.717216 0.800671 0.795303 0.626398
C29   C     C_R   0.299892 0.216870 0.295806 0.628018
C30   C     C_R   0.174217 0.742385 0.762348 0.618711
C31   C     C_R   0.804501 0.279352 0.203915 0.620698
C32   C     C_R   0.257598 0.174462 0.762526 0.626841
C33   C     C_R   0.717593 0.800564 0.204390 0.631249
C34   C     C_R   0.699603 0.782573 0.704486 0.626678
C35   C     C_R   0.228459 0.729115 0.749199 -0.253166
C36   C     C_R   0.283039 0.199591 0.204701 0.619937
C37   C     C_R   0.757738 0.325572 0.737525 0.618348
C38   C     C_R   0.223688 0.692960 0.293901 0.620999
C39   C     C_R   0.325741 0.242412 0.738086 0.622614
C40   C     C_R   0.699233 0.782755 0.295496 0.631603
C41   C     C_R   0.242091 0.675106 0.735899 0.621906
C42   C     C_R   0.775443 0.305663 0.290434 0.628719
C43   C     C_R   0.326257 0.757477 0.256183 0.623206
C44   C     C_R   0.699656 0.217787 0.704847 0.629332
C45   C     C_R   0.174629 0.257763 0.236837 0.623591
C46   C     C_R   0.769659 0.272151 0.246828 -0.250259
C47   C     C_R   0.825304 0.742179 0.763135 0.622788
C48   C     C_R   0.672201 0.243489 0.254366 0.627119
C49   C     C_R   0.300659 0.783295 0.704028 0.623498
C50   C     C_R   0.757661 0.674741 0.263475 0.625317
C51   C     C_R   0.218677 0.301393 0.704901 0.624472
C52   C     C_R   0.201619 0.365421 0.263605 0.463816
C53   C     C_R   0.798339 0.634456 0.736560 0.498205
C54   C     C_R   0.297138 0.868073 0.247668 0.492187
C55   C     C_R   0.676415 0.159022 0.795665 0.509174
C56   C     C_R   0.865622 0.701817 0.236387 0.503245
C57   C     C_R   0.271330 0.228764 0.750241 -0.253930
C58   C     C_R   0.157955 0.322007 0.795260 0.508811
C59   C     C_R   0.702174 0.133848 0.239928 0.478483
C60   C     C_R   0.321822 0.841337 0.795164 0.501833
C61   C     C_R   0.865346 0.298224 0.764155 0.463386
C62   C     C_R   0.151177 0.687188 0.210697 0.492303
C63   C     C_R   0.677090 0.841200 0.795287 0.494302
C64   C     C_R   0.340563 0.176852 0.295716 0.505614
C65   C     C_R   0.134020 0.701952 0.762699 0.503575
C66   C     C_R   0.845248 0.319259 0.204856 0.508645
C67   C     C_R   0.297954 0.134158 0.762868 0.477146
C68   C     C_R   0.728702 0.771284 0.249939 -0.251258
C69   C     C_R   0.677562 0.841193 0.204431 0.504844
C70   C     C_R   0.658949 0.822593 0.704551 0.495718
C71   C     C_R   0.323250 0.159133 0.204665 0.515016
C72   C     C_R   0.798134 0.365817 0.737228 0.503445
C73   C     C_R   0.183728 0.652265 0.293105 0.509449
C74   C     C_R   0.366043 0.202071 0.737827 0.507658
C75   C     C_R   0.658732 0.822893 0.295471 0.505574
C76   C     C_R   0.201849 0.634696 0.735701 0.462538
C77   C     C_R   0.815507 0.346129 0.291138 0.489605
C78   C     C_R   0.366842 0.797530 0.255679 0.495074
C79   C     C_R   0.147536 0.352307 0.249951 -0.546267
C80   C     C_R   0.659089 0.177683 0.704704 0.501826
C81   C     C_R   0.134365 0.298166 0.236438 0.462009
C82   C     C_R   0.865594 0.701801 0.763547 0.497197
C83   C     C_R   0.632285 0.202825 0.255919 0.504451
C84   C     C_R   0.341222 0.823353 0.704264 0.500308
C85   C     C_R   0.798019 0.634437 0.263870 0.503061
C86   C     C_R   0.178618 0.342000 0.704875 0.508137
C87   C     C_3   0.135867 0.383920 0.399043 -0.435118
C88   C     C_3   0.932018 0.634689 0.574325 -0.691535
C89   C     C_3   0.627829 0.019255 0.358277 -0.601362
C90   C     C_R   0.852440 0.647642 0.750089 -0.547691
C91   C     C_3   0.372086 0.020367 0.641327 -0.606558
C92   C     C_3   0.906968 0.383304 0.435801 -0.603653
C93   C     C_3   0.154417 0.597520 0.596120 -0.402170
C94   C     C_3   0.372220 0.979095 0.360400 -0.595428
C95   C     C_3   0.627573 0.980623 0.639737 -0.589607
C96   C     C_3   0.519518 0.872237 0.859226 -0.584329
C97   C     C_3   0.606119 0.102874 0.092422 -0.517543
C98   C     C_3   0.898169 0.348872 0.903160 -0.410170
C99   C     C_3   0.120055 0.588876 0.065171 -0.627729
C100  C     C_3   0.394152 0.103126 0.907219 -0.515626
C101  C     C_R   0.352458 0.852958 0.251042 -0.505315
C102  C     C_3   0.480008 0.871985 0.141429 -0.591907
C103  C     C_3   0.867547 0.572344 0.927868 -0.687334
C104  C     C_3   0.111925 0.360371 0.099750 -0.426590
C105  C     C_R   0.771316 0.728829 0.749900 -0.258238
C106  C     C_R   0.647325 0.147856 0.750086 -0.504082
C107  C     C_R   0.852291 0.647653 0.250150 -0.530081
C108  C     C_R   0.147820 0.352473 0.750032 -0.512776
C109  C     C_R   0.647060 0.147788 0.248672 -0.528260
C110  C     C_R   0.352027 0.852750 0.749831 -0.500915
C111  C     C_R   0.852278 0.352448 0.750558 -0.536202
C112  C     C_R   0.147100 0.648783 0.251285 -0.511957
C113  C     C_R   0.647524 0.852345 0.749930 -0.494914
C114  C     C_R   0.352416 0.147573 0.250158 -0.500954
C115  C     C_R   0.147538 0.647777 0.749360 -0.536429
C116  C     C_R   0.270886 0.772569 0.253004 -0.256842
C117  C     C_R   0.851246 0.353005 0.248639 -0.505578
C118  C     C_R   0.352437 0.147666 0.750319 -0.530282
C119  C     C_R   0.647719 0.852506 0.249953 -0.500791
C120  C     C_R   0.096380 0.458804 0.455400 0.021405
C121  C     C_R   0.903538 0.544537 0.546585 0.018187
C122  C     C_R   0.603035 0.990869 0.445585 -0.045674
C123  C     C_R   0.396901 0.990899 0.554499 -0.044305
C124  C     C_R   0.896547 0.479098 0.457607 -0.007707
C125  C     C_R   0.102559 0.528096 0.543318 0.021338
C126  C     C_R   0.396889 0.008532 0.446933 -0.046556
C127  C     C_R   0.728466 0.228975 0.750439 -0.245436
C128  C     C_R   0.602983 0.009461 0.552913 -0.042804
C129  C     C_R   0.490993 0.896226 0.946492 -0.041232
C130  C     C_R   0.518793 0.100896 0.050898 -0.058102
C131  C     C_R   0.968966 0.398429 0.956216 0.022685
C132  C     C_R   0.024837 0.602484 0.042973 -0.002474
C133  C     C_R   0.481552 0.100939 0.948597 -0.058155
C134  C     C_R   0.508468 0.896196 0.054043 -0.045094
C135  C     C_R   0.958913 0.597901 0.954436 0.018101
C136  C     C_R   0.038452 0.402302 0.043819 0.021853
C137  C     C_R   0.147392 0.470969 0.478211 0.591775
C138  C     C_R   0.771154 0.728777 0.249973 -0.257556
C139  C     C_R   0.852649 0.534513 0.523735 0.558331
C140  C     C_R   0.652096 0.994379 0.472843 0.584103
C141  C     C_R   0.347838 0.993895 0.527170 0.579390
C142  C     C_R   0.848946 0.499962 0.481206 0.555088
C143  C     C_R   0.150592 0.506949 0.519911 0.587056
C144  C     C_R   0.347823 0.005249 0.474950 0.580121
C145  C     C_R   0.652062 0.006198 0.524923 0.585693
C146  C     C_R   0.494268 0.847138 0.974227 0.583854
C147  C     C_R   0.510154 0.150224 0.024583 0.578365
C148  C     C_R   0.988548 0.349741 0.979265 0.588276
C149  C     C_R   0.228862 0.271259 0.750150 -0.247908
C150  C     C_R   0.005728 0.650802 0.019719 0.556202
C151  C     C_R   0.490390 0.150250 0.974641 0.578437
C152  C     C_R   0.505037 0.847118 0.026537 0.581643
C153  C     C_R   0.970923 0.648372 0.977432 0.556072
C154  C     C_R   0.024636 0.351749 0.020795 0.590586
C155  C     C_R   0.502712 0.947801 0.027570 -0.073914
C156  C     C_R   0.494188 0.049788 0.973192 -0.077049
C157  C     C_R   0.013342 0.450771 0.024443 -0.105807
C158  C     C_R   0.982888 0.549243 0.974656 -0.073482
C159  C     C_R   0.505998 0.049775 0.026565 -0.075629
C160  C     C_R   0.727386 0.229473 0.246423 -0.257192
C161  C     C_R   0.497009 0.947807 0.972699 -0.070871
C162  C     C_R   0.006831 0.550875 0.024142 -0.070894
C163  C     C_R   0.988742 0.449357 0.975223 -0.104750
C164  C     C_R   0.050991 0.509889 0.524580 -0.105330
C165  C     C_R   0.948821 0.495300 0.476155 -0.071318
C166  C     C_R   0.551230 0.002725 0.527034 -0.070537
C167  C     C_R   0.448674 0.002284 0.472914 -0.073884
C168  C     C_R   0.951334 0.519051 0.525796 -0.072615
C169  C     C_R   0.048724 0.485382 0.475246 -0.106693
C170  C     C_R   0.448670 0.997422 0.527798 -0.073613
C171  C     C_R   0.270876 0.771673 0.749412 -0.246681
C172  C     C_R   0.551253 0.997438 0.472219 -0.073553
C173  C     C_R   0.005204 0.500244 0.109515 0.816818
C174  C     C_R   0.993914 0.499810 0.890211 0.821842
C175  C     C_R   0.500693 0.000666 0.110013 0.896544
C176  C     C_R   0.499304 0.000643 0.889986 0.897180
C177  C     C_R   0.499972 0.000057 0.610079 0.907880
C178  C     C_R   0.500033 0.999940 0.389917 0.908309
C179  C     C_R   0.000364 0.506103 0.609829 0.823286
C180  C     C_R   0.999582 0.494948 0.390489 0.815330
C181  C     C_R   0.504052 0.999180 0.053846 0.022535
C182  C     C_R   0.770999 0.271432 0.750642 -0.252442
C183  C     C_R   0.495931 0.999181 0.946164 0.023578
C184  C     C_R   0.013312 0.500995 0.052021 -0.042177
C185  C     C_R   0.983549 0.499191 0.947256 -0.042880
C186  C     C_R   0.001363 0.516622 0.552877 -0.042661
C187  C     C_R   0.998479 0.487053 0.447965 -0.042254
C188  C     C_R   0.499948 0.000158 0.554042 0.029525
C189  C     C_R   0.499979 0.999814 0.445948 0.027948
C190  C     C_R   0.105055 0.605500 0.250221 0.979769
C191  C     C_R   0.894834 0.394831 0.750160 0.986979
C192  C     C_R   0.605239 0.894844 0.249969 0.986938
F1    F     F_    0.798693 0.486588 0.462981 -0.522158
F2    F     F_    0.512026 0.798365 0.051005 -0.566900
F3    F     F_    0.949723 0.695510 0.958102 -0.530027
F4    F     F_    0.044309 0.303387 0.038648 -0.552532
F5    F     F_    0.487156 0.798415 0.949971 -0.570581
F6    F     F_    0.521543 0.198761 0.047681 -0.567734
F7    F     F_    0.974778 0.299531 0.961249 -0.552662
F8    F     F_    0.020882 0.700503 0.038178 -0.520587
F9    F     F_    0.294199 0.338828 0.275386 -0.508583
F10   F     F_    0.705660 0.660889 0.725169 -0.506608
F11   F     F_    0.203113 0.843546 0.247523 -0.508418
F12   F     F_    0.201251 0.519117 0.537696 -0.551430
F13   F     F_    0.743045 0.210838 0.840633 -0.529863
F14   F     F_    0.839296 0.794548 0.224709 -0.506494
F15   F     F_    0.208781 0.254007 0.839809 -0.522430
F16   F     F_    0.795537 0.160023 0.232866 -0.512174
F17   F     F_    0.254139 0.789132 0.839564 -0.518688
F18   F     F_    0.838727 0.205493 0.775632 -0.515145
F19   F     F_    0.196156 0.762277 0.170475 -0.515278
F20   F     F_    0.744118 0.789316 0.839910 -0.516280
F21   F     F_    0.287888 0.243606 0.340546 -0.522866
F22   F     F_    0.160070 0.794746 0.773965 -0.506877
F23   F     F_    0.299042 0.012428 0.450947 -0.568102
F24   F     F_    0.798456 0.248265 0.160790 -0.520367
F25   F     F_    0.204890 0.160364 0.773188 -0.510844
F26   F     F_    0.744851 0.789030 0.159670 -0.514943
F27   F     F_    0.711240 0.755464 0.659865 -0.514589
F28   F     F_    0.256478 0.211340 0.159998 -0.526461
F29   F     F_    0.705409 0.339583 0.725897 -0.505895
F30   F     F_    0.257554 0.696456 0.335247 -0.514252
F31   F     F_    0.339937 0.295031 0.727418 -0.508671
F32   F     F_    0.710455 0.755737 0.340219 -0.513645
F33   F     F_    0.294641 0.661342 0.724188 -0.514538
F34   F     F_    0.700806 0.013780 0.548843 -0.570536
F35   F     F_    0.742916 0.298436 0.332828 -0.517958
F36   F     F_    0.340994 0.703908 0.258517 -0.511336
F37   F     F_    0.711612 0.245023 0.660248 -0.517643
F38   F     F_    0.160804 0.205415 0.225076 -0.510618
F39   F     F_    0.839148 0.794574 0.774694 -0.507555
F40   F     F_    0.656982 0.296656 0.259938 -0.506923
F41   F     F_    0.289716 0.756471 0.659265 -0.528065
F42   F     F_    0.705160 0.660880 0.275318 -0.505556
F43   F     F_    0.246867 0.290712 0.660500 -0.516693
F44   F     F_    0.215888 0.417551 0.275740 -0.538488
F45   F     F_    0.195113 0.449831 0.459937 -0.550195
F46   F     F_    0.784110 0.582307 0.724441 -0.508588
F47   F     F_    0.282403 0.921597 0.244455 -0.541668
F48   F     F_    0.665068 0.131762 0.840393 -0.542369
F49   F     F_    0.917886 0.716077 0.224028 -0.521775
F50   F     F_    0.129694 0.331992 0.839772 -0.542107
F51   F     F_    0.717484 0.080789 0.233691 -0.541079
F52   F     F_    0.332114 0.868307 0.839986 -0.555674
F53   F     F_    0.917446 0.283826 0.776240 -0.545327
F54   F     F_    0.116475 0.685946 0.170070 -0.567621
F55   F     F_    0.666274 0.868505 0.839970 -0.555068
F56   F     F_    0.806291 0.557270 0.543540 -0.530142
F57   F     F_    0.367282 0.165791 0.340483 -0.553051
F58   F     F_    0.081685 0.716117 0.774855 -0.509227
F59   F     F_    0.877904 0.325565 0.162430 -0.537303
F60   F     F_    0.283451 0.081743 0.774061 -0.538431
F61   F     F_    0.667018 0.868376 0.159648 -0.552930
F62   F     F_    0.631843 0.833170 0.659896 -0.552932
F63   F     F_    0.334656 0.132367 0.159804 -0.541053
F64   F     F_    0.783949 0.418055 0.725132 -0.508854
F65   F     F_    0.180372 0.617111 0.333848 -0.530958
F66   F     F_    0.418552 0.216515 0.726695 -0.526661
F67   F     F_    0.700881 0.986943 0.448225 -0.567471
F68   F     F_    0.631323 0.833712 0.340270 -0.550525
F69   F     F_    0.216353 0.582563 0.723585 -0.546468
F70   F     F_    0.819782 0.377735 0.333905 -0.581699
F71   F     F_    0.420221 0.782113 0.258067 -0.539947
F72   F     F_    0.632417 0.167055 0.659873 -0.552751
F73   F     F_    0.082286 0.283975 0.224164 -0.542731
F74   F     F_    0.917685 0.716034 0.775750 -0.509665
F75   F     F_    0.579075 0.217380 0.263110 -0.530416
F76   F     F_    0.368937 0.834268 0.659607 -0.555459
F77   F     F_    0.783681 0.582287 0.276313 -0.523489
F78   F     F_    0.299082 0.986459 0.551868 -0.569472
F79   F     F_    0.169000 0.369983 0.660334 -0.540661
F80   F     F_    0.479159 0.198817 0.951291 -0.568566
H1    H     H_    0.053396 0.396738 0.417261 0.203115
H2    H     H_    0.619046 0.008148 0.317530 0.189861
H3    H     H_    0.672829 0.023491 0.362483 0.294919
H4    H     H_    0.608014 0.059171 0.366942 0.238423
H5    H     H_    0.374357 0.940323 0.615045 0.308401
H6    H     H_    0.380274 0.009464 0.682292 0.189871
H7    H     H_    0.327184 0.025004 0.636594 0.293233
H8    H     H_    0.392361 0.060027 0.632428 0.240940
H9    H     H_    0.854711 0.438322 0.399806 0.355830
H10   H     H_    0.904151 0.354623 0.402631 0.261104
H11   H     H_    0.879085 0.368946 0.467235 0.269319
H12   H     H_    0.121377 0.354117 0.369751 0.175942
H13   H     H_    0.949851 0.382847 0.449790 0.207600
H14   H     H_    0.070353 0.596301 0.582192 0.204942
H15   H     H_    0.145341 0.630582 0.624395 0.179652
H16   H     H_    0.174331 0.616309 0.561573 0.259553
H17   H     H_    0.182160 0.568083 0.615585 0.314624
H18   H     H_    0.374224 0.059122 0.386751 0.307067
H19   H     H_    0.380474 0.990039 0.319333 0.188918
H20   H     H_    0.327317 0.974379 0.365699 0.296565
H21   H     H_    0.392564 0.939457 0.369003 0.238931
H22   H     H_    0.625604 0.060478 0.612554 0.305270
H23   H     H_    0.153255 0.360549 0.432011 0.266844
H24   H     H_    0.607285 0.940957 0.631439 0.274823
H25   H     H_    0.619191 0.991741 0.680691 0.171618
H26   H     H_    0.672488 0.975889 0.634538 0.287438
H27   H     H_    0.439752 0.873850 0.887102 0.302803
H28   H     H_    0.508128 0.880631 0.818444 0.172838
H29   H     H_    0.524512 0.827357 0.864084 0.286346
H30   H     H_    0.559121 0.892715 0.867296 0.275615
H31   H     H_    0.533972 0.134353 0.122873 0.267121
H32   H     H_    0.619844 0.138979 0.069458 0.259002
H33   H     H_    0.619510 0.064734 0.072633 0.258339
H34   H     H_    0.167444 0.409805 0.379881 0.312486
H35   H     H_    0.626016 0.104705 0.130773 0.242143
H36   H     H_    0.901982 0.432797 0.917566 0.204522
H37   H     H_    0.865551 0.359002 0.874941 0.178260
H38   H     H_    0.878566 0.329574 0.937613 0.260625
H39   H     H_    0.926810 0.320212 0.883540 0.314734
H40   H     H_    0.066392 0.642692 0.101288 0.355864
H41   H     H_    0.148494 0.591029 0.098465 0.252703
H42   H     H_    0.135527 0.616196 0.033835 0.271121
H43   H     H_    0.119355 0.545964 0.051108 0.213369
H44   H     H_    0.466295 0.134430 0.876489 0.265657
H45   H     H_    0.871270 0.587821 0.609215 0.312506
H46   H     H_    0.374177 0.105047 0.868902 0.245095
H47   H     H_    0.380541 0.139241 0.930073 0.259397
H48   H     H_    0.380731 0.064999 0.927176 0.256867
H49   H     H_    0.559771 0.873931 0.113527 0.306569
H50   H     H_    0.491345 0.880502 0.182159 0.190462
H51   H     H_    0.475335 0.827061 0.136881 0.295688
H52   H     H_    0.440244 0.892199 0.133230 0.237983
H53   H     H_    0.915898 0.631730 0.892735 0.314056
H54   H     H_    0.841153 0.569987 0.893107 0.244597
H55   H     H_    0.846878 0.598271 0.957453 0.277338
H56   H     H_    0.935403 0.660546 0.609478 0.245089
H57   H     H_    0.872788 0.530272 0.943424 0.227946
H58   H     H_    0.102248 0.443159 0.081451 0.203485
H59   H     H_    0.142171 0.373893 0.128979 0.176597
H60   H     H_    0.134746 0.341934 0.066744 0.265729
H61   H     H_    0.084779 0.329917 0.118957 0.312594
H62   H     H_    0.906563 0.656514 0.545348 0.277922
H63   H     H_    0.973827 0.628336 0.558233 0.228350
H64   H     H_    0.625534 0.939529 0.385813 0.309365
N1    N     N_2   0.090321 0.417265 0.416402 -0.297773
N2    N     N_2   0.547124 0.103309 0.098757 -0.311376
N3    N     N_2   0.926547 0.398424 0.917790 -0.295144
N4    N     N_2   0.065984 0.606097 0.081647 -0.245297
N5    N     N_2   0.453136 0.103420 0.900774 -0.312622
N6    N     N_2   0.522575 0.892801 0.107359 -0.292122
N7    N     N_2   0.919892 0.595896 0.913600 -0.264568
N8    N     N_2   0.080379 0.407027 0.082437 -0.298617
N9    N     N_2   0.906918 0.582956 0.588010 -0.266876
N10   N     N_2   0.606738 0.976764 0.392184 -0.291228
N11   N     N_2   0.393204 0.977445 0.608113 -0.291086
N12   N     N_2   0.891395 0.437699 0.419174 -0.241422
N13   N     N_2   0.103955 0.570683 0.581740 -0.295327
N14   N     N_2   0.393165 0.022029 0.393378 -0.293828
N15   N     N_2   0.606652 0.023360 0.606312 -0.296378
N16   N     N_2   0.476857 0.892870 0.893199 -0.296068
O1    O     O_3   1.000000 0.500000 0.250000 -0.566113
O2    O     O_R   0.000000 0.454520 0.865790 -0.615664
O3    O     O_R   0.545480 1.000000 0.134210 -0.611604
O4    O     O_R   0.454520 0.000000 0.865790 -0.613532
O5    O     O_R   0.500000 0.954520 0.634210 -0.607253
O6    O     O_R   0.500000 0.045480 0.365790 -0.618520
O7    O     O_R   0.954520 0.500000 0.634210 -0.622221
O8    O     O_R   0.045480 0.500000 0.365790 -0.608999
O9    O     O_R   0.500000 0.045480 0.634210 -0.619040
O10   O     O_R   0.500000 0.954520 0.365790 -0.616866
O11   O     O_R   0.045480 0.500000 0.634210 -0.617652
O12   O     O_3   1.000000 0.500000 0.750000 -0.566689
O13   O     O_R   0.954520 0.500000 0.365790 -0.625192
O14   O     O_R   0.063990 0.609460 0.219650 -0.585796
O15   O     O_R   0.936010 0.390540 0.780350 -0.604263
O16   O     O_R   0.609460 0.936010 0.219650 -0.581538
O17   O     O_R   0.390540 0.063990 0.780350 -0.607889
O18   O     O_R   0.936010 0.390540 0.219650 -0.570215
O19   O     O_R   0.063990 0.609460 0.780350 -0.571922
O20   O     O_R   0.390540 0.063990 0.219650 -0.576616
O21   O     O_R   0.609460 0.936010 0.780350 -0.595489
O22   O     O_R   0.936010 0.609460 0.780350 -0.590288
O23   O     O_3   0.500000 1.000000 0.250000 -0.566643
O24   O     O_R   0.063990 0.390540 0.219650 -0.596603
O25   O     O_R   0.390540 0.936010 0.780350 -0.578889
O26   O     O_R   0.609460 0.063990 0.219650 -0.611908
O27   O     O_R   0.063990 0.390540 0.780350 -0.574299
O28   O     O_R   0.936010 0.609460 0.219650 -0.583060
O29   O     O_R   0.609460 0.063990 0.780350 -0.587075
O30   O     O_R   0.390540 0.936010 0.219650 -0.600636
O31   O     O_R   0.563990 0.109460 0.719650 -0.573858
O32   O     O_R   0.436010 0.890540 0.280350 -0.601619
O33   O     O_R   0.109460 0.436010 0.719650 -0.575501
O34   O     O_3   0.500000 1.000000 0.750000 -0.566300
O35   O     O_R   0.890540 0.563990 0.280350 -0.585326
O36   O     O_R   0.436010 0.890540 0.719650 -0.587667
O37   O     O_R   0.563990 0.109460 0.280350 -0.589380
O38   O     O_R   0.890540 0.563990 0.719650 -0.589688
O39   O     O_R   0.109460 0.436010 0.280350 -0.593205
O40   O     O_R   0.436010 0.109460 0.280350 -0.575754
O41   O     O_R   0.563990 0.890540 0.719650 -0.594835
O42   O     O_R   0.890540 0.436010 0.280350 -0.587926
O43   O     O_R   0.109460 0.563990 0.719650 -0.605568
O44   O     O_R   0.563990 0.890540 0.280350 -0.577853
O45   O     O_R   1.000000 0.454520 0.134210 -0.609824
O46   O     O_R   0.436010 0.109460 0.719650 -0.586904
O47   O     O_R   0.109460 0.563990 0.280350 -0.567553
O48   O     O_R   0.890540 0.436010 0.719650 -0.571220
O49   O     O_R   1.000000 0.545480 0.865790 -0.623388
O50   O     O_R   0.454520 1.000000 0.134210 -0.623687
O51   O     O_R   0.545480 0.000000 0.865790 -0.612960
O52   O     O_R   0.000000 0.545480 0.134210 -0.624149
Zn1   Zn    Zn3+2 0.064970 0.500000 0.293390 1.061847
Zn2   Zn    Zn3+2 0.435030 1.000000 0.206610 1.054864
Zn3   Zn    Zn3+2 0.000000 0.435030 0.793390 1.065940
Zn4   Zn    Zn3+2 0.000000 0.564970 0.206610 1.060741
Zn5   Zn    Zn3+2 0.435030 0.000000 0.793390 1.040571
Zn6   Zn    Zn3+2 0.564970 1.000000 0.206610 1.040701
Zn7   Zn    Zn3+2 0.000000 0.564970 0.793390 1.060472
Zn8   Zn    Zn3+2 0.000000 0.435030 0.206610 1.059618
Zn9   Zn    Zn3+2 0.935030 0.500000 0.706610 1.061442
Zn10  Zn    Zn3+2 0.500000 0.935030 0.293390 1.046859
Zn11  Zn    Zn3+2 0.500000 0.064970 0.706610 1.060515
Zn12  Zn    Zn3+2 0.935030 0.500000 0.293390 1.059033
Zn13  Zn    Zn3+2 0.064970 0.500000 0.706610 1.064755
Zn14  Zn    Zn3+2 0.500000 0.064970 0.293390 1.060222
Zn15  Zn    Zn3+2 0.500000 0.935030 0.706610 1.045745
Zn16  Zn    Zn3+2 0.564970 0.000000 0.793390 1.053774

loop_
_geom_bond_atom_site_label_1
_geom_bond_atom_site_label_2
_ccdc_geom_bond_type
C111  C191  S    
C125  N13   S    
C132  C150  A    
C68   C138  S    
C133  C151  A    
O37   Zn14  S    
O20   Zn2   S    
C173  O45   A    
C165  C187  A    
C129  N16   S    
C166  C188  A    
H14   N13   S    
C164  C186  A    
C191  O15   A    
C139  C142  A    
C73   F65   S    
C128  C145  A    
O24   Zn8   S    
C51   F43   S    
C39   C74   A    
C2    C116  S    
C47   C105  A    
C80   F72   S    
C98   H38   S    
C25   C60   A    
H53   N7    S    
C36   C71   A    
C33   C69   A    
C25   C171  A    
O23   Zn2   S    
O28   Zn4   S    
C29   C64   A    
C103  H55   S    
C78   C101  A    
O26   Zn6   S    
C12   O27   A    
C32   C57   A    
C74   C118  A    
O23   Zn14  S    
C156  C183  A    
C10   O36   A    
O21   Zn16  S    
C45   C81   A    
C192  O16   A    
O43   Zn13  S    
C64   C114  A    
C169  C187  A    
C126  C167  A    
C141  C144  A    
C12   C108  S    
C178  C189  S    
C34   F27   S    
O10   Zn10  S    
C16   O30   A    
C69   C119  A    
C130  C159  A    
C43   C78   A    
C102  H52   S    
C91   H6    S    
C3    C118  S    
C94   H20   S    
C29   F21   S    
C134  C155  A    
O6    Zn14  S    
C10   O25   A    
C46   C160  S    
C123  C141  A    
C19   F11   S    
C8    O22   A    
O45   Zn8   S    
C141  F78   S    
C159  C181  A    
C17   F9    S    
C26   C182  A    
C4    O18   A    
C14   C107  S    
O23   Zn6   S    
C11   O37   A    
C192  O44   A    
C176  O4    A    
C100  N5    S    
C158  C185  A    
O5    Zn15  S    
C52   F44   S    
C79   C81   A    
O12   Zn13  S    
C121  C168  A    
O19   Zn7   S    
C99   H42   S    
C86   C108  A    
O17   Zn5   S    
C92   H13   S    
C190  O14   A    
C140  C145  A    
C22   C58   A    
C93   H16   S    
H44   N5    S    
C50   C138  A    
C92   H11   S    
C63   F55   S    
C152  F2    S    
C95   H24   S    
C37   F29   S    
C41   C76   A    
C3    O46   A    
C59   C109  A    
H1    N1    S    
C14   O35   A    
C137  F45   S    
C67   C118  A    
C84   C110  A    
C12   O33   A    
C63   C113  A    
C28   C63   A    
O38   Zn9   S    
C3    O17   A    
C89   H3    S    
H64   N10   S    
C147  F6    S    
C121  N9    S    
O34   Zn15  S    
C191  O48   A    
C166  C172  A    
C54   C101  A    
C44   C80   A    
C70   F62   S    
O32   Zn10  S    
C179  C186  S    
O40   Zn14  S    
C23   C59   A    
C48   C160  A    
C24   C36   A    
C177  C188  S    
C102  H50   S    
C15   C106  S    
C86   F79   S    
C99   N4    S    
C120  C169  A    
H31   N2    S    
C80   C106  A    
C179  O11   A    
C9    C79   S    
C58   F50   S    
C87   H12   S    
C6    C114  S    
C92   H10   S    
O50   Zn2   S    
C173  C184  S    
C31   C46   A    
C57   C149  S    
C103  H57   S    
C10   C110  S    
C157  C184  A    
C52   C79   A    
C50   C85   A    
C175  C181  S    
C65   F58   S    
C5    C115  S    
C81   F73   S    
C65   C115  A    
C96   H30   S    
C20   F13   S    
O18   Zn8   S    
H45   N9    S    
C74   F66   S    
C70   C113  A    
C167  C189  A    
C168  C186  A    
C4    O42   A    
C175  O3    A    
C119  C192  S    
C20   C127  A    
C92   N12   S    
C89   N10   S    
C150  C153  A    
O49   Zn7   S    
C21   F14   S    
C147  C151  A    
C44   F37   S    
C176  O51   A    
C100  H47   S    
C27   C62   A    
C43   C116  A    
O12   Zn3   S    
C2    C38   A    
C129  C161  A    
O22   Zn7   S    
C26   F18   S    
C91   H7    S    
C87   N1    S    
C71   F63   S    
C32   C67   A    
C19   C54   A    
C91   N11   S    
C4    C117  S    
C125  C164  A    
C45   F38   S    
C104  H59   S    
O31   Zn11  S    
C43   F36   S    
C73   C112  A    
C6    O40   A    
C130  C147  A    
C94   H19   S    
C136  N8    S    
O15   Zn3   S    
C124  N12   S    
C173  O52   A    
C97   H33   S    
C48   C83   A    
O39   Zn1   S    
C121  C139  A    
C99   H43   S    
C122  C140  A    
C1    C45   A    
O12   Zn7   S    
C19   C116  A    
C125  C143  A    
O23   Zn10  S    
C126  C144  A    
O1    Zn4   S    
O34   Zn5   S    
O35   Zn12  S    
C35   C41   A    
C132  C162  A    
C22   C149  A    
C30   C65   A    
C88   H63   S    
C112  C190  S    
C124  C165  A    
C16   C101  S    
O47   Zn1   S    
C1    C24   S    
C170  C188  A    
C98   H39   S    
C127  C182  S    
C180  O8    A    
O13   Zn12  S    
C33   C68   A    
O4    Zn5   S    
C126  N14   S    
C44   C127  A    
C31   C66   A    
C133  C156  A    
C35   C171  S    
C134  N6    S    
C76   F69   S    
C88   H56   S    
C155  C161  A    
C87   H34   S    
C180  O13   A    
C26   C61   A    
C54   F47   S    
O14   Zn4   S    
O51   Zn16  S    
C174  C185  S    
C151  F80   S    
C62   F54   S    
O3    Zn6   S    
C76   C115  A    
C84   F76   S    
C42   C46   A    
O1    Zn8   S    
C85   F77   S    
C50   F42   S    
C24   C29   A    
C93   N13   S    
C18   C53   A    
C95   N15   S    
C66   C117  A    
H22   N15   S    
C13   C28   A    
C2    C27   A    
C55   F48   S    
C34   C70   A    
C67   F60   S    
C72   C111  A    
O16   Zn6   S    
C39   F31   S    
C148  C154  A    
C21   C138  A    
C72   F64   S    
C139  F56   S    
C51   C86   A    
C150  F8    S    
C177  O5    A    
C41   F33   S    
C60   F52   S    
C97   H35   S    
C77   F70   S    
C55   C106  A    
C179  O7    A    
C99   H41   S    
C13   C105  S    
O41   Zn15  S    
O7    Zn9   S    
O12   Zn9   S    
C42   F35   S    
C135  N7    S    
C71   C114  A    
O34   Zn11  S    
C96   N16   S    
C161  C183  A    
C162  C184  A    
C30   F22   S    
C16   O32   A    
C98   N3    S    
C153  F3    S    
C131  C163  A    
C134  C152  A    
C98   H37   S    
C155  C181  A    
H27   N16   S    
O33   Zn13  S    
C18   F10   S    
C97   H32   S    
C129  C146  A    
C89   H2    S    
C95   H26   S    
C97   N2    S    
C94   H21   S    
C93   H15   S    
O34   Zn16  S    
C94   N14   S    
C66   F59   S    
C177  O9    A    
C1    C17   A    
H18   N14   S    
C135  C153  A    
C21   C56   A    
C148  F7    S    
C172  C189  A    
C28   F20   S    
C145  F34   S    
C95   H25   S    
C82   C90   A    
C40   C75   A    
C93   H17   S    
C102  H51   S    
C38   F30   S    
O36   Zn15  S    
C13   C34   A    
C15   O31   A    
C37   C182  A    
C142  F1    S    
C22   F15   S    
C178  O6    A    
C58   C108  A    
C60   C110  A    
C8    O38   A    
C64   F57   S    
O42   Zn12  S    
C62   C112  A    
C51   C149  A    
C40   C68   A    
C37   C72   A    
C53   C90   A    
C7    O41   A    
O1    Zn1   S    
C120  C137  A    
C122  N10   S    
O48   Zn9   S    
C102  N6    S    
C100  H46   S    
C88   H62   S    
C176  C183  S    
C56   F49   S    
C140  F67   S    
C23   F16   S    
C11   C109  S    
C78   F71   S    
C17   C52   A    
O46   Zn11  S    
C36   F28   S    
C175  O50   A    
C69   F61   S    
H49   N6    S    
C33   F26   S    
C6    O20   A    
O25   Zn5   S    
C30   C35   A    
C40   F32   S    
C9    O39   A    
C128  N15   S    
C180  C187  S    
C77   C117  A    
C11   O26   A    
C47   F39   S    
C61   F53   S    
C39   C57   A    
C136  C154  A    
C59   F51   S    
C96   H28   S    
C47   C82   A    
C178  O10   A    
C49   F41   S    
O44   Zn10  S    
O11   Zn13  S    
C103  H54   S    
C89   H4    S    
C83   C109  A    
C157  C163  A    
C32   F25   S    
C154  F4    S    
C143  F12   S    
C137  C143  A    
C133  N5    S    
C135  C158  A    
C128  C166  A    
C124  C142  A    
C164  C169  A    
C20   C55   A    
C104  H60   S    
H40   N4    S    
C167  C170  A    
O2    Zn3   S    
O27   Zn3   S    
C130  N2    S    
C123  C170  A    
O1    Zn12  S    
C103  N7    S    
C75   C119  A    
C88   N9    S    
C82   F74   S    
C15   O29   A    
C120  N1    S    
C49   C171  A    
C9    O24   A    
C123  N11   S    
C31   F24   S    
C87   H23   S    
O8    Zn1   S    
C56   C107  A    
C7    O21   A    
C23   C160  A    
C27   F19   S    
C174  O2    A    
C131  C148  A    
C25   F17   S    
C100  H48   S    
C42   C77   A    
C146  C152  A    
C136  C157  A    
C165  C168  A    
C122  C172  A    
O29   Zn16  S    
C8    C90   S    
C96   H29   S    
C61   C111  A    
C104  N8    S    
H5    N11   S    
C49   C84   A    
H9    N12   S    
C156  C159  A    
O52   Zn4   S    
C53   F46   S    
C144  F23   S    
C132  N4    S    
C190  O47   A    
C163  C185  A    
C7    C113  S    
C146  F5    S    
C83   F75   S    
C18   C105  A    
C104  H61   S    
C5    O19   A    
O30   Zn2   S    
O9    Zn11  S    
C5    O43   A    
C131  N3    S    
C91   H8    S    
H36   N3    S    
C174  O49   A    
C14   O28   A    
C158  C162  A    
C48   F40   S    
C75   F68   S    
H58   N8    S    
C85   C107  A    
C38   C73   A    
