data_mof_unit_60936.cif
_audit_creation_date              2012-12-10T18:08:27-0500
_audit_creation_method            fapswitch 2.2
_symmetry_space_group_name_H-M    P1
_symmetry_Int_Tables_number       1
_space_group_crystal_system       triclinic
_cell_length_a                    12.7609
_cell_length_b                    13.936547
_cell_length_c                    19.360576
_cell_angle_alpha                 90.136934
_cell_angle_beta                  92.849752
_cell_angle_gamma                 98.300552
_cell_volume                      3402.69884205

loop_
_atom_site_label
_atom_site_type_symbol
_atom_type_description
_atom_site_fract_x
_atom_site_fract_y
_atom_site_fract_z
_atom_type_partial_charge
C1    C     C_R   0.483294 0.316017 0.499515 0.816005
C2    C     C_R   0.516704 0.683983 0.500483 0.815965
C3    C     C_1   0.526626 0.786916 0.499410 -0.062896
C4    C     C_1   0.473347 0.213080 0.500548 -0.063140
C5    C     C_2   0.543565 0.977781 0.496342 -0.111302
C6    C     C_2   0.456183 0.022189 0.503460 -0.111543
C7    C     C_1   0.465149 0.126290 0.501710 0.069072
C8    C     C_1   0.534733 0.873699 0.498189 0.069235
C9    C     C_2   0.028198 0.471467 0.481513 -0.153880
C10   C     C_2   0.971802 0.528533 0.518487 -0.153884
C11   C     C_1   0.854520 0.520002 0.513755 0.212218
C12   C     C_1   0.145480 0.479998 0.486244 0.212273
C13   C     C_R   0.500633 0.500189 0.367436 0.791352
C14   C     C_R   0.499367 0.499812 0.632565 0.791335
C15   C     C_R   0.446723 0.565796 0.253315 -0.078172
C16   C     C_R   0.553305 0.434235 0.746691 -0.078159
C17   C     C_R   0.446511 0.565610 0.180694 -0.059130
C18   C     C_R   0.553506 0.434420 0.819311 -0.059137
C19   C     C_R   0.502304 0.501165 0.145996 -0.046373
C20   C     C_R   0.497679 0.498841 0.854005 -0.046370
C21   C     C_R   0.558492 0.437038 0.184184 -0.058629
C22   C     C_R   0.441465 0.562945 0.815812 -0.058630
C23   C     C_R   0.558152 0.436785 0.256814 -0.084294
C24   C     C_R   0.441813 0.563198 0.743183 -0.084243
C25   C     C_R   0.502069 0.501034 0.291450 -0.126261
C26   C     C_R   0.497929 0.498972 0.708551 -0.126272
C27   C     C_R   0.498570 0.499480 0.930142 0.408000
C28   C     C_R   0.501405 0.500528 0.069858 0.408000
Cu1   Cu    Cu3+1 0.395330 0.493960 0.495610 1.032024
Cu2   Cu    Cu3+1 0.604670 0.506040 0.504390 1.031882
N1    N     N_R   0.471255 0.416785 0.033710 -0.202309
N2    N     N_R   0.528719 0.583223 0.966291 -0.202308
N3    N     N_R   0.469899 0.416262 0.964984 -0.202754
N4    N     N_R   0.530076 0.583746 0.035015 -0.202763
N5    N     N_1   0.238030 0.484880 0.489000 -0.143895
N6    N     N_1   0.761970 0.515120 0.511000 -0.143918
O1    O     O_R   0.399110 0.356330 0.495750 -0.571870
O2    O     O_R   0.600890 0.643670 0.504250 -0.571997
O3    O     O_R   0.575900 0.366540 0.503170 -0.548074
O4    O     O_R   0.424100 0.633460 0.496830 -0.547847
O5    O     O_R   0.411580 0.494880 0.396430 -0.567118
O6    O     O_R   0.588420 0.505120 0.603570 -0.567114
O7    O     O_R   0.588360 0.505090 0.403850 -0.568857
O8    O     O_R   0.411640 0.494910 0.596150 -0.568837
C29   C     C_1   0.392193 0.634517 0.288786 0.267819
N7    N     N_1   0.348828 0.689301 0.317095 -0.242492
C30   C     C_1   0.607876 0.365539 0.711226 0.267884
N8    N     N_1   0.651275 0.310776 0.682923 -0.242591
C31   C     C_1   0.386253 0.629934 0.141736 0.293955
N9    N     N_1   0.338181 0.681186 0.110697 -0.212298
C32   C     C_1   0.613789 0.370121 0.858275 0.293956
N10   N     N_1   0.661881 0.318889 0.889319 -0.212292
C33   C     C_1   0.618826 0.372806 0.148944 0.293702
N11   N     N_1   0.666961 0.321621 0.120865 -0.211145
C34   C     C_1   0.381098 0.627153 0.851049 0.293688
N12   N     N_1   0.332936 0.678317 0.879125 -0.211158
C35   C     C_1   0.612991 0.368351 0.295699 0.272626
N13   N     N_1   0.656619 0.313807 0.326727 -0.211349
C36   C     C_1   0.386947 0.631610 0.704295 0.272555
N14   N     N_1   0.343298 0.686137 0.673265 -0.211508
C37   C     C_2   0.348026 0.969091 0.515204 0.888003
O9    O     O_2   0.270286 0.009778 0.503502 -0.558162
O10   O     O_R   0.334078 0.874778 0.541180 -0.742577
H1    H     H_    0.256788 0.848161 0.546928 0.357666
C38   C     C_2   0.651652 0.030942 0.484539 0.887663
O11   O     O_2   0.729539 0.990696 0.496896 -0.558128
O12   O     O_R   0.665340 0.124777 0.457710 -0.742434
H2    H     H_    0.742604 0.151530 0.452003 0.357717
C39   C     C_1   0.026906 0.602236 0.565110 0.292349
N15   N     N_1   0.071103 0.661262 0.602428 -0.230575
C40   C     C_1   0.973094 0.397766 0.434889 0.292436
N16   N     N_1   0.928897 0.338741 0.397569 -0.230696

loop_
_geom_bond_atom_site_label_1
_geom_bond_atom_site_label_2
_ccdc_geom_bond_type
C19   C21   A    
Cu2   O3    S    
C5    C8    S    
C36   N14   T    
C34   N12   T    
N1    N3    A    
C6    C7    S    
C20   C27   S    
C1    O1    A    
Cu1   O4    S    
C9    C10   D    
Cu1   N5    S    
C14   O8    A    
C30   N8    T    
Cu2   N6    S    
C14   O6    A    
C1    C4    S    
Cu1   O5    S    
C13   O5    A    
C2    C3    S    
C22   C34   S    
C28   N4    A    
C40   N16   T    
C37   O10   S    
C33   N11   T    
C14   C26   S    
C12   N5    T    
C21   C33   S    
C19   C28   S    
C13   C25   S    
C35   N13   T    
Cu1   Cu2   S    
C24   C36   S    
C23   C35   S    
C5    C6    D    
C6    C37   S    
C5    C38   S    
C11   N6    T    
C17   C19   A    
C24   C26   A    
C18   C32   S    
C38   O11   D    
O12   H2    S    
C18   C20   A    
C39   N15   T    
C23   C25   A    
Cu1   O8    S    
C16   C26   A    
C37   O9    D    
C9    C12   S    
C22   C24   A    
Cu2   O7    S    
C15   C25   A    
C1    O3    A    
C10   C11   S    
C15   C29   S    
C17   C31   S    
C32   N10   T    
C10   C39   S    
C2    O4    A    
C13   O7    A    
C16   C30   S    
C16   C18   A    
C31   N9    T    
C3    C8    T    
Cu1   O1    S    
C15   C17   A    
C2    O2    A    
Cu2   O6    S    
Cu2   O2    S    
C4    C7    T    
C27   N2    A    
C29   N7    T    
C21   C23   A    
C28   N1    A    
C27   N3    A    
C9    C40   S    
C20   C22   A    
O10   H1    S    
C38   O12   S    
N2    N4    A    
