data_mof_unit_23762.cif
_audit_creation_date              2012-12-10T19:05:49-0500
_audit_creation_method            fapswitch 2.2
_symmetry_space_group_name_H-M    P1
_symmetry_Int_Tables_number       1
_space_group_crystal_system       triclinic
_cell_length_a                    19.327732
_cell_length_b                    10.879497
_cell_length_c                    9.549194
_cell_angle_alpha                 91.428555
_cell_angle_beta                  90.443436
_cell_angle_gamma                 91.974104
_cell_volume                      2006.07659022

loop_
_atom_site_label
_atom_site_type_symbol
_atom_type_description
_atom_site_fract_x
_atom_site_fract_y
_atom_site_fract_z
_atom_type_partial_charge
C1    C     C_R   0.499843 0.262087 0.497696 0.848771
C2    C     C_R   0.291100 0.491059 0.496481 -0.119132
C3    C     C_R   0.929221 0.453087 0.496158 0.431402
C4    C     C_R   0.069454 0.465570 0.499516 0.410167
C5    C     C_R   0.818356 0.452380 0.627022 0.401404
C6    C     C_R   0.746138 0.461084 0.630091 0.407287
C7    C     C_R   0.707641 0.465014 0.503531 -0.297970
C8    C     C_R   0.741438 0.438816 0.377817 -0.267582
C9    C     C_R   0.813435 0.434371 0.371648 0.359275
C10   C     C_R   0.852970 0.446037 0.497288 -0.218583
C11   C     C_R   0.527275 0.067334 0.606109 -0.011194
C12   C     C_R   0.367362 0.497615 0.499156 0.822480
C13   C     C_R   0.502192 0.128249 0.490978 -0.290080
C14   C     C_R   0.477230 0.057911 0.372794 0.405567
C15   C     C_R   0.467038 0.929002 0.383697 0.398327
C16   C     C_R   0.493664 0.870472 0.501913 -0.224382
C17   C     C_R   0.524420 0.940361 0.611386 -0.015166
C18   C     C_3   0.503405 0.945055 0.762663 -0.497004
C19   C     C_3   0.508176 0.083898 0.756212 0.262477
C20   C     C_R   0.529105 0.596850 0.075745 0.211052
C21   C     C_R   0.463837 0.412380 0.071531 -0.098513
C22   C     C_R   0.464646 0.411242 0.922598 -0.036047
C23   C     C_R   0.496548 0.737207 0.501372 0.887462
C24   C     C_R   0.526158 0.599457 0.928889 0.106688
C25   C     C_3   0.596647 0.656055 0.918345 -0.602879
C26   C     C_3   0.602389 0.648294 0.077493 0.775824
C27   C     C_R   0.632341 0.489892 0.500828 0.862898
C28   C     C_R   0.254493 0.532589 0.613882 -0.264779
C29   C     C_R   0.182354 0.525904 0.614309 -0.153436
C30   C     C_R   0.145530 0.474315 0.498879 0.000777
C31   C     C_R   0.181794 0.431523 0.382011 -0.235876
C32   C     C_R   0.254184 0.442830 0.377809 0.497027
Cu1   Cu    Cu3+1 0.500000 0.499980 0.640670 0.962316
Cu2   Cu    Cu3+1 0.500000 0.500020 0.359330 1.020583
H1    H     H_    0.281703 0.571131 0.705284 0.167376
H2    H     H_    0.449761 0.908129 0.778949 0.171657
H3    H     H_    0.542311 0.909149 0.834412 0.194067
H4    H     H_    0.457899 0.128420 0.772814 0.129213
H5    H     H_    0.434736 0.341506 0.125072 0.200200
H6    H     H_    0.436918 0.338290 0.864667 0.135320
H7    H     H_    0.631455 0.595735 0.860770 0.277102
H8    H     H_    0.597474 0.750581 0.879993 0.157330
H9    H     H_    0.155421 0.559053 0.706069 0.162863
H10   H     H_    0.154001 0.389976 0.292949 0.166467
H11   H     H_    0.711820 0.424847 0.282297 0.240060
N1    N     N_R   0.034486 0.380891 0.416629 -0.237542
N2    N     N_R   0.965615 0.374186 0.415633 -0.226480
N3    N     N_R   0.964172 0.537310 0.579500 -0.177950
N4    N     N_R   0.033006 0.543327 0.581360 -0.236175
N5    N     N_R   0.500440 0.500930 0.147930 -0.197015
N6    N     N_R   0.500440 0.500890 0.852020 -0.162845
O1    O     O_R   0.500000 0.319640 0.618810 -0.584811
O2    O     O_R   0.500010 0.319680 0.381230 -0.560896
O3    O     O_R   0.400140 0.499970 0.618830 -0.604685
O4    O     O_R   0.400150 0.500010 0.381250 -0.539494
O5    O     O_R   0.499990 0.680320 0.618770 -0.584383
O6    O     O_R   0.500000 0.680360 0.381190 -0.541897
O7    O     O_R   0.599850 0.499990 0.618750 -0.549440
O8    O     O_R   0.599860 0.500030 0.381170 -0.540502
O9    O     O_3   0.416436 0.864953 0.303868 -0.564103
C33   C     C_3   0.434772 0.853815 0.161764 -0.217622
H12   H     H_    0.409311 0.768484 0.117196 0.153528
H13   H     H_    0.414734 0.931327 0.102051 0.193113
H14   H     H_    0.491100 0.845291 0.146229 0.172250
O10   O     O_3   0.562478 0.138665 0.837801 -0.756848
H15   H     H_    0.606129 0.097067 0.815150 0.325284
O11   O     O_3   0.651235 0.562784 0.120222 -0.579233
C34   C     C_3   0.719576 0.610198 0.100259 -0.254041
H16   H     H_    0.737744 0.662090 0.195991 0.186572
H17   H     H_    0.725637 0.669857 0.007826 0.156715
H18   H     H_    0.753948 0.532164 0.081722 0.239710
O12   O     O_3   0.607789 0.761789 0.151440 -0.772355
H19   H     H_    0.643879 0.813250 0.105371 0.297810
O13   O     O_3   0.288940 0.395706 0.263334 -0.562876
C35   C     C_3   0.280860 0.474608 0.149691 -0.290401
H20   H     H_    0.311859 0.440121 0.060682 0.177904
H21   H     H_    0.300391 0.569879 0.176547 0.169349
H22   H     H_    0.226078 0.475262 0.113374 0.152641
O14   O     O_3   0.854324 0.456992 0.753353 -0.534687
C36   C     C_3   0.879939 0.339829 0.781550 -0.247558
H23   H     H_    0.846672 0.261678 0.738776 0.115916
H24   H     H_    0.882783 0.330049 0.896795 0.206051
H25   H     H_    0.933235 0.332121 0.740728 0.179779
O15   O     O_3   0.714493 0.470739 0.758637 -0.572879
C37   C     C_3   0.691881 0.352388 0.799916 -0.217718
H26   H     H_    0.736236 0.298041 0.833821 0.153318
H27   H     H_    0.661767 0.301068 0.715965 0.158255
H28   H     H_    0.657203 0.362647 0.891219 0.219906
O16   O     O_3   0.842478 0.422621 0.240640 -0.726340
H29   H     H_    0.888790 0.464138 0.241961 0.341283
O17   O     O_3   0.453802 0.115145 0.255010 -0.561840
C38   C     C_3   0.508887 0.124105 0.158576 -0.296109
H30   H     H_    0.537812 0.038009 0.146001 0.147612
H31   H     H_    0.546369 0.199881 0.188493 0.200182
H32   H     H_    0.486665 0.144618 0.054979 0.210729

loop_
_geom_bond_atom_site_label_1
_geom_bond_atom_site_label_2
_ccdc_geom_bond_type
C8    C9    A    
Cu1   O7    S    
C26   O12   S    
C15   O9    S    
C2    C12   S    
C7    C8    A    
C4    N1    A    
C37   H26   S    
Cu1   O1    S    
C11   C19   S    
C26   O11   S    
C28   C29   A    
C18   H3    S    
C32   O13   S    
C5    C6    A    
C15   C16   A    
C3    N3    A    
C7    C27   S    
C2    C32   A    
C18   C19   S    
C33   H13   S    
C1    O2    A    
C8    H11   S    
C20   N5    A    
C34   H16   S    
C20   C24   A    
C28   H1    S    
C16   C17   A    
Cu2   O6    S    
C5    O14   S    
C9    C10   A    
Cu1   O5    S    
Cu2   O4    S    
C13   C14   A    
C29   H9    S    
C36   H25   S    
C21   N5    A    
C1    O1    A    
Cu1   Cu2   S    
C37   H27   S    
Cu2   N5    S    
C6    O15   S    
C31   H10   S    
O11   C34   S    
C23   O5    A    
C24   C25   S    
C36   H24   S    
O13   C35   S    
C9    O16   S    
O17   C38   S    
O12   H19   S    
C25   C26   S    
C38   H32   S    
O9    C33   S    
C33   H14   S    
C35   H20   S    
C29   C30   A    
C19   H4    S    
C31   C32   A    
C21   H5    S    
C22   H6    S    
C38   H31   S    
C17   C18   S    
O15   C37   S    
C35   H21   S    
N3    N4    A    
C16   C23   S    
Cu2   O8    S    
C1    C13   S    
C25   H7    S    
C37   H28   S    
Cu1   O3    S    
C23   O6    A    
N1    N2    A    
C11   C17   A    
C36   H23   S    
C27   O7    A    
C25   H8    S    
C6    C7    A    
Cu1   N6    S    
C4    N4    A    
C5    C10   A    
C3    C10   S    
C27   O8    A    
C11   C13   A    
C30   C31   A    
C20   C26   S    
C24   N6    A    
C34   H18   S    
C3    N2    A    
C38   H30   S    
C19   O10   S    
C33   H12   S    
C35   H22   S    
C4    C30   S    
C14   O17   S    
C12   O4    A    
O14   C36   S    
Cu2   O2    S    
C34   H17   S    
O10   H15   S    
C14   C15   A    
C2    C28   A    
O16   H29   S    
C21   C22   A    
C18   H2    S    
C12   O3    A    
C22   N6    A    
