data_mof_unit_18141.cif
_audit_creation_date              2012-12-10T20:03:14-0500
_audit_creation_method            fapswitch 2.2
_symmetry_space_group_name_H-M    P1
_symmetry_Int_Tables_number       1
_space_group_crystal_system       triclinic
_cell_length_a                    8.668171
_cell_length_b                    19.26978
_cell_length_c                    18.557602
_cell_angle_alpha                 90.732386
_cell_angle_beta                  98.5749
_cell_angle_gamma                 92.75105
_cell_volume                      3060.93982634

loop_
_atom_site_label
_atom_site_type_symbol
_atom_type_description
_atom_site_fract_x
_atom_site_fract_y
_atom_site_fract_z
_atom_type_partial_charge
C1    C     C_R   0.505199 0.365850 0.500181 0.923199
C2    C     C_R   0.407751 0.450880 0.266619 0.064883
C3    C     C_R   0.595085 0.552865 0.809470 -0.077293
C4    C     C_R   0.396371 0.452473 0.188894 -0.077442
C5    C     C_R   0.513308 0.500180 0.843070 0.025807
C6    C     C_R   0.494047 0.499776 0.157103 -0.055600
C7    C     C_R   0.430685 0.447526 0.798771 -0.285774
C8    C     C_R   0.585822 0.548803 0.202535 -0.203538
C9    C     C_R   0.424649 0.447539 0.722442 0.120999
C10   C     C_R   0.585954 0.549747 0.278593 0.106948
C11   C     C_R   0.554591 0.442347 0.965676 -0.142297
C12   C     C_R   0.499442 0.634074 0.500443 0.926597
C13   C     C_R   0.452808 0.557909 0.034710 -0.141715
C14   C     C_R   0.551796 0.442672 0.041232 -0.177913
C15   C     C_R   0.455919 0.557671 0.959147 -0.105706
C16   C     C_R   0.201150 0.499416 0.481056 0.890720
C17   C     C_R   0.798639 0.499715 0.519023 0.884372
C18   C     C_R   0.499484 0.500176 0.076581 0.089783
C19   C     C_R   0.507668 0.500018 0.923685 0.174528
C20   C     C_2   0.035893 0.490498 0.471746 0.175425
C21   C     C_2   0.963798 0.506838 0.528964 0.178484
C22   C     C_R   0.415261 0.744659 0.547469 0.448360
C23   C     C_R   0.677603 0.966710 0.528502 0.510851
C24   C     C_R   0.590174 0.259100 0.566214 0.423048
C25   C     C_R   0.431861 0.817097 0.553290 0.417072
C26   C     C_R   0.593837 0.186699 0.567759 0.423017
C27   C     C_R   0.527896 0.853210 0.510038 -0.007668
C28   C     C_R   0.544118 0.147684 0.503350 -0.015762
C29   C     C_R   0.611598 0.817424 0.463945 -0.142237
C30   C     C_R   0.488844 0.180223 0.438461 -0.137495
C31   C     C_R   0.600070 0.745606 0.460437 -0.291935
C32   C     C_R   0.477683 0.251533 0.437760 -0.257001
C33   C     C_R   0.503457 0.709119 0.502361 -0.210138
C34   C     C_R   0.396223 0.034480 0.489150 0.507959
C35   C     C_R   0.523906 0.291215 0.501581 -0.228101
C36   C     C_3   0.961595 0.485871 0.346910 -0.165397
C37   C     C_3   0.039812 0.506948 0.653495 -0.211228
C38   C     C_2   0.329817 0.391441 0.679160 0.432238
C39   C     C_2   0.684933 0.604352 0.322425 0.364720
C40   C     C_3   0.165750 0.703441 0.546298 -0.183707
C41   C     C_3   0.803961 0.315802 0.629503 -0.199543
C42   C     C_3   0.430619 0.858928 0.667801 -0.239046
C43   C     C_3   0.529072 0.143046 0.672684 -0.229977
C44   C     C_3   0.884049 0.949204 0.617414 -0.299765
C45   C     C_R   0.679514 0.038951 0.523823 -0.298197
C46   C     C_3   0.145725 0.049026 0.512097 -0.264454
C47   C     C_2   0.661299 0.609444 0.696280 0.418429
C48   C     C_2   0.325188 0.393566 0.300003 0.480131
C49   C     C_2   0.703093 0.604637 0.854722 0.360012
C50   C     C_2   0.274060 0.409730 0.140364 0.488627
C51   C     C_R   0.395576 0.962109 0.489702 -0.298871
C52   C     C_R   0.540102 0.072343 0.504504 -0.017711
C53   C     C_R   0.534640 0.928628 0.509731 -0.019943
C54   C     C_R   0.582410 0.552771 0.731799 0.030523
H1    H     H_    0.366842 0.407102 0.823905 0.189531
H2    H     H_    0.430082 0.275402 0.387613 0.233277
H3    H     H_    0.789141 0.069263 0.534720 0.171690
H4    H     H_    0.287311 0.931633 0.473721 0.190248
H5    H     H_    0.058761 0.469273 0.319356 0.174426
H6    H     H_    0.969449 0.543540 0.353726 0.122117
H7    H     H_    0.852147 0.471117 0.309881 0.186529
H8    H     H_    0.037604 0.449645 0.644329 0.109189
H9    H     H_    0.940112 0.520215 0.681146 0.159105
H10   H     H_    0.147509 0.522260 0.691522 0.186953
H11   H     H_    0.280892 0.398963 0.623120 0.102358
H12   H     H_    0.658773 0.586369 0.178294 0.202693
H13   H     H_    0.722666 0.598651 0.379764 0.115699
H14   H     H_    0.163293 0.668210 0.498112 0.124255
H15   H     H_    0.123178 0.755110 0.528773 0.161754
H16   H     H_    0.083084 0.680885 0.580873 0.223822
H17   H     H_    0.846963 0.347772 0.679216 0.183644
H18   H     H_    0.822593 0.347628 0.581594 0.122998
H19   H     H_    0.874400 0.268879 0.631410 0.178919
H20   H     H_    0.542689 0.889546 0.667882 0.142415
H21   H     H_    0.452596 0.807122 0.692031 0.220007
H22   H     H_    0.360964 0.887275 0.703021 0.174578
H23   H     H_    0.595404 0.397333 0.940051 0.151121
H24   H     H_    0.482643 0.192912 0.688675 0.216859
H25   H     H_    0.433263 0.108708 0.642652 0.138998
H26   H     H_    0.575069 0.116418 0.723461 0.182235
H27   H     H_    0.982100 0.914743 0.632689 0.213354
H28   H     H_    0.800126 0.940433 0.656689 0.158375
H29   H     H_    0.933666 0.003574 0.622370 0.159096
H30   H     H_    0.195117 0.043786 0.570644 0.141572
H31   H     H_    0.082315 0.999973 0.490330 0.206688
H32   H     H_    0.059201 0.089826 0.509186 0.187976
H33   H     H_    0.742984 0.598287 0.659647 0.102933
H34   H     H_    0.412267 0.602919 0.060456 0.152662
H35   H     H_    0.273303 0.401865 0.348305 0.111977
H36   H     H_    0.727917 0.655784 0.834567 0.125490
H37   H     H_    0.294304 0.391842 0.087183 0.061281
H38   H     H_    0.589905 0.397775 0.072282 0.154928
H39   H     H_    0.417953 0.602634 0.928187 0.134810
H40   H     H_    0.684711 0.845237 0.430242 0.195568
H41   H     H_    0.450704 0.150031 0.388787 0.197728
H42   H     H_    0.668306 0.718537 0.425771 0.202558
N1    N     N_R   0.500020 0.499980 0.689440 -0.164925
N2    N     N_R   0.499980 0.500020 0.310560 -0.184678
O1    O     O_R   0.500010 0.398180 0.560840 -0.604023
O2    O     O_3   0.040098 0.545309 0.589059 -0.628587
O3    O     O_2   0.301612 0.335797 0.706462 -0.602286
O4    O     O_2   0.729417 0.657015 0.294058 -0.597193
O5    O     O_3   0.316314 0.708921 0.587646 -0.557888
O6    O     O_3   0.644328 0.297569 0.629112 -0.570068
O7    O     O_3   0.345060 0.852654 0.597071 -0.617668
O8    O     O_3   0.651881 0.154398 0.631560 -0.611960
O9    O     O_3   0.814892 0.932352 0.545224 -0.619980
O10   O     O_3   0.260441 0.069393 0.468948 -0.604984
O11   O     O_2   0.630950 0.669802 0.705749 -0.595171
O12   O     O_R   0.499990 0.601820 0.439160 -0.657390
O13   O     O_2   0.315729 0.334855 0.273622 -0.569843
O14   O     O_2   0.770792 0.589793 0.914608 -0.550116
O15   O     O_2   0.145522 0.396939 0.157872 -0.543677
O16   O     O_R   0.499930 0.398180 0.439210 -0.641698
O17   O     O_R   0.500070 0.601820 0.560790 -0.566457
O18   O     O_R   0.271780 0.500000 0.546590 -0.605637
O19   O     O_R   0.728220 0.500000 0.453410 -0.616476
O20   O     O_R   0.271710 0.499990 0.424960 -0.661469
O21   O     O_R   0.728290 0.500010 0.575040 -0.657692
O22   O     O_3   0.959774 0.450200 0.412911 -0.621354
Zn1   Zn    Zn3+2 0.500050 0.500000 0.581210 0.969628
Zn2   Zn    Zn3+2 0.499950 0.500000 0.418790 0.927896

loop_
_geom_bond_atom_site_label_1
_geom_bond_atom_site_label_2
_ccdc_geom_bond_type
C8    H12   S    
O17   Zn1   S    
C27   C29   A    
C14   C18   A    
C7    H1    S    
C49   H36   S    
C44   H29   S    
C26   O8    S    
C12   O12   A    
C37   H8    S    
C3    C49   S    
C25   O7    S    
C43   H24   S    
C15   C19   A    
C11   C19   A    
C42   H21   S    
C40   H16   S    
C13   C18   A    
C23   C45   A    
C24   C26   A    
C38   O3    D    
C44   H28   S    
C29   H40   S    
C3    C54   A    
C43   H25   S    
C31   H42   S    
N2    Zn2   S    
O20   Zn2   S    
C10   N2    A    
N1    Zn1   S    
C34   C52   A    
C11   H23   S    
C22   C25   A    
C46   O10   S    
C31   C33   A    
C54   N1    A    
C17   O19   A    
C41   H17   S    
C46   H31   S    
C36   H5    S    
C1    O1    A    
C39   H13   S    
C6    C18   S    
C16   O18   A    
C37   H9    S    
C23   C53   A    
O21   Zn1   S    
C45   H3    S    
C42   H20   S    
C24   C35   A    
C40   H15   S    
C32   C35   A    
C4    C6    A    
C44   H27   S    
O18   Zn1   S    
C5    C7    A    
C21   O2    S    
C6    C8    A    
C45   C52   A    
C2    C48   S    
C43   H26   S    
C47   O11   D    
C17   C21   S    
C22   O5    S    
C4    C50   S    
C10   C39   S    
C24   O6    S    
C43   O8    S    
C47   H33   S    
C2    C4    A    
O19   Zn2   S    
C30   H41   S    
C16   O20   A    
C38   H11   S    
C16   C20   S    
C23   O9    S    
C34   C51   A    
C51   H4    S    
C14   H38   S    
C47   C54   S    
C46   H30   S    
C49   O14   D    
C48   H35   S    
C13   C15   A    
C1    O16   A    
C36   H7    S    
C3    C5    A    
C20   O22   S    
C37   H10   S    
C1    C35   S    
C39   O4    D    
C44   O9    S    
C7    C9    A    
C22   C33   A    
C9    N1    A    
C26   C28   A    
C36   H6    S    
C15   H39   S    
C27   C53   S    
C5    C19   S    
C25   C27   A    
C42   H22   S    
C41   O6    S    
O1    Zn1   S    
C50   O15   D    
C34   O10   S    
C12   O17   A    
C28   C30   A    
C29   C31   A    
O12   Zn2   S    
C40   O5    S    
C30   C32   A    
C28   C52   S    
C13   H34   S    
C9    C38   S    
C11   C14   A    
C36   O22   S    
C42   O7    S    
C17   O21   A    
C41   H19   S    
O16   Zn2   S    
C50   H37   S    
C48   O13   D    
C20   C21   D    
C2    N2    A    
C8    C10   A    
C40   H14   S    
C51   C53   A    
C12   C33   S    
C32   H2    S    
C37   O2    S    
C41   H18   S    
C46   H32   S    
