data_mof_unit_63892.cif
_audit_creation_date              2012-12-10T20:48:22-0500
_audit_creation_method            fapswitch 2.2
_symmetry_space_group_name_H-M    P1
_symmetry_Int_Tables_number       1
_space_group_crystal_system       triclinic
_cell_length_a                    16.028163
_cell_length_b                    19.249523
_cell_length_c                    19.265772
_cell_angle_alpha                 94.544747
_cell_angle_beta                  95.160486
_cell_angle_gamma                 90.459351
_cell_volume                      5900.76080456

loop_
_atom_site_label
_atom_site_type_symbol
_atom_type_description
_atom_site_fract_x
_atom_site_fract_y
_atom_site_fract_z
_atom_type_partial_charge
C1    C     C_R   0.509949 0.311002 0.491980 0.792560
C2    C     C_R   0.416497 0.799773 0.529759 -0.283054
C3    C     C_R   0.445027 0.123922 0.494482 -0.167235
C4    C     C_R   0.491994 0.689338 0.507569 0.821891
C5    C     C_R   0.442218 0.196205 0.494383 -0.262608
C6    C     C_R   0.521379 0.089255 0.487940 0.267553
C7    C     C_R   0.515207 0.235036 0.488586 -0.049917
C8    C     C_R   0.591582 0.200437 0.479709 0.195869
C9    C     C_R   0.593387 0.127807 0.479413 -0.205869
C10   C     C_R   0.485358 0.491972 0.233250 -0.065010
C11   C     C_R   0.536127 0.537561 0.201737 -0.292708
C12   C     C_1   0.111072 0.482560 0.483077 0.003087
C13   C     C_R   0.530355 0.539443 0.129148 0.175907
C14   C     C_R   0.472146 0.495044 0.086940 0.245749
C15   C     C_R   0.420533 0.449452 0.118450 0.169233
C16   C     C_R   0.508277 0.507456 0.689998 0.808895
C17   C     C_R   0.427477 0.448279 0.191346 -0.291929
C18   C     C_R   0.444082 0.520385 0.875319 -0.244538
C19   C     C_R   0.438807 0.522782 0.802531 0.180595
C20   C     C_R   0.519447 0.501812 0.912406 0.299239
C21   C     C_R   0.510369 0.507519 0.766494 -0.032519
C22   C     C_R   0.585345 0.490091 0.804122 -0.264944
C23   C     C_1   0.889024 0.517300 0.517733 0.002861
C24   C     C_R   0.589765 0.487719 0.876293 -0.200340
C25   C     C_R   0.491148 0.492343 0.309928 0.828009
C26   C     C_R   0.724077 0.509931 0.510013 0.810073
C27   C     C_R   0.275985 0.490039 0.490153 0.809490
C28   C     C_1   0.813685 0.513968 0.514274 -0.142871
C29   C     C_2   0.979030 0.521080 0.521596 -0.165556
C30   C     C_2   0.021080 0.478698 0.479374 -0.165158
C31   C     C_3   0.688741 0.758720 0.535192 -0.743560
C32   C     C_3   0.312031 0.478698 0.736427 -0.745270
C33   C     C_3   0.392301 0.351361 0.030525 -0.742017
C34   C     C_1   0.186396 0.485944 0.486280 -0.142470
C35   C     C_3   0.666462 0.570916 0.096638 -0.764504
C36   C     C_3   0.261509 0.890944 0.499483 -0.788377
C37   C     C_3   0.687037 0.233336 0.397604 -0.807610
C38   C     C_R   0.489081 0.765960 0.510359 -0.089023
C39   C     C_R   0.556887 0.805722 0.491879 0.187311
C40   C     C_R   0.549388 0.877832 0.490539 -0.276376
C41   C     C_R   0.475767 0.911874 0.508716 0.216804
C42   C     C_R   0.409038 0.872137 0.528727 0.215721
H1    H     H_    0.988100 0.440810 0.441633 0.158188
H2    H     H_    0.744166 0.730544 0.517456 0.236734
H3    H     H_    0.656684 0.725134 0.569205 0.230796
H4    H     H_    0.325866 0.573831 0.794305 0.221476
H5    H     H_    0.292652 0.447659 0.778682 0.224765
H6    H     H_    0.348492 0.445359 0.700766 0.231222
H7    H     H_    0.255028 0.495960 0.705763 0.238484
H8    H     H_    0.310213 0.389481 0.102455 0.222195
H9    H     H_    0.379180 0.299378 0.048756 0.223385
H10   H     H_    0.461086 0.356618 0.027938 0.245561
H11   H     H_    0.360752 0.354019 0.977140 0.245557
H12   H     H_    0.388899 0.532129 0.902391 0.154617
H13   H     H_    0.387312 0.413297 0.215172 0.174581
H14   H     H_    0.572845 0.639181 0.121117 0.223792
H15   H     H_    0.698322 0.571784 0.150389 0.228121
H16   H     H_    0.698269 0.609200 0.067365 0.237478
H17   H     H_    0.672154 0.518274 0.069508 0.252126
H18   H     H_    0.011995 0.558985 0.559327 0.158865
H19   H     H_    0.383211 0.222114 0.500341 0.158523
H20   H     H_    0.340734 0.956220 0.567098 0.234992
H21   H     H_    0.206000 0.916006 0.520736 0.239559
H22   H     H_    0.248266 0.834083 0.490196 0.245874
H23   H     H_    0.640999 0.478449 0.777613 0.175965
H24   H     H_    0.271682 0.912794 0.449156 0.241539
H25   H     H_    0.364645 0.769706 0.544946 0.186567
H26   H     H_    0.674147 0.286267 0.493906 0.248780
H27   H     H_    0.748228 0.259975 0.394866 0.241359
H28   H     H_    0.638132 0.259602 0.364872 0.236840
H29   H     H_    0.692172 0.178232 0.376647 0.252341
H30   H     H_    0.651846 0.101053 0.473339 0.151900
H31   H     H_    0.648228 0.474096 0.904309 0.147966
H32   H     H_    0.580076 0.572601 0.233447 0.182097
H33   H     H_    0.387723 0.095535 0.499994 0.155657
H34   H     H_    0.602077 0.907067 0.475716 0.163302
H35   H     H_    0.664022 0.799133 0.439281 0.219086
H36   H     H_    0.710373 0.807924 0.565860 0.225445
N1    N     N_2   0.466512 0.985263 0.506751 -0.195221
N2    N     N_2   0.666656 0.236890 0.469391 -0.310160
N3    N     N_2   0.529244 0.016035 0.489441 -0.189167
N4    N     N_2   0.460549 0.498424 0.013490 -0.167336
N5    N     N_2   0.527915 0.497403 0.985833 -0.165025
N6    N     N_2   0.633202 0.773876 0.475018 -0.274705
N7    N     N_2   0.361060 0.539050 0.766130 -0.280752
N8    N     N_2   0.360044 0.405595 0.077020 -0.301402
N9    N     N_2   0.579287 0.589118 0.099080 -0.286124
N10   N     N_2   0.334286 0.904436 0.548952 -0.301975
O1    O     O_3   0.500000 0.500000 0.500000 -0.480356
O2    O     O_R   0.688130 0.469010 0.547620 -0.640577
O3    O     O_R   0.315580 0.449250 0.449280 -0.637132
O4    O     O_R   0.680710 0.547310 0.468650 -0.631814
O5    O     O_R   0.315580 0.534430 0.534450 -0.632774
O6    O     O_R   0.456860 0.545290 0.655940 -0.609859
O7    O     O_R   0.446440 0.450430 0.339790 -0.646057
O8    O     O_R   0.557290 0.347960 0.537250 -0.652353
O9    O     O_R   0.539410 0.656320 0.467010 -0.610778
O10   O     O_R   0.456880 0.340240 0.450910 -0.634084
O11   O     O_R   0.446420 0.655480 0.544820 -0.651221
O12   O     O_R   0.557280 0.467820 0.657110 -0.650135
O13   O     O_R   0.539420 0.536460 0.347160 -0.648082
Zn1   Zn    Zn3+2 0.430910 0.557800 0.557800 0.977110
Zn2   Zn    Zn3+2 0.574380 0.447110 0.559460 0.962487
Zn3   Zn    Zn3+2 0.563780 0.559000 0.446630 0.975629
Zn4   Zn    Zn3+2 0.430930 0.436090 0.436110 0.968744

loop_
_geom_bond_atom_site_label_1
_geom_bond_atom_site_label_2
_ccdc_geom_bond_type
H26   N2    S    
C16   C21   S    
C37   H27   S    
O1    Zn1   S    
C41   C42   A    
O3    Zn4   S    
C9    H30   S    
C3    C6    A    
C6    C9    A    
C7    C8    A    
C36   N10   S    
C33   H10   S    
O10   Zn4   S    
C35   H16   S    
C23   C29   S    
C19   C21   A    
C39   N6    S    
C38   C39   A    
C36   H24   S    
C24   H31   S    
C10   C17   A    
C26   O4    A    
C35   H17   S    
C18   C19   A    
O7    Zn4   S    
C35   N9    S    
C20   C24   A    
C8    C9    A    
C27   O3    A    
C36   H21   S    
C3    H33   S    
C17   H13   S    
H4    N7    S    
C6    N3    S    
C13   C14   A    
O1    Zn2   S    
C32   H6    S    
C27   C34   S    
C33   H11   S    
O2    Zn2   S    
C37   N2    S    
C31   H2    S    
C2    H25   S    
C39   C40   A    
N1    N3    D    
C18   H12   S    
C16   O12   A    
H14   N9    S    
H35   N6    S    
C19   N7    S    
H20   N10   S    
O12   Zn2   S    
C31   N6    S    
C40   H34   S    
C1    O10   A    
C33   N8    S    
C22   H23   S    
C29   C30   D    
C4    O9    A    
C2    C38   A    
O4    Zn3   S    
C29   H18   S    
C13   N9    S    
C5    H19   S    
C23   C28   T    
C15   N8    S    
C10   C25   S    
C40   C41   A    
C4    C38   S    
C25   O7    A    
O13   Zn3   S    
C37   H29   S    
O1    Zn3   S    
C32   H5    S    
C22   C24   A    
C30   H1    S    
C27   O5    A    
C26   O2    A    
C14   N4    S    
C12   C34   T    
C20   N5    S    
C31   H36   S    
C5    C7    A    
C15   C17   A    
C12   C30   S    
C1    C7    S    
C16   O6    A    
C3    C5    A    
C11   H32   S    
O5    Zn1   S    
C41   N1    S    
C33   H9    S    
C26   C28   S    
C35   H15   S    
C37   H28   S    
C36   H22   S    
C11   C13   A    
C25   O13   A    
O8    Zn2   S    
C2    C42   A    
C1    O8    A    
C32   N7    S    
C18   C20   A    
C32   H7    S    
O9    Zn3   S    
C10   C11   A    
H8    N8    S    
O11   Zn1   S    
C42   N10   S    
O6    Zn1   S    
N4    N5    D    
C31   H3    S    
C4    O11   A    
O1    Zn4   S    
C8    N2    S    
C14   C15   A    
C21   C22   A    
