data_mof_unit_30495.cif
_audit_creation_date              2012-12-11T16:53:25-0500
_audit_creation_method            fapswitch 2.2
_symmetry_space_group_name_H-M    P1
_symmetry_Int_Tables_number       1
_space_group_crystal_system       triclinic
_cell_length_a                    14.873615
_cell_length_b                    14.83303
_cell_length_c                    16.92939
_cell_angle_alpha                 108.968
_cell_angle_beta                  106.04658
_cell_angle_gamma                 108.421424
_cell_volume                      3037.29310998

loop_
_atom_site_label
_atom_site_type_symbol
_atom_type_description
_atom_site_fract_x
_atom_site_fract_y
_atom_site_fract_z
_atom_type_partial_charge
Br1   Br    Br    0.300046 0.197770 0.120430 -0.568977
C1    C     C_R   0.088887 0.283017 0.068793 -0.099775
C2    C     C_R   0.065428 0.478907 0.252336 -0.144125
C3    C     C_R   0.225859 0.798858 0.188144 -0.129619
C4    C     C_R   0.936649 0.452229 0.734734 -0.120040
C5    C     C_R   0.742004 0.469549 0.052281 0.716610
C6    C     C_R   0.244486 0.804590 0.275328 0.060688
C7    C     C_R   0.716984 0.548195 0.040031 -0.095388
C8    C     C_R   0.975114 0.415910 0.253580 0.020954
C9    C     C_R   0.999525 0.810761 0.955255 0.088695
C10   C     C_R   0.523106 0.653657 0.041507 0.155219
C11   C     C_R   0.473107 0.601012 0.083616 0.030377
C12   C     C_R   0.029806 0.467244 0.725407 0.057920
C13   C     C_R   0.531009 0.573088 0.144151 -0.207587
C14   C     C_R   0.623954 0.571726 0.141911 -0.134176
C15   C     C_R   0.656393 0.595586 0.077423 0.050990
C16   C     C_R   0.721087 0.214196 0.824031 -0.124250
C17   C     C_R   0.613470 0.650476 0.037937 0.156329
C18   C     C_3   0.581184 0.640933 0.942310 -0.506256
C19   C     C_3   0.482776 0.645072 0.946635 -0.517143
C20   C     C_R   0.968567 0.373686 0.320323 0.125012
C21   C     C_R   0.040108 0.423196 0.638893 0.129960
C22   C     C_R   0.146019 0.440780 0.553724 -0.223080
C23   C     C_R   0.664255 0.217159 0.745835 0.061006
C24   C     C_R   0.138735 0.457441 0.636955 -0.165206
C25   C     C_R   0.949920 0.357945 0.555730 -0.270324
C26   C     C_R   0.956195 0.346458 0.472866 0.181610
C27   C     C_R   0.054815 0.392788 0.472664 0.186877
C28   C     C_R   0.300980 0.595139 0.003230 -0.163204
C29   C     C_R   0.060296 0.402274 0.394891 -0.273184
C30   C     C_R   0.870872 0.316705 0.317038 -0.162071
C31   C     C_R   0.864868 0.301466 0.392574 -0.214296
C32   C     C_R   0.555205 0.143856 0.680306 0.128306
C33   C     C_R   0.287502 0.900617 0.362379 0.129671
C34   C     C_R   0.360558 0.561850 0.053502 0.078856
C35   C     C_R   0.390958 0.091712 0.449133 -0.222443
C36   C     C_R   0.327274 0.001481 0.365498 -0.168311
C37   C     C_R   0.302460 0.892290 0.444817 -0.273282
C38   C     C_R   0.374119 0.980679 0.528284 0.184571
C39   C     C_R   0.421236 0.080352 0.529665 0.186325
C40   C     C_R   0.726094 0.310409 0.747367 -0.136471
C41   C     C_R   0.508096 0.162943 0.607590 -0.274343
C42   C     C_R   0.501950 0.048627 0.682885 -0.161116
C43   C     C_R   0.409928 0.968025 0.607689 -0.216165
C44   C     C_R   0.093165 0.093856 0.104554 0.119698
C45   C     C_R   0.220266 0.702166 0.265500 -0.126553
C46   C     C_R   0.001171 0.101248 0.064996 0.001233
C47   C     C_R   0.907426 0.024825 0.055265 -0.186118
C48   C     C_R   0.910096 0.956436 0.096680 -0.197154
C49   C     C_R   0.005736 0.962154 0.147380 0.063448
C50   C     C_R   0.094607 0.024922 0.143188 0.097803
C51   C     C_3   0.202809 0.096984 0.215190 -0.581489
C52   C     C_R   0.296029 0.497564 0.078578 -0.088794
C53   C     C_3   0.201281 0.174969 0.175318 0.166949
C54   C     C_R   0.110927 0.537237 0.812380 -0.124449
C55   C     C_R   0.915426 0.198025 0.992739 -0.128611
C56   C     C_R   0.753735 0.568503 0.978037 -0.262916
C57   C     C_R   0.002354 0.186957 0.037570 0.072593
C58   C     C_R   0.893113 0.392620 0.175145 -0.032068
C59   C     C_R   0.084446 0.799889 0.002878 -0.133167
C60   C     C_R   0.913596 0.715950 0.926037 -0.138162
F1    F     F_    0.712995 0.418165 0.100589 -0.745388
H1    H     H_    0.167798 0.309756 0.116152 0.123215
H2    H     H_    0.633013 0.711910 0.939910 0.186175
H3    H     H_    0.857916 0.403177 0.681811 0.095908
H4    H     H_    0.565009 0.562678 0.889335 0.208056
H5    H     H_    0.478337 0.718702 0.947252 0.190965
H6    H     H_    0.411440 0.569469 0.896165 0.203502
H7    H     H_    0.136442 0.442591 0.397584 0.115711
H8    H     H_    0.798575 0.290456 0.259427 0.135270
H9    H     H_    0.222404 0.474545 0.554169 0.127601
H10   H     H_    0.788650 0.263926 0.391268 0.135299
H11   H     H_    0.210224 0.503748 0.699559 0.116307
H12   H     H_    0.751452 0.627228 0.954656 0.151369
H13   H     H_    0.873521 0.325959 0.555307 0.119750
H14   H     H_    0.545042 0.237173 0.605645 0.116848
H15   H     H_    0.692406 0.161213 0.852069 0.093060
H16   H     H_    0.534359 0.032904 0.739565 0.118275
H17   H     H_    0.426160 0.167980 0.449374 0.135418
H18   H     H_    0.373569 0.892387 0.608089 0.129430
H19   H     H_    0.317434 0.010367 0.303714 0.121161
H20   H     H_    0.269066 0.815766 0.444241 0.120172
H21   H     H_    0.832787 0.022352 0.021822 0.125561
H22   H     H_    0.838643 0.903822 0.094245 0.132016
H23   H     H_    0.814392 0.330618 0.145934 0.149992
H24   H     H_    0.207214 0.125609 0.286196 0.188103
H25   H     H_    0.257374 0.063337 0.203415 0.220237
H26   H     H_    0.203907 0.248529 0.223658 0.084594
H27   H     H_    0.329086 0.660508 0.987203 0.107253
H28   H     H_    0.702789 0.347191 0.705168 0.089230
H29   H     H_    0.319725 0.469658 0.128619 0.109105
H30   H     H_    0.193769 0.566246 0.831334 0.094127
H31   H     H_    0.834276 0.145093 0.969671 0.089983
H32   H     H_    0.225723 0.675746 0.318124 0.096518
H33   H     H_    0.165289 0.853611 0.025601 0.115949
H34   H     H_    0.835817 0.691459 0.876880 0.095510
H35   H     H_    0.144684 0.498821 0.294588 0.090392
H36   H     H_    0.235993 0.863236 0.169735 0.096672
H37   H     H_    0.499429 0.540483 0.184494 0.147996
H38   H     H_    0.661654 0.539753 0.181948 0.200908
N1    N     N_R   0.055640 0.348550 0.045600 -0.046203
N2    N     N_R   0.811290 0.303400 0.871650 -0.041566
N3    N     N_R   0.205180 0.552990 0.997660 -0.039553
N4    N     N_R   0.814810 0.361830 0.823710 -0.038720
N5    N     N_R   0.201660 0.494570 0.045600 -0.043242
N6    N     N_R   0.068420 0.560530 0.871650 -0.039824
N7    N     N_R   0.948050 0.295860 0.997660 -0.044388
N8    N     N_R   0.185190 0.638170 0.176290 -0.043294
N9    N     N_R   0.798340 0.505430 0.954400 -0.068727
N10   N     N_R   0.931580 0.439470 0.128350 -0.052267
N11   N     N_R   0.051950 0.704140 0.002340 -0.043580
N12   N     N_R   0.944360 0.651450 0.954400 -0.036421
N13   N     N_R   0.039170 0.492150 0.176290 -0.046628
N14   N     N_R   0.188710 0.696600 0.128350 -0.040928
N15   N     N_R   0.794820 0.447010 0.002340 -0.106068
N16   N     N_R   0.960830 0.507850 0.823710 -0.040021
Ni1   Ni    Ni4+2 0.119330 0.493420 0.109950 0.206248
Ni2   Ni    Ni4+2 0.880670 0.506580 0.890050 0.206225
Ni3   Ni    Ni4+2 0.872590 0.372590 0.000000 0.231115
Ni4   Ni    Ni4+2 0.127410 0.627410 0.000000 0.214198

loop_
_geom_bond_atom_site_label_1
_geom_bond_atom_site_label_2
_ccdc_geom_bond_type
N1    N7    A    
N12   Ni2   S    
C10   C17   A    
C3    H36   S    
C34   C52   A    
C33   C36   A    
C19   H5    S    
N11   N12   A    
C14   H38   S    
C42   C43   A    
C36   H19   S    
C28   H27   S    
C60   H34   S    
C13   H37   S    
C31   H10   S    
C42   H16   S    
C20   C30   A    
C25   C26   A    
C40   N4    A    
C32   C41   A    
C48   H22   S    
C3    N14   A    
C35   C36   A    
C37   C38   A    
C44   C50   A    
C14   C15   A    
C58   N10   A    
C28   N3    A    
C18   H4    S    
C17   C18   S    
N8    N14   A    
C30   H8    S    
C56   N9    A    
C30   C31   A    
N16   Ni2   S    
C21   C24   A    
C45   N8    A    
C52   H29   S    
C4    C12   A    
C39   C41   A    
C40   H28   S    
C7    C15   S    
C37   H20   S    
C23   C40   A    
N5    Ni1   S    
C3    C6    A    
N7    Ni3   S    
C51   C53   S    
N9    Ni2   S    
C49   C50   A    
N4    Ni2   S    
C44   C46   A    
C55   H31   S    
C10   C19   S    
C16   C23   A    
C54   N6    A    
C50   C51   S    
C32   C42   A    
C6    C45   A    
C22   H9    S    
C43   H18   S    
C4    H3    S    
C2    N13   A    
C38   C39   A    
C5    C7    A    
C1    N1    A    
N6    N16   A    
N11   Ni4   S    
C8    C58   A    
C56   H12   S    
C9    C59   A    
C16   N2    A    
C58   H23   S    
C55   N7    A    
C54   H30   S    
C2    C8    A    
C7    C56   A    
C2    H35   S    
C46   C47   A    
C45   H32   S    
C35   C39   A    
C18   H2    S    
C16   H15   S    
C25   H13   S    
N3    N5    A    
C22   C27   A    
C11   C34   S    
N2    N4    A    
N10   N13   A    
Br1   C53   S    
N13   Ni1   S    
C47   C48   A    
C11   C13   A    
C44   C53   S    
N15   Ni3   S    
C4    N16   A    
C6    C33   S    
C9    C60   A    
C29   H7    S    
C1    H1    S    
N6    Ni4   S    
C26   C31   A    
C33   C37   A    
N8    Ni1   S    
C19   H6    S    
C51   H25   S    
C35   H17   S    
N10   Ni3   S    
C10   C11   A    
C1    C57   A    
C38   C43   A    
C20   C29   A    
C28   C34   A    
C41   H14   S    
C23   C32   S    
C47   H21   S    
N1    Ni1   S    
C5    F1    S    
C18   C19   S    
C27   C29   A    
C59   N11   A    
C46   C57   S    
C53   H26   S    
C8    C20   S    
C51   H24   S    
N3    Ni4   S    
C55   C57   A    
C12   C21   S    
C24   H11   S    
C22   C24   A    
C5    N15   A    
N9    N15   A    
C59   H33   S    
C52   N5    A    
C15   C17   A    
C48   C49   A    
C21   C25   A    
C26   C27   A    
C13   C14   A    
C60   N12   A    
N14   Ni4   S    
N2    Ni3   S    
C12   C54   A    
