data_mof_unit_45403.cif
_audit_creation_date              2012-12-10T18:44:59-0500
_audit_creation_method            fapswitch 2.2
_symmetry_space_group_name_H-M    P1
_symmetry_Int_Tables_number       1
_space_group_crystal_system       triclinic
_cell_length_a                    19.516738
_cell_length_b                    18.138366
_cell_length_c                    10.871569
_cell_angle_alpha                 89.999825
_cell_angle_beta                  94.384638
_cell_angle_gamma                 90.007587
_cell_volume                      3837.29065846

loop_
_atom_site_label
_atom_site_type_symbol
_atom_type_description
_atom_site_fract_x
_atom_site_fract_y
_atom_site_fract_z
_atom_type_partial_charge
C1    C     C_R   0.368225 0.499837 0.512762 0.813198
C2    C     C_R   0.631774 0.499846 0.487232 0.813226
C3    C     C_R   0.851125 0.492830 0.455278 0.046521
C4    C     C_R   0.148873 0.492805 0.544734 0.046550
C5    C     C_R   0.817775 0.555131 0.498271 -0.171431
C6    C     C_R   0.182242 0.555139 0.501881 -0.171346
C7    C     C_R   0.746649 0.563052 0.479833 0.278229
C8    C     C_R   0.253374 0.563041 0.520290 0.278178
C9    C     C_R   0.706304 0.498725 0.462566 -0.238982
C10   C     C_R   0.293694 0.498699 0.537424 -0.238979
C11   C     C_R   0.966992 0.557835 0.469322 -0.085239
C12   C     C_R   0.033023 0.557810 0.530884 -0.085271
C13   C     C_R   0.071661 0.491417 0.533564 0.135420
C14   C     C_R   0.928338 0.491439 0.466448 0.135432
C15   C     C_R   0.035713 0.425087 0.509382 -0.196110
C16   C     C_R   0.964273 0.425091 0.490432 -0.196132
C17   C     C_R   0.450437 0.721553 0.428755 0.300817
C18   C     C_R   0.549552 0.721571 0.571263 0.300774
C19   C     C_R   0.448502 0.800018 0.430172 0.073257
C20   C     C_R   0.551472 0.800037 0.569873 0.073297
C21   C     C_R   0.499984 0.839577 0.500026 -0.014768
C22   C     C_R   0.505228 0.500231 0.262701 0.799422
C23   C     C_R   0.494770 0.500230 0.737298 0.799428
C24   C     C_R   0.555965 0.961866 0.459950 -0.235072
C25   C     C_R   0.444003 0.961858 0.540071 -0.235066
C26   C     C_R   0.556418 0.039564 0.458990 0.196025
C27   C     C_R   0.443553 0.039556 0.541006 0.195989
C28   C     C_R   0.499988 0.079368 0.500001 0.031890
C29   C     C_R   0.499984 0.922385 0.500018 0.160639
C30   C     C_R   0.449223 0.201683 0.429506 -0.256205
C31   C     C_R   0.550765 0.201692 0.570498 -0.256209
C32   C     C_R   0.450445 0.279048 0.430109 0.063716
C33   C     C_R   0.549552 0.279057 0.569891 0.063698
C34   C     C_R   0.499992 0.161978 0.500003 0.174936
C35   C     C_R   0.537018 0.635041 0.114331 -0.209982
C36   C     C_R   0.462995 0.635039 0.885670 -0.210011
C37   C     C_R   0.522735 0.702823 0.053969 0.214565
C38   C     C_R   0.477297 0.702823 0.946024 0.214653
C39   C     C_R   0.488023 0.568202 0.937743 0.024024
C40   C     C_R   0.511976 0.568203 0.062259 0.024049
C41   C     C_R   0.510235 0.501103 0.128720 -0.091724
C42   C     C_R   0.489760 0.501102 0.871279 -0.091779
C43   C     C_R   0.503216 0.434380 0.063908 -0.168273
C44   C     C_R   0.496772 0.434380 0.936089 -0.168335
C45   C     C_R   0.738245 0.434561 0.417063 -0.093837
C46   C     C_R   0.261730 0.434503 0.582797 -0.093868
C47   C     C_R   0.810178 0.434252 0.404226 0.222767
C48   C     C_R   0.189798 0.434186 0.595642 0.222743
Cu1   Cu    Cu3+1 0.500000 0.573360 0.500000 0.972769
Cu2   Cu    Cu3+1 0.500000 0.426640 0.500000 0.957420
H1    H     H_    0.503501 0.381996 0.111795 0.170763
H2    H     H_    0.496483 0.381996 0.888201 0.170773
H3    H     H_    0.599161 0.932053 0.427391 0.149243
H4    H     H_    0.400803 0.932040 0.572628 0.149271
H5    H     H_    0.409441 0.173001 0.373433 0.139245
H6    H     H_    0.590545 0.173017 0.626570 0.139245
H7    H     H_    0.411597 0.309313 0.374662 0.114466
H8    H     H_    0.588403 0.309329 0.625337 0.114520
H9    H     H_    0.568706 0.633821 0.200035 0.175372
H10   H     H_    0.431311 0.633818 0.799961 0.175366
H11   H     H_    0.847685 0.600106 0.539007 0.147905
H12   H     H_    0.152342 0.600147 0.461269 0.147956
H13   H     H_    0.061817 0.372679 0.507453 0.169428
H14   H     H_    0.938159 0.372676 0.492204 0.169453
N1    N     N_R   0.500000 0.683620 0.500000 -0.228103
N2    N     N_R   0.500000 0.316380 0.500000 -0.170121
O1    O     O_R   0.400190 0.561980 0.499980 -0.551761
O2    O     O_R   0.599810 0.561980 0.500020 -0.551748
O3    O     O_R   0.400190 0.438070 0.500040 -0.601895
O4    O     O_R   0.599810 0.438070 0.499960 -0.601923
O5    O     O_R   0.500000 0.561970 0.319650 -0.569523
O6    O     O_R   0.500000 0.561970 0.680350 -0.569539
O7    O     O_R   0.500010 0.438060 0.319710 -0.580341
O8    O     O_R   0.499990 0.438060 0.680290 -0.580300
N3    N     N_2   0.398152 0.681537 0.359076 -0.359216
H15   H     H_    0.351250 0.689941 0.392369 0.270267
C49   C     C_3   0.393043 0.690480 0.226473 -0.638135
H16   H     H_    0.401534 0.636575 0.182316 0.247402
H17   H     H_    0.430169 0.731564 0.197445 0.253329
H18   H     H_    0.340830 0.709901 0.193231 0.194104
N4    N     N_2   0.601856 0.681572 0.640897 -0.359189
H19   H     H_    0.648749 0.690044 0.607599 0.270201
C50   C     C_3   0.606974 0.690483 0.773509 -0.638034
H20   H     H_    0.598462 0.636569 0.817628 0.247417
H21   H     H_    0.569870 0.731570 0.802569 0.253294
H22   H     H_    0.659198 0.709886 0.806763 0.194080
N5    N     N_2   0.394421 0.839239 0.362584 -0.428150
H23   H     H_    0.346576 0.814960 0.354139 0.252679
C51   C     C_3   0.412372 0.880562 0.255408 -0.660983
H24   H     H_    0.396687 0.938917 0.265428 0.230852
H25   H     H_    0.384807 0.857725 0.170695 0.208294
H26   H     H_    0.468490 0.878770 0.243979 0.245055
N6    N     N_2   0.605544 0.839280 0.637473 -0.428160
H27   H     H_    0.653395 0.815029 0.645917 0.252656
C52   C     C_3   0.587585 0.880597 0.744645 -0.660940
H28   H     H_    0.603276 0.938956 0.734637 0.230842
H29   H     H_    0.615140 0.857764 0.829365 0.208238
H30   H     H_    0.531464 0.878794 0.756055 0.245069
N7    N     N_2   0.613815 0.077351 0.415762 -0.432482
H31   H     H_    0.659714 0.049581 0.432578 0.249064
C53   C     C_3   0.603731 0.102111 0.289182 -0.671781
H32   H     H_    0.649460 0.133842 0.264954 0.234363
H33   H     H_    0.558134 0.138678 0.276269 0.240667
H34   H     H_    0.596775 0.054025 0.226047 0.213768
N8    N     N_2   0.386145 0.077338 0.584178 -0.432480
H35   H     H_    0.340240 0.049574 0.567279 0.249049
C54   C     C_3   0.396184 0.102074 0.710782 -0.671628
H36   H     H_    0.350469 0.133850 0.734932 0.234412
H37   H     H_    0.441821 0.138593 0.723800 0.240640
H38   H     H_    0.403045 0.053974 0.773906 0.213717
N9    N     N_2   0.548876 0.771473 0.103617 -0.448160
H39   H     H_    0.558200 0.811030 0.038826 0.254219
C55   C     C_3   0.597594 0.772235 0.211033 -0.726160
H40   H     H_    0.611126 0.830102 0.235860 0.221182
H41   H     H_    0.645243 0.742425 0.191244 0.236885
H42   H     H_    0.574496 0.747188 0.291275 0.235042
N10   N     N_2   0.451193 0.771473 0.896345 -0.448155
H43   H     H_    0.441987 0.811090 0.961097 0.254275
C56   C     C_3   0.402372 0.772223 0.789074 -0.726150
H44   H     H_    0.388838 0.830089 0.764255 0.221155
H45   H     H_    0.354739 0.742426 0.809038 0.236930
H46   H     H_    0.425376 0.747157 0.708757 0.235030
C57   C     C_2   0.696521 0.370594 0.371719 0.375461
H47   H     H_    0.673336 0.334523 0.436400 0.082130
O9    O     O_2   0.688077 0.357876 0.261355 -0.549395
C58   C     C_2   0.303424 0.370495 0.627983 0.375615
H48   H     H_    0.326589 0.334476 0.563212 0.082036
O10   O     O_2   0.311863 0.357681 0.738314 -0.549385
N11   N     N_2   0.841074 0.376017 0.339749 -0.456162
H49   H     H_    0.818601 0.324849 0.345661 0.258018
C59   C     C_3   0.857403 0.394772 0.216028 -0.589334
H50   H     H_    0.884597 0.347917 0.175623 0.207242
H51   H     H_    0.891574 0.443794 0.217219 0.245967
H52   H     H_    0.809566 0.406378 0.157124 0.252997
N12   N     N_2   0.158880 0.375897 0.659977 -0.456152
H53   H     H_    0.181328 0.324732 0.653928 0.258002
C60   C     C_3   0.142563 0.394544 0.783747 -0.589330
H54   H     H_    0.115356 0.347654 0.824041 0.207236
H55   H     H_    0.108408 0.443565 0.782681 0.245948
H56   H     H_    0.190405 0.406101 0.842671 0.252998
N13   N     N_2   0.716115 0.634462 0.463203 -0.421380
H57   H     H_    0.678315 0.636902 0.391582 0.262322
C61   C     C_3   0.758603 0.700149 0.470650 -0.751300
H58   H     H_    0.725538 0.749664 0.455340 0.216236
H59   H     H_    0.795867 0.699091 0.398483 0.275375
H60   H     H_    0.785701 0.705125 0.563859 0.229373
N14   N     N_2   0.283944 0.634438 0.536994 -0.421402
H61   H     H_    0.321743 0.636845 0.608618 0.262331
C62   C     C_3   0.241493 0.700139 0.529597 -0.751391
H62   H     H_    0.274586 0.749638 0.544936 0.216305
H63   H     H_    0.204229 0.699075 0.601766 0.275327
H64   H     H_    0.214395 0.705142 0.436395 0.229368
C63   C     C_2   0.943554 0.623887 0.396106 0.293507
H65   H     H_    0.967707 0.677096 0.412371 0.057109
O11   O     O_2   0.899404 0.618521 0.310714 -0.536733
C64   C     C_2   0.056479 0.623796 0.604274 0.293496
H66   H     H_    0.032295 0.676997 0.588224 0.057147
O12   O     O_2   0.100675 0.618375 0.689577 -0.536725

loop_
_geom_bond_atom_site_label_1
_geom_bond_atom_site_label_2
_ccdc_geom_bond_type
C61   H60   S    
C20   N6    S    
C9    C45   A    
C33   H8    S    
Cu1   O2    S    
N10   H43   S    
C54   H37   S    
C48   N12   S    
C52   H28   S    
N5    H23   S    
C59   H52   S    
N10   C56   S    
N4    H19   S    
C52   H30   S    
C62   H62   S    
N12   H53   S    
C49   H16   S    
C45   C57   S    
C18   N1    A    
N11   C59   S    
C60   H55   S    
C53   H32   S    
C23   C42   S    
Cu1   N1    S    
C47   N11   S    
C64   H66   S    
C35   C37   A    
Cu2   O3    S    
C24   C26   A    
C55   H40   S    
C19   N5    S    
Cu2   O8    S    
C4    C48   A    
C11   C14   A    
C56   H46   S    
C22   C41   S    
C27   N8    S    
C15   C16   A    
C18   N4    S    
C35   H9    S    
C4    C13   S    
C24   C29   A    
C1    O1    A    
C38   N10   S    
C64   O12   D    
C63   H65   S    
N14   H61   S    
Cu1   O6    S    
C10   C46   A    
C54   H36   S    
C31   C33   A    
C31   H6    S    
C63   O11   D    
C26   N7    S    
C55   H42   S    
C44   H2    S    
C45   C47   A    
C60   H54   S    
C28   C34   S    
N6    C52   S    
N12   C60   S    
C36   H10   S    
C41   C43   A    
C42   C44   A    
C32   H7    S    
C12   C64   S    
N4    C50   S    
C33   N2    A    
C39   C42   A    
C56   H45   S    
C25   C29   A    
C60   H56   S    
C46   C48   A    
C31   C34   A    
C30   C34   A    
C57   H47   S    
C25   H4    S    
C4    C6    A    
C62   H64   S    
C39   C40   A    
C5    C7    A    
C6    C8    A    
C59   H51   S    
C24   H3    S    
C21   C29   S    
C1    O3    A    
N13   C61   S    
N3    H15   S    
C37   C38   A    
C17   N1    A    
N8    C54   S    
C50   H20   S    
C11   C12   A    
C52   H29   S    
C49   H17   S    
C5    H11   S    
N9    C55   S    
N6    H27   S    
C20   C21   A    
C51   H26   S    
N3    C49   S    
C3    C14   S    
C8    C10   A    
C40   C41   A    
C50   H21   S    
C53   H34   S    
C13   C15   A    
C43   C44   A    
C54   H38   S    
C14   C16   A    
Cu2   O7    S    
C8    N14   S    
C51   H25   S    
C23   O8    A    
C59   H50   S    
C22   O5    A    
C7    N13   S    
C32   N2    A    
N11   H49   S    
N8    H35   S    
C49   H18   S    
C61   H59   S    
C58   O10   D    
Cu1   O1    S    
N9    H39   S    
N14   C62   S    
C26   C28   A    
C23   O6    A    
C46   C58   S    
C36   C39   A    
C1    C10   S    
C3    C5    A    
C56   H44   S    
Cu2   N2    S    
C25   C27   A    
C30   H5    S    
C2    O2    A    
N7    H31   S    
C6    H12   S    
C62   H63   S    
C35   C40   A    
Cu2   O4    S    
N13   H57   S    
C36   C38   A    
C30   C32   A    
C43   H1    S    
C58   H48   S    
C3    C47   A    
C17   C19   A    
C18   C20   A    
C37   N9    S    
C57   O9    D    
C11   C63   S    
C7    C9    A    
C50   H22   S    
C12   C13   A    
C53   H33   S    
Cu1   Cu2   S    
Cu1   O5    S    
C27   C28   A    
C17   N3    S    
N5    C51   S    
C15   H13   S    
C16   H14   S    
C22   O7    A    
C55   H41   S    
C51   H24   S    
C2    O4    A    
C2    C9    S    
N7    C53   S    
C61   H58   S    
C19   C21   A    
