data_mof_unit_28928.cif
_audit_creation_date              2012-12-11T15:08:31-0500
_audit_creation_method            fapswitch 2.2
_symmetry_space_group_name_H-M    P1
_symmetry_Int_Tables_number       1
_space_group_crystal_system       triclinic
_cell_length_a                    26.912532
_cell_length_b                    7.170082
_cell_length_c                    12.504796
_cell_angle_alpha                 90.00029
_cell_angle_beta                  104.25317
_cell_angle_gamma                 89.999891
_cell_volume                      2338.7103924

loop_
_atom_site_label
_atom_site_type_symbol
_atom_type_description
_atom_site_fract_x
_atom_site_fract_y
_atom_site_fract_z
_atom_type_partial_charge
O1    O     O_R   0.437360 0.505910 0.042120 -0.538176
O2    O     O_R   0.562640 0.005910 0.957880 -0.538175
O3    O     O_R   0.542480 0.176660 0.157100 -0.545478
O4    O     O_R   0.457520 0.676660 0.842900 -0.545478
C1    C     C_R   0.558122 0.345492 0.194044 0.701242
C2    C     C_R   0.441878 0.845491 0.805955 0.701242
O5    O     O_R   0.436520 0.176250 0.054800 -0.550592
O6    O     O_R   0.563480 0.676250 0.945200 -0.550592
O7    O     O_R   0.455920 0.005040 0.854840 -0.549186
O8    O     O_R   0.544080 0.505040 0.145160 -0.549186
C3    C     C_R   0.416459 0.343125 0.055003 0.722656
C4    C     C_R   0.583541 0.843125 0.944996 0.722657
O9    O     O_3   0.506490 0.338900 0.934520 -0.389495
O10   O     O_3   0.493510 0.838900 0.065480 -0.389495
V1    V     V_3+5 0.498800 0.064400 0.012150 1.396404
V2    V     V_3+5 0.501200 0.564400 0.987850 1.396403
C5    C     C_R   0.680491 0.830597 0.780530 -0.198771
C6    C     C_R   0.319509 0.330594 0.219470 -0.198772
H1    H     H_    0.599576 0.802673 0.751186 0.148967
H2    H     H_    0.400425 0.302666 0.248815 0.148965
H3    H     H_    0.678278 0.816590 0.693423 0.146624
H4    H     H_    0.321723 0.316580 0.306576 0.146623
C7    C     C_R   0.633798 0.844961 0.920833 -0.023634
C8    C     C_R   0.366202 0.344962 0.079166 -0.023632
C9    C     C_R   0.871762 0.898629 0.208074 -0.198747
C10   C     C_R   0.128238 0.398580 0.791925 -0.198754
C11   C     C_R   0.826828 0.930339 0.240651 -0.133034
C12   C     C_R   0.173171 0.430276 0.759345 -0.133022
C13   C     C_R   0.779851 0.925663 0.163344 -0.144517
C14   C     C_R   0.220148 0.425632 0.836651 -0.144512
C15   C     C_R   0.775876 0.865142 0.053847 0.072128
C16   C     C_R   0.224123 0.365137 0.946152 0.072131
C17   C     C_R   0.822086 0.837832 0.020033 0.028999
C18   C     C_R   0.177914 0.337835 0.979967 0.029002
C19   C     C_R   0.727686 0.846079 0.974943 0.018522
C20   C     C_R   0.272314 0.346081 0.025056 0.018513
C21   C     C_R   0.727405 0.838452 0.860355 0.103903
C22   C     C_R   0.272596 0.338456 0.139644 0.103895
C23   C     C_R   0.773725 0.821445 0.827492 0.172297
C24   C     C_R   0.226276 0.321450 0.172508 0.172299
C25   C     C_R   0.819848 0.806535 0.907890 -0.193759
C26   C     C_R   0.180152 0.306544 0.092110 -0.193762
C27   C     C_R   0.679613 0.829995 0.004438 0.092351
C28   C     C_R   0.320388 0.329995 0.995561 0.092349
C29   C     C_R   0.634842 0.828778 0.811635 -0.233070
C30   C     C_R   0.365158 0.328774 0.188366 -0.233061
C31   C     C_R   0.869976 0.859475 0.097794 -0.058138
C32   C     C_R   0.130024 0.359469 0.902206 -0.058134
H5    H     H_    0.908231 0.914767 0.267888 0.106308
H6    H     H_    0.091769 0.414697 0.732110 0.106308
H7    H     H_    0.747301 0.977258 0.190113 0.139098
H8    H     H_    0.252697 0.477222 0.809877 0.139099
H9    H     H_    0.828632 0.970003 0.325055 0.139100
H10   H     H_    0.171367 0.469908 0.674938 0.139104
H11   H     H_    0.854726 0.786692 0.880884 0.119737
H12   H     H_    0.145275 0.286700 0.119117 0.119736
C33   C     C_R   0.091716 0.866553 0.307604 -0.035637
C34   C     C_R   0.908282 0.366550 0.692398 -0.035636
C35   C     C_R   0.407887 0.864468 0.695095 -0.067988
C36   C     C_R   0.592112 0.364471 0.304905 -0.067986
C37   C     C_R   0.105152 0.806206 0.501792 -0.170979
C38   C     C_R   0.894844 0.306214 0.498207 -0.170988
C39   C     C_R   0.073490 0.800735 0.395497 -0.172308
C40   C     C_R   0.926507 0.300730 0.604502 -0.172299
C41   C     C_R   0.142599 0.932647 0.328192 -0.231704
C42   C     C_R   0.857399 0.432645 0.671813 -0.231712
C43   C     C_R   0.178752 0.884749 0.427695 0.039878
C44   C     C_R   0.821246 0.384754 0.572310 0.039891
C45   C     C_R   0.157722 0.850951 0.519328 0.130999
C46   C     C_R   0.842275 0.350969 0.480674 0.130985
C47   C     C_R   0.233951 0.875825 0.441904 -0.006710
C48   C     C_R   0.766047 0.375833 0.558101 -0.006715
C49   C     C_R   0.265606 0.870464 0.553454 0.014048
C50   C     C_R   0.734392 0.370485 0.446549 0.014051
C51   C     C_R   0.242077 0.877853 0.642313 -0.193643
C52   C     C_R   0.757921 0.377905 0.357689 -0.193644
C53   C     C_R   0.188975 0.870674 0.626217 0.131436
C54   C     C_R   0.811023 0.370730 0.373786 0.131419
C55   C     C_R   0.259923 0.867360 0.352917 -0.010452
C56   C     C_R   0.740074 0.367366 0.647087 -0.010450
C57   C     C_R   0.312874 0.901149 0.378542 -0.265130
C58   C     C_R   0.687123 0.401156 0.621459 -0.265126
C59   C     C_R   0.342269 0.911609 0.485749 0.098558
C60   C     C_R   0.657729 0.411615 0.514252 0.098556
C61   C     C_R   0.320335 0.873415 0.574057 0.106638
C62   C     C_R   0.679663 0.373426 0.425945 0.106639
C63   C     C_R   0.394605 0.951143 0.503904 -0.211506
C64   C     C_R   0.605392 0.451146 0.496095 -0.211506
C65   C     C_R   0.427400 0.932978 0.608326 0.009542
C66   C     C_R   0.572598 0.432981 0.391673 0.009543
C67   C     C_R   0.354479 0.840620 0.678986 -0.248221
C68   C     C_R   0.645520 0.340626 0.321016 -0.248225
H13   H     H_    0.340691 0.795018 0.748847 0.102671
H14   H     H_    0.659309 0.295020 0.251157 0.102674
H15   H     H_    0.333557 0.907403 0.315030 0.122160
H16   H     H_    0.666439 0.407409 0.684969 0.122158
H17   H     H_    0.088584 0.768720 0.569331 0.125021
H18   H     H_    0.911411 0.268731 0.430663 0.125018
H19   H     H_    0.034043 0.755529 0.382732 0.108384
H20   H     H_    0.965954 0.255520 0.617264 0.108384
H21   H     H_    0.154456 0.004322 0.262713 0.142652
H22   H     H_    0.845543 0.504318 0.737294 0.142650
H23   H     H_    0.264659 0.896048 0.725803 0.124389
H24   H     H_    0.735339 0.396127 0.274200 0.124387
H25   H     H_    0.410232 0.994806 0.435755 0.120819
H26   H     H_    0.589764 0.494806 0.564244 0.120820
O11   O     O_R   0.955980 0.206520 0.854760 -0.547789
O12   O     O_R   0.044020 0.706520 0.145240 -0.547790
O13   O     O_R   0.063490 0.536770 0.945200 -0.555329
O14   O     O_R   0.936510 0.036770 0.054800 -0.555329
C69   C     C_R   0.081790 0.367768 0.936379 0.665951
C70   C     C_R   0.918210 0.867769 0.063621 0.665957
O15   O     O_R   0.957530 0.536190 0.842880 -0.542231
O16   O     O_R   0.042470 0.036190 0.157120 -0.542232
O17   O     O_R   0.937350 0.707210 0.042130 -0.538177
O18   O     O_R   0.062650 0.207210 0.957870 -0.538176
C71   C     C_R   0.942471 0.369156 0.804581 0.679901
C72   C     C_R   0.057529 0.869157 0.195419 0.679906
O19   O     O_3   0.993540 0.373870 0.065440 -0.379296
O20   O     O_3   0.006460 0.873870 0.934560 -0.379295
V3    V     V_3+5 0.001200 0.648440 0.987860 1.402238
V4    V     V_3+5 0.998800 0.148440 0.012140 1.402239
C73   C     C_R   0.481933 0.982630 0.622249 0.047192
C74   C     C_R   0.502641 0.143910 0.680234 -0.093254
C75   C     C_R   0.553175 0.196310 0.684774 -0.127424
C76   C     C_R   0.581824 0.094783 0.625408 -0.118054
C77   C     C_R   0.560831 0.938439 0.564506 -0.165335
C78   C     C_R   0.511946 0.878399 0.567249 -0.168126
H27   H     H_    0.479415 0.231268 0.719168 0.139939
H28   H     H_    0.569577 0.318104 0.731481 0.115460
H29   H     H_    0.621015 0.131146 0.629746 0.139510
H30   H     H_    0.583505 0.858432 0.520425 0.131436
H31   H     H_    0.497368 0.750621 0.527093 0.161839
C79   C     C_R   0.518065 0.482629 0.377750 0.047193
C80   C     C_R   0.497356 0.643908 0.319765 -0.093256
C81   C     C_R   0.446822 0.696308 0.315227 -0.127427
C82   C     C_R   0.418175 0.594779 0.374594 -0.118049
C83   C     C_R   0.439167 0.438435 0.435495 -0.165336
C84   C     C_R   0.488053 0.378397 0.432751 -0.168126
H32   H     H_    0.520581 0.731268 0.280832 0.139939
H33   H     H_    0.430419 0.818101 0.268521 0.115460
H34   H     H_    0.378984 0.631142 0.370258 0.139511
H35   H     H_    0.416494 0.358427 0.479576 0.131435
H36   H     H_    0.502632 0.250620 0.472907 0.161840
C85   C     C_R   0.235234 0.829405 0.233063 0.113354
C86   C     C_R   0.191534 0.718505 0.202776 -0.156047
C87   C     C_R   0.161582 0.721597 0.095945 -0.135605
C88   C     C_R   0.179212 0.803268 0.011762 -0.077108
C89   C     C_R   0.227537 0.884847 0.036339 -0.116984
C90   C     C_R   0.255096 0.900480 0.146042 -0.106806
H37   H     H_    0.176982 0.644125 0.263549 0.136763
H38   H     H_    0.125168 0.656391 0.080983 0.155254
H39   H     H_    0.155744 0.799264 0.928530 0.128970
H40   H     H_    0.243072 0.943508 0.971927 0.110521
H41   H     H_    0.290637 0.975316 0.159774 0.114631
C91   C     C_R   0.764761 0.329410 0.766942 0.113357
C92   C     C_R   0.808462 0.218516 0.797234 -0.156054
C93   C     C_R   0.838411 0.221609 0.904069 -0.135603
C94   C     C_R   0.820775 0.303258 0.988251 -0.077097
C95   C     C_R   0.772448 0.384824 0.963668 -0.116984
C96   C     C_R   0.744894 0.400472 0.853962 -0.106803
H42   H     H_    0.823018 0.144140 0.736463 0.136763
H43   H     H_    0.874829 0.156425 0.919033 0.155251
H44   H     H_    0.844239 0.299247 0.071485 0.128960
H45   H     H_    0.756907 0.443460 0.028079 0.110517
H46   H     H_    0.709352 0.475305 0.840228 0.114628
C97   C     C_3   0.774969 0.823380 0.706986 -0.817670
H47   H     H_    0.814604 0.818168 0.695812 0.206961
H48   H     H_    0.753556 0.705964 0.662647 0.225195
H49   H     H_    0.755941 0.950524 0.665789 0.212395
C98   C     C_3   0.225032 0.323377 0.293014 -0.817674
H50   H     H_    0.185397 0.318167 0.304188 0.206958
H51   H     H_    0.246444 0.205956 0.337348 0.225195
H52   H     H_    0.244061 0.450516 0.334216 0.212397
C99   C     C_3   0.675218 0.756770 0.115840 -0.827717
H53   H     H_    0.645431 0.646649 0.105290 0.213214
H54   H     H_    0.710577 0.685342 0.161529 0.212177
H55   H     H_    0.664497 0.871259 0.165618 0.204594
C100  C     C_3   0.324784 0.256758 0.884162 -0.827708
H56   H     H_    0.354570 0.146636 0.894716 0.213215
H57   H     H_    0.289424 0.185325 0.838473 0.212182
H58   H     H_    0.335505 0.371243 0.834381 0.204592
C101  C     C_3   0.165843 0.908375 0.722090 -0.797917
H59   H     H_    0.195505 0.945873 0.797067 0.208307
H60   H     H_    0.139011 0.028066 0.702195 0.223913
H61   H     H_    0.144405 0.785530 0.739653 0.206473
C102  C     C_3   0.834157 0.408483 0.277918 -0.797827
H62   H     H_    0.804495 0.446055 0.202944 0.208299
H63   H     H_    0.860995 0.528158 0.297844 0.223904
H64   H     H_    0.855587 0.285627 0.260323 0.206452

loop_
_geom_bond_atom_site_label_1
_geom_bond_atom_site_label_2
_ccdc_geom_bond_type
C52   H24   S    
C59   C63   A    
C98   H50   S    
C76   C77   A    
C7    C29   A    
C11   C13   A    
C48   C50   A    
C42   H22   S    
C42   C44   A    
C87   C88   A    
O1    C3    A    
C41   H21   S    
O12   V3    S    
C82   H34   S    
O2    C4    A    
C2    O7    A    
C47   C55   A    
C85   C86   A    
C61   C67   A    
C73   C74   A    
C97   H48   S    
C10   H6    S    
O5    C3    A    
C98   H51   S    
C4    C7    S    
C92   C93   A    
C50   C52   A    
O17   V3    S    
C16   C20   A    
C91   C92   A    
C19   C21   A    
C5    C29   A    
C83   H35   S    
C101  H60   S    
O10   V1    S    
C66   C79   S    
C46   C54   A    
C17   C31   A    
C31   C70   S    
C3    C8    S    
C7    C27   A    
C38   C46   A    
C35   C65   A    
C37   C39   A    
C77   H30   S    
C25   H11   S    
C102  H64   S    
C38   C40   A    
C26   H12   S    
C38   H18   S    
C45   C53   A    
C75   H28   S    
C34   C42   A    
C99   H53   S    
C41   C43   A    
C18   C26   A    
C39   H19   S    
C15   C17   A    
C56   C91   S    
C69   O18   A    
C99   H55   S    
C19   C27   A    
C9    C31   A    
C85   C90   A    
C10   C32   A    
C100  H58   S    
C24   C26   A    
O6    V2    S    
C22   C24   A    
C51   H23   S    
C49   C51   A    
C27   C99   S    
C13   C15   A    
C6    C30   A    
C28   C100  S    
C1    O8    A    
C57   C59   A    
O20   V4    S    
C33   C39   A    
C97   H49   S    
O14   C70   A    
C36   C68   A    
C34   C40   A    
C80   H32   S    
C98   H52   S    
C74   C75   A    
C58   H16   S    
O12   C72   A    
C80   C81   A    
C88   C89   A    
C55   C85   S    
C101  H61   S    
C33   C41   A    
C97   H47   S    
C47   C49   A    
C12   H10   S    
C35   C67   A    
C65   C73   S    
C34   C71   S    
C5    H3    S    
H1    C29   S    
C86   H37   S    
C44   C48   A    
C43   C45   A    
C16   C18   A    
O4    V2    S    
C89   H40   S    
C101  H59   S    
C81   H33   S    
C67   H13   S    
C64   H26   S    
C84   H36   S    
C102  H62   S    
C94   C95   A    
C63   H25   S    
O6    C4    A    
C68   H14   S    
O1    V2    S    
C5    C21   A    
C95   H45   S    
C50   C62   A    
O2    V1    S    
C51   C53   A    
C49   C61   A    
O16   C72   A    
O19   V3    S    
O18   V4    S    
C93   H43   S    
O15   C71   A    
C56   C58   A    
C59   C61   A    
C64   C66   A    
C91   C96   A    
C99   H54   S    
C58   C60   A    
C90   H41   S    
C63   C65   A    
C93   C94   A    
C8    C28   A    
C15   C19   A    
C20   C28   A    
O4    C2    A    
C18   C32   A    
C88   H39   S    
C77   C78   A    
C79   C84   A    
O3    V1    S    
O20   V3    S    
C55   C57   A    
C86   C87   A    
C13   H7    S    
O19   V4    S    
C37   C45   A    
C14   H8    S    
C1    C36   S    
C6    H4    S    
C2    C35   S    
C37   H17   S    
C60   C64   A    
C52   C54   A    
C81   C82   A    
O3    C1    A    
C11   H9    S    
C79   C80   A    
C36   C66   A    
C9    C11   A    
C82   C83   A    
C10   C12   A    
C8    C30   A    
C95   C96   A    
O13   C69   A    
C87   H38   S    
C6    C22   A    
C17   C25   A    
C12   C14   A    
C21   C23   A    
C62   C68   A    
C78   H31   S    
O14   V4    S    
C20   C22   A    
C14   C16   A    
O13   V3    S    
C73   C78   A    
C75   C76   A    
C76   H29   S    
C57   H15   S    
O5    V1    S    
C53   C101  S    
C74   H27   S    
C43   C47   A    
C24   C98   S    
C23   C97   S    
C9    H5    S    
C102  H63   S    
C83   C84   A    
C96   H46   S    
C100  H56   S    
O16   V4    S    
C40   H20   S    
C32   C69   S    
O15   V3    S    
C23   C25   A    
C48   C56   A    
O9    V2    S    
C44   C46   A    
C94   H44   S    
C60   C62   A    
O8    V2    S    
C54   C102  S    
O11   V4    S    
C89   C90   A    
C92   H42   S    
O11   C71   A    
C70   O17   A    
H2    C30   S    
O7    V1    S    
C33   C72   S    
C100  H57   S    
