data_mof_unit_29628.cif
_audit_creation_date              2012-12-10T17:40:28-0500
_audit_creation_method            fapswitch 2.2
_symmetry_space_group_name_H-M    P1
_symmetry_Int_Tables_number       1
_space_group_crystal_system       triclinic
_cell_length_a                    13.787387
_cell_length_b                    15.06273
_cell_length_c                    15.740131
_cell_angle_alpha                 89.839727
_cell_angle_beta                  70.065948
_cell_angle_gamma                 88.867144
_cell_volume                      3072.36432041

loop_
_atom_site_label
_atom_site_type_symbol
_atom_type_description
_atom_site_fract_x
_atom_site_fract_y
_atom_site_fract_z
_atom_type_partial_charge
C1    C     C_R   0.499353 0.671210 0.499870 0.809720
C2    C     C_R   0.500676 0.328572 0.499823 0.807346
C3    C     C_R   0.374751 0.554139 0.096706 -0.311893
C4    C     C_R   0.621619 0.555511 0.904368 -0.305506
C5    C     C_R   0.301683 0.553469 0.053251 0.403297
C6    C     C_R   0.694705 0.554824 0.947850 0.405393
C7    C     C_R   0.568230 0.183644 0.532858 -0.213551
C8    C     C_R   0.428438 0.815246 0.469773 -0.215680
C9    C     C_R   0.501100 0.231568 0.499464 -0.092621
C10   C     C_R   0.498425 0.767798 0.500106 -0.096156
C11   C     C_R   0.432106 0.186800 0.467486 -0.211763
C12   C     C_R   0.568213 0.812569 0.530679 -0.216109
C13   C     C_R   0.430871 0.094294 0.467450 0.068383
C14   C     C_R   0.567937 0.904849 0.531928 0.072892
C15   C     C_R   0.499353 0.046061 0.500311 -0.006606
C16   C     C_R   0.498596 0.953015 0.500122 0.002716
C17   C     C_R   0.567640 0.090880 0.534426 0.018794
C18   C     C_R   0.428573 0.908032 0.468272 0.009239
C19   C     C_R   0.361576 0.049478 0.435862 -0.292550
C20   C     C_R   0.635180 0.949323 0.565672 -0.314223
C21   C     C_R   0.360432 0.956676 0.435411 0.422689
C22   C     C_R   0.632416 0.042198 0.570995 0.459140
C23   C     C_R   0.437173 0.502324 0.672551 0.779770
C24   C     C_R   0.562633 0.502008 0.327505 0.793388
C25   C     C_R   0.200380 0.578589 0.505271 0.554388
C26   C     C_R   0.791078 0.423099 0.516226 0.597622
C27   C     C_R   0.209725 0.421385 0.494926 -0.102312
C28   C     C_R   0.798472 0.577070 0.483494 -0.115083
C29   C     C_R   0.107334 0.419328 0.494555 -0.007479
C30   C     C_R   0.900886 0.579234 0.483758 0.004304
C31   C     C_R   0.055031 0.499436 0.490741 0.056064
C32   C     C_R   0.951849 0.499358 0.491031 0.043180
C33   C     C_R   0.103613 0.579869 0.491841 -0.088886
C34   C     C_R   0.898096 0.419812 0.503085 -0.083214
C35   C     C_R   0.055330 0.339157 0.499873 -0.222318
C36   C     C_R   0.952905 0.659387 0.478233 -0.199431
C37   C     C_R   0.951265 0.339479 0.505962 -0.172463
C38   C     C_R   0.052132 0.659924 0.484451 -0.192087
C39   C     C_R   0.399671 0.513417 0.771414 -0.052727
C40   C     C_R   0.599226 0.512811 0.228825 -0.052295
C41   C     C_R   0.261902 0.536626 0.914543 -0.172212
C42   C     C_R   0.735427 0.537531 0.086115 -0.170485
C43   C     C_R   0.294318 0.522509 0.821391 -0.214538
C44   C     C_R   0.703938 0.523145 0.179019 -0.212845
C45   C     C_R   0.471758 0.519825 0.815435 -0.231153
C46   C     C_R   0.526592 0.517938 0.184945 -0.226818
C47   C     C_R   0.441530 0.536792 0.908536 0.057188
C48   C     C_R   0.555769 0.536045 0.092183 0.048918
C49   C     C_R   0.334447 0.542577 0.959122 0.071817
C50   C     C_R   0.662483 0.543041 0.041716 0.071059
C51   C     C_R   0.515384 0.544533 0.952679 0.004790
C52   C     C_R   0.481519 0.543959 0.048187 0.004614
Cu1   Cu    Cu3+1 0.402580 0.500010 0.499990 0.956484
Cu2   Cu    Cu3+1 0.597420 0.499990 0.500010 0.952535
H1    H     H_    0.250002 0.359160 0.494121 0.160230
H2    H     H_    0.762351 0.638215 0.472695 0.163648
H3    H     H_    0.093901 0.276409 0.502621 0.146073
H4    H     H_    0.915497 0.721910 0.472437 0.139658
H5    H     H_    0.912508 0.276662 0.512930 0.197270
H6    H     H_    0.088463 0.723198 0.483468 0.181785
H7    H     H_    0.447255 0.505148 0.224099 0.153309
H8    H     H_    0.551726 0.509003 0.776090 0.135033
H9    H     H_    0.761495 0.520022 0.211708 0.160221
H10   H     H_    0.236972 0.518467 0.788719 0.148096
H11   H     H_    0.179843 0.541965 0.951604 0.169158
H12   H     H_    0.817142 0.543723 0.049133 0.170931
H13   H     H_    0.345853 0.566970 0.168504 0.158162
H14   H     H_    0.649728 0.569496 0.832940 0.152162
H15   H     H_    0.619703 0.218722 0.558900 0.225363
H16   H     H_    0.375186 0.779491 0.446076 0.218016
H17   H     H_    0.379879 0.223976 0.441842 0.138894
H18   H     H_    0.621552 0.775541 0.555195 0.145565
H19   H     H_    0.307733 0.086375 0.411928 0.155144
H20   H     H_    0.689063 0.911891 0.589105 0.147616
N1    N     N_R   0.256170 0.500070 0.500040 -0.220339
N2    N     N_R   0.743830 0.499930 0.499960 -0.231398
O1    O     O_R   0.417730 0.629750 0.499970 -0.520846
O2    O     O_R   0.582270 0.370250 0.500030 -0.533434
O3    O     O_R   0.582270 0.629730 0.499980 -0.602901
O4    O     O_R   0.417730 0.370270 0.500020 -0.601564
O5    O     O_R   0.371590 0.500020 0.629830 -0.582536
O6    O     O_R   0.628410 0.499980 0.370170 -0.577725
O7    O     O_R   0.536130 0.499990 0.629840 -0.597289
O8    O     O_R   0.463870 0.500010 0.370160 -0.582512
O9    O     O_3   0.198583 0.570111 0.102360 -0.618312
C53   C     C_3   0.155956 0.493641 0.152204 0.033943
H21   H     H_    0.197252 0.474591 0.199506 0.143585
H22   H     H_    0.159947 0.437108 0.105476 0.140442
C54   C     C_3   0.042915 0.513374 0.207937 -0.316087
H23   H     H_    0.038441 0.568276 0.256321 0.231916
H24   H     H_    0.000654 0.534818 0.162300 0.217354
C55   C     C_3   0.991151 0.431898 0.260583 -0.911624
H25   H     H_    0.991054 0.377252 0.213381 0.253417
H26   H     H_    0.910036 0.449050 0.301824 0.258700
H27   H     H_    0.032497 0.408942 0.306319 0.267599
O10   O     O_3   0.796791 0.573202 0.899634 -0.613745
C56   C     C_3   0.843790 0.499656 0.844460 0.046270
H28   H     H_    0.807488 0.488039 0.792265 0.142555
H29   H     H_    0.837636 0.438650 0.886153 0.138273
C57   C     C_3   0.957913 0.518959 0.796465 -0.331275
H30   H     H_    0.964782 0.579814 0.754889 0.218753
H31   H     H_    0.995568 0.530891 0.847507 0.215752
C58   C     C_3   0.013627 0.442056 0.735340 -0.936420
H32   H     H_    0.009800 0.380738 0.775606 0.259332
H33   H     H_    0.095898 0.458572 0.701028 0.251448
H34   H     H_    0.977837 0.429988 0.683215 0.269107
O11   O     O_3   0.233671 0.656408 0.531022 -0.579262
C59   C     C_3   0.186073 0.665975 0.625718 0.063137
H35   H     H_    0.202920 0.607397 0.662130 0.152448
H36   H     H_    0.100953 0.674540 0.644370 0.130753
C60   C     C_3   0.226259 0.748008 0.657887 -0.757665
H37   H     H_    0.215863 0.807205 0.619399 0.260978
H38   H     H_    0.183102 0.759308 0.730848 0.196954
H39   H     H_    0.309204 0.738560 0.648698 0.244323
O12   O     O_3   0.732965 0.350717 0.554605 -0.586045
C61   C     C_3   0.691836 0.362764 0.649748 0.109173
H40   H     H_    0.611170 0.339417 0.673562 0.157173
H41   H     H_    0.688566 0.433174 0.672570 0.125499
C62   C     C_3   0.753057 0.308092 0.696385 -0.918763
H42   H     H_    0.827447 0.340097 0.687998 0.242549
H43   H     H_    0.708686 0.303612 0.769802 0.217839
H44   H     H_    0.768614 0.240323 0.667077 0.289914
O13   O     O_3   0.286920 0.914192 0.409454 -0.609776
C63   C     C_3   0.329751 0.890937 0.317005 0.033199
H45   H     H_    0.410235 0.863683 0.298674 0.135343
H46   H     H_    0.330198 0.950514 0.274894 0.150724
C64   C     C_3   0.263260 0.819668 0.296475 -0.325683
H47   H     H_    0.258865 0.761740 0.341504 0.230300
H48   H     H_    0.183777 0.846738 0.310108 0.226094
C65   C     C_3   0.307579 0.788361 0.198362 -0.896707
H49   H     H_    0.312596 0.844982 0.151796 0.255818
H50   H     H_    0.256577 0.737691 0.185776 0.280639
H51   H     H_    0.385623 0.757985 0.184253 0.257533
O14   O     O_3   0.696294 0.086112 0.607865 -0.619398
C66   C     C_3   0.666477 0.069186 0.701917 0.044085
H52   H     H_    0.729800 0.091688 0.724775 0.171128
H53   H     H_    0.658046 0.997178 0.718170 0.134542
C67   C     C_3   0.566955 0.120589 0.755164 -0.375074
H54   H     H_    0.573901 0.191343 0.734734 0.225383
H55   H     H_    0.500608 0.092799 0.739921 0.212130
C68   C     C_3   0.545177 0.114983 0.856744 -0.906129
H56   H     H_    0.536910 0.044639 0.879011 0.257880
H57   H     H_    0.472308 0.151812 0.893193 0.255668
H58   H     H_    0.608845 0.145080 0.874297 0.253796

loop_
_geom_bond_atom_site_label_1
_geom_bond_atom_site_label_2
_ccdc_geom_bond_type
C66   C67   S    
C27   C29   A    
C34   C37   A    
C1    O1    A    
Cu1   O1    S    
C60   H37   S    
C56   H28   S    
C28   H2    S    
O13   C63   S    
C47   C49   A    
Cu1   Cu2   S    
C61   H40   S    
C40   C46   A    
C23   O7    A    
C22   O14   S    
Cu1   O8    S    
C35   C37   A    
Cu2   O3    S    
C36   H4    S    
C68   H57   S    
C11   H17   S    
O12   C61   S    
C18   C21   A    
C45   H8    S    
C59   H35   S    
Cu1   O5    S    
C24   O6    A    
C26   O12   S    
C57   H30   S    
C26   C34   A    
C61   H41   S    
C7    C17   A    
C26   N2    A    
O11   C59   S    
C31   C33   A    
C54   H24   S    
C66   H52   S    
C39   C45   A    
C5    O9    S    
C48   C50   A    
C12   H18   S    
C41   C43   A    
C5    C49   A    
C60   H39   S    
Cu1   N1    S    
C42   C44   A    
C27   N1    A    
C41   C49   A    
Cu2   O7    S    
C56   H29   S    
C43   H10   S    
C45   C47   A    
C44   H9    S    
C46   C48   A    
C13   C19   A    
C4    C51   A    
C51   C52   A    
C14   C20   A    
C19   H19   S    
Cu1   O4    S    
C4    C6    A    
C68   H58   S    
C4    H14   S    
C53   H21   S    
C39   C43   A    
C46   H7    S    
O9    C53   S    
C53   C54   S    
C55   H27   S    
C8    C18   A    
C25   N1    A    
C32   C34   A    
C21   O13   S    
C65   H50   S    
C64   H48   S    
C2    O2    A    
C31   C32   A    
C40   C44   A    
C62   H42   S    
O10   C56   S    
C55   H26   S    
C20   H20   S    
C60   H38   S    
C6    C50   A    
C54   C55   S    
C9    C11   A    
C37   H5    S    
C62   H43   S    
C10   C12   A    
C42   C50   A    
C63   C64   S    
C38   H6    S    
C16   C18   A    
C12   C14   A    
C6    O10   S    
C13   C15   A    
C1    O3    A    
C58   H33   S    
C14   C16   A    
C65   H51   S    
C64   H47   S    
C28   N2    A    
Cu2   O6    S    
C56   C57   S    
C25   O11   S    
C63   H46   S    
C57   H31   S    
C62   H44   S    
C66   H53   S    
C23   O5    A    
C19   C21   A    
Cu2   N2    S    
C3    H13   S    
C1    C10   S    
C33   C38   A    
C20   C22   A    
C3    C5    A    
C67   C68   S    
C7    H15   S    
C47   C51   A    
C3    C52   A    
C59   C60   S    
C15   C17   A    
O14   C66   S    
C67   H55   S    
C29   C35   A    
C27   H1    S    
C8    H16   S    
C17   C22   A    
C61   C62   S    
C30   C36   A    
C35   H3    S    
C28   C30   A    
C65   H49   S    
C24   O8    A    
C64   C65   S    
C29   C31   A    
C68   H56   S    
C30   C32   A    
C11   C13   A    
C23   C39   S    
C36   C38   A    
C55   H25   S    
C24   C40   S    
C59   H36   S    
C58   H34   S    
C53   H22   S    
C57   C58   S    
C41   H11   S    
C2    O4    A    
C67   H54   S    
C7    C9    A    
C48   C52   A    
C8    C10   A    
C58   H32   S    
C42   H12   S    
C54   H23   S    
C2    C9    S    
C15   C16   A    
C25   C33   A    
C63   H45   S    
Cu2   O2    S    
