data_mof_unit_29591.cif
_audit_creation_date              2012-12-10T21:11:35-0500
_audit_creation_method            fapswitch 2.2
_symmetry_space_group_name_H-M    P1
_symmetry_Int_Tables_number       1
_space_group_crystal_system       triclinic
_cell_length_a                    17.362837
_cell_length_b                    16.710265
_cell_length_c                    10.71373
_cell_angle_alpha                 91.451437
_cell_angle_beta                  89.583505
_cell_angle_gamma                 90.710282
_cell_volume                      3107.14466151

loop_
_atom_site_label
_atom_site_type_symbol
_atom_type_description
_atom_site_fract_x
_atom_site_fract_y
_atom_site_fract_z
_atom_type_partial_charge
C1    C     C_R   0.353038 0.499464 0.497017 0.988693
C2    C     C_R   0.453262 0.165727 0.416619 0.004197
C3    C     C_R   0.495461 0.746726 0.390330 -0.073821
C4    C     C_R   0.545289 0.254393 0.582084 -0.040768
C5    C     C_R   0.501438 0.749708 0.610448 -0.067102
C6    C     C_R   0.453962 0.250347 0.419271 -0.074914
C7    C     C_R   0.499508 0.875926 0.501149 0.115677
C8    C     C_R   0.499669 0.124724 0.501075 0.108268
C9    C     C_1   0.499674 0.963827 0.501490 0.007361
C10   C     C_1   0.499698 0.036844 0.501385 0.010757
C11   C     C_R   0.515699 0.498934 0.262511 0.894112
C12   C     C_R   0.648463 0.500123 0.496657 0.875359
C13   C     C_R   0.500749 0.501050 0.742458 0.931328
C14   C     C_R   0.604465 0.630083 0.130343 0.123217
C15   C     C_R   0.441231 0.370752 0.900917 0.157281
C16   C     C_R   0.596067 0.628107 0.874011 0.131776
C17   C     C_R   0.536264 0.346273 0.105355 0.166936
C18   C     C_R   0.619237 0.700099 0.066458 -0.180487
C19   C     C_R   0.445768 0.294558 0.952765 -0.222837
C20   C     C_R   0.615612 0.698958 0.937883 -0.203989
C21   C     C_R   0.497024 0.281402 0.049052 -0.253310
C22   C     C_R   0.557143 0.565319 0.937869 0.024314
C23   C     C_R   0.887812 0.495951 0.390097 -0.207196
C24   C     C_R   0.524575 0.424443 0.061734 0.052187
C25   C     C_R   0.565569 0.564378 0.069070 0.025954
C26   C     C_R   0.491383 0.433286 0.945167 0.007238
C27   C     C_R   0.512938 0.502307 0.877436 -0.223911
C28   C     C_R   0.541079 0.494922 0.131591 -0.215787
C29   C     C_R   0.856120 0.567940 0.432812 0.468973
C30   C     C_R   0.140409 0.464330 0.524046 0.444286
C31   C     C_R   0.170872 0.506320 0.312291 0.455500
C32   C     C_R   0.844708 0.425142 0.389344 0.428085
C33   C     C_R   0.778711 0.570794 0.469270 -0.017703
C34   C     C_R   0.117230 0.484216 0.403591 -0.189732
C35   C     C_R   0.218115 0.473090 0.556714 -0.044675
C36   C     C_R   0.248603 0.513474 0.343842 -0.056914
C37   C     C_R   0.769444 0.425099 0.435418 -0.009921
C38   C     C_R   0.733093 0.498887 0.470654 -0.274836
C39   C     C_R   0.271867 0.497085 0.466633 -0.208135
C40   C     C_3   0.933309 0.646281 0.557694 0.109629
C41   C     C_3   0.996713 0.709787 0.554651 -0.779911
C42   C     C_3   0.083166 0.359935 0.626588 0.035142
C43   C     C_3   0.012248 0.324383 0.562278 -0.759451
C44   C     C_3   0.146386 0.457141 0.117221 0.095282
C45   C     C_1   0.968906 0.491573 0.374632 0.095168
C46   C     C_3   0.116491 0.477907 0.989159 -0.788696
C47   C     C_3   0.873063 0.341914 0.225432 0.112992
C48   C     C_3   0.914529 0.265585 0.186452 -0.832615
C49   C     C_1   0.037211 0.487850 0.379221 0.105115
C50   C     C_R   0.495669 0.831258 0.387948 0.016716
C51   C     C_R   0.546003 0.169901 0.585302 0.006353
C52   C     C_R   0.502219 0.834370 0.613921 0.016553
H1    H     H_    0.504313 0.221449 0.082850 0.145111
H2    H     H_    0.654899 0.562220 0.262989 0.183767
H3    H     H_    0.342750 0.424945 0.859104 0.172596
H4    H     H_    0.351040 0.334203 0.789556 0.172454
H5    H     H_    0.641891 0.552386 0.739311 0.182483
H6    H     H_    0.615275 0.646658 0.690863 0.222893
H7    H     H_    0.637826 0.298947 0.152265 0.162874
H8    H     H_    0.570382 0.296313 0.265238 0.196613
H9    H     H_    0.959272 0.589859 0.590422 0.149630
H10   H     H_    0.888534 0.666085 0.626107 0.153841
H11   H     H_    0.972882 0.767554 0.524697 0.258961
H12   H     H_    0.640990 0.748483 0.888032 0.147635
H13   H     H_    0.021877 0.718266 0.649130 0.206192
H14   H     H_    0.042854 0.690766 0.488327 0.261563
H15   H     H_    0.078501 0.347626 0.727719 0.161295
H16   H     H_    0.135304 0.327908 0.590986 0.120767
H17   H     H_    0.019042 0.327799 0.459501 0.260829
H18   H     H_    0.005240 0.260493 0.586570 0.206554
H19   H     H_    0.959947 0.357325 0.592835 0.273401
H20   H     H_    0.107991 0.409750 0.155968 0.120538
H21   H     H_    0.205733 0.433312 0.105551 0.143097
H22   H     H_    0.152530 0.526370 0.949110 0.259736
H23   H     H_    0.410568 0.245210 0.917366 0.143205
H24   H     H_    0.118719 0.424358 0.925826 0.192862
H25   H     H_    0.055970 0.498315 0.996960 0.257574
H26   H     H_    0.900510 0.392516 0.175023 0.132362
H27   H     H_    0.811582 0.335791 0.197171 0.144971
H28   H     H_    0.888011 0.213558 0.233752 0.265599
H29   H     H_    0.910230 0.255801 0.083819 0.205322
H30   H     H_    0.976294 0.270536 0.212251 0.244724
H31   H     H_    0.705480 0.666252 0.460120 0.223287
H32   H     H_    0.737054 0.643758 0.606772 0.193109
H33   H     H_    0.211094 0.499844 0.741361 0.212105
H34   H     H_    0.645802 0.751189 0.114128 0.160840
H35   H     H_    0.229336 0.402488 0.706400 0.176396
H36   H     H_    0.344055 0.491845 0.238995 0.173131
H37   H     H_    0.330700 0.589683 0.279477 0.218508
H38   H     H_    0.687774 0.341721 0.385497 0.215515
H39   H     H_    0.714738 0.341162 0.540189 0.200652
H40   H     H_    0.494141 0.830369 0.196456 0.178230
H41   H     H_    0.438925 0.899675 0.267550 0.193093
H42   H     H_    0.626724 0.171792 0.724080 0.176821
H43   H     H_    0.557192 0.101960 0.736661 0.188132
H44   H     H_    0.503313 0.838598 0.805407 0.177538
H45   H     H_    0.491077 0.712809 0.303558 0.147188
H46   H     H_    0.558152 0.907802 0.735782 0.185594
H47   H     H_    0.372777 0.160673 0.277510 0.173808
H48   H     H_    0.442187 0.092093 0.265829 0.183909
H49   H     H_    0.580725 0.289766 0.645814 0.133468
H50   H     H_    0.501405 0.717985 0.696928 0.142581
H51   H     H_    0.418468 0.282607 0.355428 0.140189
H52   H     H_    0.614095 0.650746 0.315286 0.219577
N1    N     N_R   0.500000 0.707230 0.500000 -0.112946
N2    N     N_3   0.733276 0.348036 0.447992 -0.405071
N3    N     N_3   0.492357 0.871700 0.271338 -0.462404
N4    N     N_3   0.593709 0.130018 0.672751 -0.455365
N5    N     N_3   0.504889 0.878032 0.731153 -0.457913
N6    N     N_3   0.405614 0.121541 0.329365 -0.456543
N7    N     N_R   0.500000 0.292770 0.500000 -0.109445
N8    N     N_3   0.645306 0.622198 0.244369 -0.453730
N9    N     N_3   0.381519 0.386698 0.813324 -0.418345
N10   N     N_3   0.638683 0.613380 0.761816 -0.474672
N11   N     N_3   0.594258 0.332114 0.196206 -0.458587
N12   N     N_3   0.751420 0.647112 0.512816 -0.422592
N13   N     N_3   0.242345 0.461309 0.682373 -0.458841
N14   N     N_3   0.303004 0.536784 0.249663 -0.416289
O1    O     O_R   0.389110 0.566570 0.499990 -0.605908
O2    O     O_3   0.085891 0.444126 0.613370 -0.616368
O3    O     O_3   0.146735 0.526754 0.194697 -0.572101
O4    O     O_3   0.878822 0.353246 0.356028 -0.595439
O5    O     O_R   0.610890 0.433430 0.500010 -0.629204
O6    O     O_R   0.610890 0.566570 0.500010 -0.653601
O7    O     O_R   0.389110 0.433430 0.499990 -0.604110
O8    O     O_R   0.499990 0.566540 0.316770 -0.646132
O9    O     O_R   0.500010 0.433460 0.683230 -0.588085
O10   O     O_R   0.500010 0.566540 0.683230 -0.634733
O11   O     O_R   0.499990 0.433460 0.316770 -0.610512
O12   O     O_3   0.901282 0.636900 0.437124 -0.577720
Zn1   Zn    Zn3+2 0.500000 0.588860 0.500000 0.909064
Zn2   Zn    Zn3+2 0.500000 0.411140 0.500000 0.936733

loop_
_geom_bond_atom_site_label_1
_geom_bond_atom_site_label_2
_ccdc_geom_bond_type
H48   N6    S    
C23   C45   S    
O5    Zn2   S    
C6    N7    A    
C14   C18   A    
C35   C39   A    
C47   H27   S    
C46   H24   S    
N1    Zn1   S    
C5    N1    A    
C3    N1    A    
C25   C28   A    
C15   C19   A    
H42   N4    S    
C26   C27   A    
C18   H34   S    
C30   C35   A    
C23   C29   A    
C19   C21   A    
C1    O7    A    
C7    C52   A    
H35   N13   S    
C29   C33   A    
C44   O3    S    
C40   H10   S    
C48   H29   S    
C1    O1    A    
O9    Zn2   S    
C13   O10   A    
C29   O12   S    
C51   N4    S    
C33   N12   S    
C22   C25   A    
O1    Zn1   S    
H4    N9    S    
C15   N9    S    
C5    C52   A    
C36   N14   S    
C9    C10   T    
O11   Zn2   S    
H32   N12   S    
H46   N5    S    
C42   H16   S    
H39   N2    S    
C2    C6    A    
C11   O11   A    
C3    C50   A    
C44   C46   S    
C17   C24   A    
C30   C34   A    
C4    C51   A    
C32   O4    S    
C11   O8    A    
C31   O3    S    
H52   N8    S    
C15   C26   A    
C41   H13   S    
H3    N9    S    
C32   C37   A    
H47   N6    S    
C17   C21   A    
C40   H9    S    
O6    Zn1   S    
C16   C22   A    
C20   H12   S    
C14   N8    S    
C37   C38   A    
C3    H45   S    
H40   N3    S    
C47   C48   S    
C12   O6    A    
C45   C49   T    
C16   C20   A    
C4    H49   S    
C31   C34   A    
H2    N8    S    
C6    H51   S    
H33   N13   S    
C8    C51   A    
H38   N2    S    
H5    N10   S    
C8    C10   S    
C40   C41   S    
C4    N7    A    
C43   H18   S    
C22   C27   A    
C42   H15   S    
C35   N13   S    
C42   C43   S    
C41   H11   S    
H36   N14   S    
O10   Zn1   S    
C46   H22   S    
C17   N11   S    
C7    C9    S    
C40   O12   S    
C5    H50   S    
C2    N6    S    
C34   C49   S    
C43   H19   S    
H31   N12   S    
C36   C39   A    
C2    C8    A    
C24   C28   A    
C7    C50   A    
C24   C26   A    
C47   O4    S    
C16   N10   S    
C46   H25   S    
C41   H14   S    
C52   N5    S    
H44   N5    S    
C33   C38   A    
C23   C32   A    
C48   H28   S    
C19   H23   S    
O8    Zn1   S    
C37   N2    S    
H41   N3    S    
C21   H1    S    
O7    Zn2   S    
C42   O2    S    
C50   N3    S    
C12   O5    A    
C30   O2    S    
C11   C28   S    
C48   H30   S    
C44   H20   S    
C18   C20   A    
C14   C25   A    
C12   C38   S    
C44   H21   S    
H43   N4    S    
C1    C39   S    
C13   O9    A    
N7    Zn2   S    
H37   N14   S    
H7    N11   S    
H6    N10   S    
C31   C36   A    
C13   C27   S    
H8    N11   S    
C47   H26   S    
C43   H17   S    
