data_mof_unit_27984.cif
_audit_creation_date              2012-12-10T17:55:52-0500
_audit_creation_method            fapswitch 2.2
_symmetry_space_group_name_H-M    P1
_symmetry_Int_Tables_number       1
_space_group_crystal_system       triclinic
_cell_length_a                    11.044844
_cell_length_b                    10.762513
_cell_length_c                    9.599252
_cell_angle_alpha                 91.179741
_cell_angle_beta                  103.191738
_cell_angle_gamma                 91.727825
_cell_volume                      1110.00750859

loop_
_atom_site_label
_atom_site_type_symbol
_atom_type_description
_atom_site_fract_x
_atom_site_fract_y
_atom_site_fract_z
_atom_type_partial_charge
C1    C     C_R   0.501949 0.262816 0.499398 0.889535
C2    C     C_R   0.496700 0.737365 0.500404 0.898848
C3    C     C_R   0.262671 0.497761 0.441414 0.863448
C4    C     C_R   0.737264 0.499132 0.558425 0.863179
C5    C     C_R   0.426018 0.415373 0.049927 -0.063296
C6    C     C_R   0.573810 0.584698 0.950054 -0.062713
C7    C     C_R   0.425766 0.418132 0.901795 0.652299
C8    C     C_R   0.574285 0.581783 0.098211 0.653685
C9    C     C_2   0.127034 0.493796 0.408161 -0.336719
C10   C     C_2   0.872602 0.494599 0.590957 -0.355243
C11   C     C_2   0.066888 0.485338 0.514021 -0.144236
C12   C     C_2   0.931990 0.489564 0.484108 -0.152153
C13   C     C_R   0.602246 0.065327 0.460687 -0.099057
C14   C     C_R   0.403118 0.936923 0.546708 -0.104501
C15   C     C_R   0.594960 0.934672 0.458785 0.571572
C16   C     C_R   0.406980 0.065969 0.542192 0.566580
C17   C     C_R   0.497411 0.871696 0.502730 -0.267519
C18   C     C_R   0.503993 0.128912 0.498814 -0.282074
Cu1   Cu    Cu3+1 0.500000 0.500020 0.640660 0.988407
Cu2   Cu    Cu3+1 0.500000 0.499980 0.359340 0.988618
H1    H     H_    0.881086 0.490059 0.372859 0.204241
H2    H     H_    0.117525 0.479466 0.624907 0.207560
H3    H     H_    0.923805 0.494617 0.702040 0.145323
H4    H     H_    0.076194 0.499717 0.297435 0.142669
N1    N     N_R   0.500030 0.500030 0.852080 -0.254664
N2    N     N_R   0.499970 0.499970 0.147920 -0.254937
O1    O     O_R   0.499990 0.319660 0.618740 -0.494556
O2    O     O_R   0.500010 0.680340 0.381260 -0.491232
O3    O     O_R   0.499990 0.319630 0.381170 -0.622207
O4    O     O_R   0.500010 0.680370 0.618830 -0.625245
O5    O     O_R   0.320690 0.500020 0.575130 -0.527492
O6    O     O_R   0.679310 0.499980 0.424870 -0.524704
O7    O     O_R   0.320680 0.499990 0.337560 -0.625077
O8    O     O_R   0.679320 0.500010 0.662440 -0.621494
C19   C     C_3   0.341996 0.315174 0.091048 -0.284467
C20   C     C_3   0.394194 0.185028 0.081793 -0.324552
C21   C     C_3   0.311182 0.084908 0.126995 -0.858231
H5    H     H_    0.300320 0.104844 0.237305 0.257505
H6    H     H_    0.217928 0.080716 0.052536 0.259035
H7    H     H_    0.353818 0.992966 0.124559 0.246124
H8    H     H_    0.401701 0.162432 0.970742 0.263288
H9    H     H_    0.488858 0.182317 0.151960 0.221380
H10   H     H_    0.324745 0.329998 0.197382 0.244596
H11   H     H_    0.248394 0.317663 0.017479 0.194553
C22   C     C_3   0.656453 0.685962 0.908711 -0.283811
C23   C     C_3   0.601534 0.815006 0.916719 -0.331703
C24   C     C_3   0.684028 0.916841 0.873853 -0.849034
H12   H     H_    0.776095 0.922837 0.950673 0.257361
H13   H     H_    0.697828 0.897344 0.764658 0.256762
H14   H     H_    0.639233 0.007787 0.874630 0.246550
H15   H     H_    0.507384 0.816334 0.844853 0.222526
H16   H     H_    0.591817 0.836862 0.027149 0.262632
H17   H     H_    0.749870 0.685341 0.982956 0.194173
H18   H     H_    0.674821 0.670882 0.802848 0.243715
F1    F     F_    0.349072 0.339169 0.806876 -0.626850
F2    F     F_    0.650827 0.660928 0.193050 -0.625646
C25   C     C_3   0.712017 0.140831 0.428154 -0.348488
C26   C     C_3   0.830405 0.070652 0.424910 -0.291880
C27   C     C_3   0.938886 0.160425 0.419480 -0.842090
H19   H     H_    0.914011 0.221033 0.325655 0.249199
H20   H     H_    0.964058 0.219037 0.519098 0.279574
H21   H     H_    0.021249 0.107135 0.410109 0.269369
H22   H     H_    0.856985 0.015400 0.522980 0.247912
H23   H     H_    0.813849 0.008329 0.328190 0.273546
H24   H     H_    0.680689 0.186705 0.324227 0.196643
H25   H     H_    0.739132 0.215359 0.512548 0.179963
C28   C     C_3   0.293077 0.873270 0.589423 -0.342906
C29   C     C_3   0.184138 0.851430 0.459284 -0.356886
C30   C     C_3   0.064964 0.815551 0.505868 -0.789759
H26   H     H_    0.079603 0.733898 0.575475 0.257704
H27   H     H_    0.037088 0.893972 0.567082 0.254459
H28   H     H_    0.988866 0.792768 0.410394 0.272571
H29   H     H_    0.168194 0.937126 0.395901 0.239769
H30   H     H_    0.206422 0.775935 0.389427 0.204558
H31   H     H_    0.317229 0.783770 0.641557 0.190685
H32   H     H_    0.263608 0.931995 0.671661 0.244656
F3    F     F_    0.682107 0.866193 0.416493 -0.657648
F4    F     F_    0.313708 0.131329 0.576567 -0.643701

loop_
_geom_bond_atom_site_label_1
_geom_bond_atom_site_label_2
_ccdc_geom_bond_type
C6    C22   S    
C8    N2    A    
C20   H9    S    
Cu1   Cu2   S    
C7    F1    S    
C25   H25   S    
Cu1   O5    S    
C8    F2    S    
C24   H13   S    
C22   C23   S    
C1    C18   S    
C13   C18   A    
C23   H15   S    
C20   C21   S    
C21   H7    S    
C6    N1    A    
C13   C25   S    
C3    O7    A    
C29   H30   S    
C23   H16   S    
C30   H27   S    
C19   C20   S    
C29   C30   S    
C14   C28   S    
C19   H10   S    
C22   H17   S    
C27   H19   S    
C2    C17   S    
C14   C17   A    
C20   H8    S    
C24   H14   S    
Cu2   O3    S    
C26   H23   S    
C4    O8    A    
C27   H20   S    
C28   C29   S    
C5    C7    A    
C6    C8    A    
Cu2   O2    S    
C29   H29   S    
C12   H1    S    
C30   H28   S    
C21   H5    S    
C3    C9    S    
C24   H12   S    
C1    O3    A    
C3    O5    A    
C19   H11   S    
C9    C11   D    
C4    O6    A    
C10   C12   D    
Cu2   O7    S    
C22   H18   S    
C13   C15   A    
C14   C16   A    
C28   H31   S    
C4    C10   S    
Cu1   O1    S    
Cu2   O6    S    
C26   H22   S    
C15   C17   A    
C23   C24   S    
C27   H21   S    
C25   H24   S    
Cu1   O8    S    
C11   C12   S    
C9    H4    S    
C10   H3    S    
C11   H2    S    
C7    N1    A    
C2    O4    A    
C26   C27   S    
C21   H6    S    
C25   C26   S    
C15   F3    S    
Cu2   N2    S    
C5    C19   S    
C16   F4    S    
C30   H26   S    
Cu1   N1    S    
C5    N2    A    
C16   C18   A    
C1    O1    A    
C2    O2    A    
C28   H32   S    
Cu1   O4    S    
