data_mof_unit_13595.cif
_audit_creation_date              2012-10-26T19:52:46-0400
_audit_creation_method            fapswitch 2.2
_symmetry_space_group_name_H-M    P1
_symmetry_Int_Tables_number       1
_space_group_crystal_system       triclinic
_cell_length_a                    15.010334
_cell_length_b                    10.827088
_cell_length_c                    9.581367
_cell_angle_alpha                 91.337928
_cell_angle_beta                  89.976651
_cell_angle_gamma                 91.284827
_cell_volume                      1556.33066691

loop_
_atom_site_label
_atom_site_type_symbol
_atom_type_description
_atom_site_fract_x
_atom_site_fract_y
_atom_site_fract_z
_atom_type_partial_charge
C1    C     C_R   0.497836 0.262610 0.498438 0.558273
C2    C     C_R   0.184414 0.417485 0.413407 -0.123077
C3    C     C_R   0.232156 0.499484 0.501581 0.000335
C4    C     C_R   0.328856 0.499950 0.500232 0.549943
C5    C     C_R   0.187589 0.579215 0.593472 -0.129272
C6    C     C_R   0.451654 0.064800 0.602513 -0.022550
C7    C     C_R   0.490585 0.129481 0.493315 0.029125
C8    C     C_R   0.521543 0.062525 0.376441 -0.140343
C9    C     C_R   0.525012 0.933971 0.380068 -0.154647
C10   C     C_R   0.498923 0.871263 0.501273 0.038186
C11   C     C_R   0.458753 0.938944 0.609247 0.041736
C12   C     C_R   0.907318 0.580072 0.596204 0.021619
C13   C     C_3   0.466070 0.944034 0.765813 0.151372
C14   C     C_3   0.454623 0.083727 0.756585 -0.232107
C15   C     C_R   0.545347 0.590214 0.074977 0.151141
C16   C     C_R   0.501237 0.737696 0.501352 0.546572
C17   C     C_R   0.448467 0.417644 0.069701 0.180618
C18   C     C_R   0.449004 0.418287 0.921918 0.014747
C19   C     C_R   0.543838 0.591162 0.928192 0.117000
C20   C     C_3   0.639648 0.625160 0.917156 -0.230205
C21   C     C_3   0.643177 0.623666 0.076132 0.125570
C22   C     C_R   0.670997 0.499156 0.500353 0.546604
C23   C     C_R   0.950694 0.327627 0.333674 -0.130708
C24   C     C_R   0.814158 0.579104 0.592894 -0.131264
C25   C     C_R   0.767411 0.497294 0.502984 -0.013705
C26   C     C_R   0.812239 0.412002 0.419024 -0.133039
C27   C     C_R   0.905008 0.410985 0.420139 0.006156
C28   C     C_R   0.952838 0.495720 0.508025 0.040244
C29   C     C_3   0.557702 0.935574 0.959437 -0.029308
C30   C     C_3   0.652044 0.977879 0.998462 -0.367057
C31   C     C_3   0.787964 0.562538 0.112983 -0.012786
C32   C     C_3   0.839352 0.457748 0.044627 -0.361252
C33   C     C_R   0.043479 0.329923 0.330905 -0.120597
C34   C     C_R   0.091602 0.414203 0.416368 0.018716
C35   C     C_R   0.046312 0.496376 0.506744 0.055543
C36   C     C_R   0.094605 0.579417 0.595259 -0.008404
C37   C     C_R   0.049374 0.661792 0.683181 -0.099728
C38   C     C_R   0.956371 0.663519 0.683641 0.082231
Cu1   Cu    Cu3+1 0.500000 0.499980 0.640670 0.955684
Cu2   Cu    Cu3+1 0.500000 0.500020 0.359330 1.019591
H1    H     H_    0.776918 0.642762 0.657673 0.152336
H2    H     H_    0.656958 0.715103 0.128517 0.083781
H3    H     H_    0.914681 0.261389 0.267220 0.114239
H4    H     H_    0.077622 0.265789 0.262037 0.131915
H5    H     H_    0.219483 0.354289 0.345173 0.153474
H6    H     H_    0.225450 0.642393 0.661448 0.117295
H7    H     H_    0.086421 0.726107 0.750695 0.143397
H8    H     H_    0.547486 0.109303 0.285810 0.144134
H9    H     H_    0.540898 0.848357 0.012673 0.118732
H10   H     H_    0.511757 0.007271 0.000980 0.135454
H11   H     H_    0.667815 0.068003 0.950105 0.172833
H12   H     H_    0.551801 0.884427 0.290544 0.116135
H13   H     H_    0.657844 0.989131 0.113572 0.091547
H14   H     H_    0.701121 0.909346 0.961680 0.177978
H15   H     H_    0.814344 0.581922 0.219411 0.162060
H16   H     H_    0.801553 0.647333 0.051811 0.145789
H17   H     H_    0.820377 0.447137 0.932902 0.157366
H18   H     H_    0.912044 0.478386 0.051552 0.129973
H19   H     H_    0.824122 0.369684 0.097442 0.156648
H20   H     H_    0.410525 0.893091 0.818059 0.106808
H21   H     H_    0.389806 0.114866 0.799212 0.107950
H22   H     H_    0.513721 0.139854 0.791940 0.175964
H23   H     H_    0.409037 0.351063 0.863031 0.136276
H24   H     H_    0.678832 0.551196 0.865676 0.177804
H25   H     H_    0.650751 0.717750 0.872953 0.145107
H26   H     H_    0.774712 0.347528 0.352155 0.134171
I1    I     I_    0.364576 0.278151 0.153194 -0.441298
I2    I     I_    0.896461 0.797502 0.817196 -0.498618
N1    N     N_R   0.500570 0.500930 0.147930 -0.201953
N2    N     N_R   0.500570 0.500890 0.852020 -0.249844
O1    O     O_R   0.500000 0.319640 0.618810 -0.517861
O2    O     O_3   0.696617 0.527221 0.122507 -0.524494
O3    O     O_R   0.500010 0.319680 0.381230 -0.477277
O4    O     O_R   0.370250 0.499950 0.618800 -0.509777
O5    O     O_R   0.370260 0.499990 0.381220 -0.476206
O6    O     O_R   0.499990 0.680320 0.618770 -0.478471
O7    O     O_R   0.500000 0.680360 0.381190 -0.523741
O8    O     O_R   0.629740 0.500010 0.618780 -0.516575
O9    O     O_R   0.629750 0.500050 0.381200 -0.446832
O10   O     O_3   0.552239 0.915516 0.812798 -0.537180

loop_
_geom_bond_atom_site_label_1
_geom_bond_atom_site_label_2
_ccdc_geom_bond_type
C18   N2    A    
C30   H11   S    
C17   N1    A    
C35   C36   A    
C32   H18   S    
C7    C8    A    
C13   H20   S    
C29   H9    S    
C15   C19   A    
C30   H14   S    
C26   C27   A    
C37   C38   A    
C12   C28   A    
C36   C37   A    
C22   O9    A    
C34   C35   A    
C18   H23   S    
C14   H22   S    
C5    C36   A    
C23   H3    S    
Cu2   O3    S    
C16   O7    A    
Cu1   O4    S    
C4    O5    A    
C19   C20   S    
C28   C35   A    
C8    C9    A    
C23   C33   A    
C22   C25   S    
C23   C27   A    
C31   H16   S    
C37   H7    S    
C9    C10   A    
C4    O4    A    
C2    C34   A    
C13   O10   S    
C16   O6    A    
C13   C14   S    
C24   H1    S    
C9    H12   S    
C32   H17   S    
C17   C18   A    
C29   H10   S    
C2    H5    S    
C15   N1    A    
C30   H13   S    
C17   I1    S    
Cu2   N1    S    
C21   O2    S    
C26   H26   S    
Cu1   O8    S    
C20   H25   S    
C24   C25   A    
C22   O8    A    
C6    C11   A    
C25   C26   A    
C14   H21   S    
C20   H24   S    
C8    H8    S    
C29   C30   S    
C6    C14   S    
C31   C32   S    
C33   C34   A    
Cu2   O9    S    
C1    O1    A    
Cu1   O6    S    
C31   O2    S    
C38   I2    S    
C3    C4    S    
Cu1   Cu2   S    
C1    C7    S    
C33   H4    S    
C3    C5    A    
C6    C7    A    
C5    H6    S    
C12   C24   A    
Cu2   O5    S    
C1    O3    A    
C2    C3    A    
C10   C16   S    
C11   C13   S    
C29   O10   S    
Cu1   N2    S    
C12   C38   A    
C10   C11   A    
C21   H2    S    
C15   C21   S    
C20   C21   S    
C27   C28   A    
Cu1   O1    S    
Cu2   O7    S    
C19   N2    A    
C32   H19   S    
C31   H15   S    
