data_mof_unit_23211.cif
_audit_creation_date              2012-12-11T14:21:17-0500
_audit_creation_method            fapswitch 2.2
_symmetry_space_group_name_H-M    P1
_symmetry_Int_Tables_number       1
_space_group_crystal_system       triclinic
_cell_length_a                    21.953668
_cell_length_b                    7.209654
_cell_length_c                    14.88152
_cell_angle_alpha                 90.009764
_cell_angle_beta                  107.192193
_cell_angle_gamma                 89.979498
_cell_volume                      2250.17882237

loop_
_atom_site_label
_atom_site_type_symbol
_atom_type_description
_atom_site_fract_x
_atom_site_fract_y
_atom_site_fract_z
_atom_type_partial_charge
O1    O     O_R   0.584770 0.505770 0.002090 -0.538453
O2    O     O_R   0.415230 0.005770 0.997910 -0.538822
O3    O     O_R   0.467060 0.173340 0.861950 -0.538656
O4    O     O_R   0.532940 0.673340 0.138050 -0.539944
C1    C     C_R   0.455316 0.343891 0.825555 0.691750
C2    C     C_R   0.544531 0.843955 0.174438 0.692080
O5    O     O_R   0.587510 0.175890 0.993210 -0.541678
O6    O     O_R   0.412490 0.675890 0.006790 -0.542298
O7    O     O_R   0.536540 0.008150 0.130100 -0.532383
O8    O     O_R   0.463460 0.508150 0.869900 -0.532145
C3    C     C_R   0.612933 0.344928 0.997293 0.732611
C4    C     C_R   0.387069 0.844972 0.002710 0.732436
O9    O     O_3   0.483140 0.340040 0.044760 -0.374446
O10   O     O_3   0.516860 0.840040 0.955240 -0.372868
V1    V     V_3+5 0.503130 0.064190 0.991700 1.460507
V2    V     V_3+5 0.496870 0.564190 0.008300 1.458200
C5    C     C_2   0.214364 0.727815 0.005196 -0.114794
C6    C     C_2   0.785663 0.227858 0.994749 -0.114389
C7    C     C_2   0.180418 0.886671 0.996758 -0.295677
C8    C     C_2   0.819577 0.386736 0.003240 -0.296406
H1    H     H_    0.191495 0.597254 0.012084 0.141382
H2    H     H_    0.808559 0.097318 0.987810 0.141381
H3    H     H_    0.201795 0.018670 0.988958 0.133897
H4    H     H_    0.798175 0.518727 0.011078 0.133683
C9    C     C_2   0.282216 0.714785 0.004797 -0.121271
C10   C     C_2   0.717811 0.214739 0.995139 -0.121500
C11   C     C_2   0.320038 0.861548 0.003986 -0.273461
C12   C     C_2   0.679964 0.361467 0.996034 -0.275812
H5    H     H_    0.301541 0.575845 0.005853 0.140971
H6    H     H_    0.698510 0.075790 0.993997 0.142195
H7    H     H_    0.302019 0.001349 0.004044 0.138951
H8    H     H_    0.697966 0.501268 0.996057 0.139200
C13   C     C_R   0.924557 0.884252 0.723642 -0.071249
C14   C     C_R   0.075500 0.384309 0.276437 -0.070839
C15   C     C_R   0.570150 0.845617 0.277229 -0.093007
C16   C     C_R   0.429399 0.344958 0.722757 -0.093394
C17   C     C_R   0.934086 0.829974 0.568446 -0.156609
C18   C     C_R   0.065322 0.342650 0.432194 -0.156581
C19   C     C_R   0.962218 0.848997 0.664750 -0.198566
C20   C     C_R   0.037411 0.360614 0.335762 -0.198914
C21   C     C_R   0.857698 0.898904 0.686101 0.131770
C22   C     C_R   0.142556 0.388894 0.313718 0.132838
C23   C     C_R   0.827885 0.854259 0.589609 0.094852
C24   C     C_R   0.171707 0.347204 0.410763 0.094510
C25   C     C_R   0.867496 0.832106 0.530535 0.031687
C26   C     C_R   0.131878 0.335764 0.470050 0.032241
C27   C     C_R   0.760623 0.829041 0.549664 0.004438
C28   C     C_R   0.238610 0.316008 0.451171 0.004126
C29   C     C_R   0.733004 0.824664 0.450286 0.003408
C30   C     C_R   0.266183 0.315777 0.550494 0.004394
C31   C     C_R   0.774840 0.799701 0.393289 0.195922
C32   C     C_R   0.224117 0.298299 0.607578 0.196021
C33   C     C_R   0.840650 0.804008 0.434398 -0.163603
C34   C     C_R   0.158378 0.309327 0.566423 -0.164199
C35   C     C_R   0.721466 0.786227 0.606314 -0.125345
C36   C     C_R   0.277131 0.262107 0.395416 -0.121829
C37   C     C_R   0.656082 0.758306 0.569911 0.127368
C38   C     C_R   0.342412 0.232115 0.432078 0.128108
C39   C     C_R   0.626052 0.777330 0.471619 0.042025
C40   C     C_R   0.373182 0.264550 0.529382 0.040156
C41   C     C_R   0.664934 0.827457 0.413198 0.035091
C42   C     C_R   0.334297 0.317589 0.587552 0.034927
C43   C     C_R   0.559706 0.743353 0.427221 0.213661
C44   C     C_R   0.440353 0.243314 0.572988 0.215373
C45   C     C_R   0.533563 0.773668 0.330896 -0.094658
C46   C     C_R   0.466608 0.278317 0.668851 -0.094156
C47   C     C_R   0.634571 0.880750 0.319335 -0.221039
C48   C     C_R   0.364603 0.374405 0.680950 -0.221390
H9    H     H_    0.871365 0.779168 0.390336 0.141825
H10   H     H_    0.127391 0.291263 0.610648 0.141484
H11   H     H_    0.660784 0.944908 0.276888 0.124250
H12   H     H_    0.338209 0.437763 0.723362 0.124089
H13   H     H_    0.484111 0.737525 0.297102 0.155685
H14   H     H_    0.516821 0.250738 0.702082 0.154703
H15   H     H_    0.964462 0.807809 0.523719 0.125076
H16   H     H_    0.034698 0.329000 0.477152 0.125002
H17   H     H_    0.013584 0.838755 0.693349 0.118840
H18   H     H_    0.985922 0.358206 0.307358 0.118495
H19   H     H_    0.741918 0.757211 0.680065 0.183857
H20   H     H_    0.255914 0.225522 0.322680 0.183318
O11   O     O_R   0.036450 0.233070 0.130130 -0.536710
O12   O     O_R   0.963550 0.733070 0.869870 -0.536642
O13   O     O_R   0.912470 0.560570 0.006790 -0.543238
O14   O     O_R   0.087530 0.060570 0.993210 -0.543319
C49   C     C_R   0.886943 0.391943 0.002352 0.729576
C50   C     C_R   0.113054 0.891903 0.997646 0.729399
O15   O     O_R   0.032920 0.562940 0.138050 -0.540036
O16   O     O_R   0.967080 0.062940 0.861950 -0.540534
O17   O     O_R   0.084790 0.730500 0.002090 -0.538455
O18   O     O_R   0.915210 0.230500 0.997910 -0.538412
C51   C     C_R   0.045319 0.394452 0.174643 0.687183
C52   C     C_R   0.954745 0.894448 0.825375 0.687442
O19   O     O_3   0.016820 0.396170 0.955260 -0.377538
O20   O     O_3   0.983180 0.896170 0.044740 -0.377346
V3    V     V_3+5 0.996880 0.672090 0.008300 1.413961
V4    V     V_3+5 0.003120 0.172090 0.991700 1.413083
N1    N     N_3   0.821482 0.974984 0.743548 -0.672713
H21   H     H_    0.838704 0.107984 0.765072 0.244035
H22   H     H_    0.828361 0.892239 0.803461 0.215502
N2    N     N_3   0.179965 0.452415 0.255227 -0.672673
H23   H     H_    0.165033 0.586272 0.231694 0.242805
H24   H     H_    0.171597 0.365386 0.196594 0.216609
N3    N     N_3   0.754023 0.732200 0.298283 -0.685392
H25   H     H_    0.714628 0.644401 0.287127 0.242999
H26   H     H_    0.745684 0.843050 0.251039 0.222317
N4    N     N_3   0.244176 0.231551 0.702756 -0.684965
H27   H     H_    0.283614 0.143583 0.714886 0.242454
H28   H     H_    0.252298 0.343013 0.749650 0.221927
N5    N     N_3   0.518362 0.658813 0.473515 -0.652880
H29   H     H_    0.540035 0.538569 0.507300 0.265579
H30   H     H_    0.508615 0.752333 0.520836 0.270064
N6    N     N_3   0.483742 0.176544 0.525432 -0.649784
H31   H     H_    0.469402 0.044497 0.499142 0.264090
H32   H     H_    0.484858 0.268729 0.472022 0.273879
I1    I     I_    0.612893 0.704890 0.679079 -0.458691
I2    I     I_    0.382932 0.141847 0.324819 -0.461974

loop_
_geom_bond_atom_site_label_1
_geom_bond_atom_site_label_2
_ccdc_geom_bond_type
C43   C45   A    
O4    V2    S    
O15   C51   A    
C14   C22   A    
C7    C50   S    
O2    C4    A    
C2    O7    A    
N6    H32   S    
N1    H21   S    
C45   H13   S    
C27   C29   A    
C18   H16   S    
O5    C3    A    
C13   C19   A    
C14   C20   A    
C19   H17   S    
O14   C50   A    
N5    H30   S    
C16   C46   A    
C37   C39   A    
N4    H27   S    
C15   C45   A    
C31   N3    S    
C46   H14   S    
C1    C16   S    
O12   C52   A    
C2    C15   S    
C40   C42   A    
O14   V4    S    
C14   C51   S    
C21   N1    S    
C6    C10   S    
C8    H4    S    
C32   C34   A    
C29   C31   A    
O15   V3    S    
C30   C32   A    
C47   H11   S    
C48   H12   S    
C28   C30   A    
C17   H15   S    
C33   H9    S    
O6    V2    S    
C38   I2    S    
C21   C23   A    
C22   C24   A    
N6    H31   S    
N1    H22   S    
C24   C26   A    
C38   C40   A    
C9    H5    S    
C39   C41   A    
C29   C41   A    
C4    C11   S    
C11   H7    S    
C32   N4    S    
O16   C52   A    
C12   H8    S    
C37   I1    S    
C13   C52   S    
O11   V4    S    
C5    H1    S    
O16   V4    S    
C31   C33   A    
C44   C46   A    
O17   V3    S    
C7    H3    S    
C22   N2    S    
C35   H19   S    
C41   C47   A    
C34   H10   S    
C15   C47   A    
O6    C4    A    
O13   V3    S    
C8    C49   S    
C26   C34   A    
N2    H24   S    
N3    H26   S    
O1    V2    S    
O2    V1    S    
C23   C25   A    
O4    C2    A    
O13   C49   A    
C10   H6    S    
O19   V4    S    
C35   C37   A    
C30   C42   A    
C20   H18   S    
C17   C25   A    
O3    V1    S    
C27   C35   A    
C28   C36   A    
O12   V3    S    
C6    H2    S    
C10   C12   D    
O3    C1    A    
C50   O17   A    
C49   O18   A    
C16   C48   A    
O18   V4    S    
C9    C11   D    
C39   C43   A    
C36   H20   S    
C42   C48   A    
C40   C44   A    
C13   C21   A    
O7    V1    S    
C5    C9    S    
C1    O8    A    
C17   C19   A    
O8    V2    S    
N5    H29   S    
C18   C20   A    
N4    H28   S    
C3    C12   S    
O5    V1    S    
N2    H23   S    
C5    C7    D    
C36   C38   A    
C6    C8    D    
O20   V3    S    
C18   C26   A    
C44   N6    S    
C25   C33   A    
O11   C51   A    
O9    V2    S    
N3    H25   S    
O10   V1    S    
O1    C3    A    
C23   C27   A    
C24   C28   A    
C43   N5    S    
