data_mof_unit_42258.cif
_audit_creation_date              2013-03-05T16:31:21-0500
_audit_creation_method            fapswitch 2.2
_symmetry_space_group_name_H-M    P1
_symmetry_Int_Tables_number       1
_space_group_crystal_system       triclinic
_cell_length_a                    9.544537
_cell_length_b                    10.798831
_cell_length_c                    13.417811
_cell_angle_alpha                 89.957735
_cell_angle_beta                  72.381867
_cell_angle_gamma                 89.95774
_cell_volume                      1318.10272147

loop_
_atom_site_label
_atom_site_type_symbol
_atom_site_description
_atom_site_fract_x
_atom_site_fract_y
_atom_site_fract_z
_atom_type_partial_charge
O1    O     O_R   0.381190 0.680360 0.500000 -0.583619
O2    O     O_R   0.618780 0.680320 0.499990 -0.570768
C1    C     C_R   0.502379 0.737403 0.494364 0.876182
O3    O     O_R   0.323230 0.500000 0.650990 -0.570255
O4    O     O_R   0.560820 0.499960 0.650980 -0.587636
C2    C     C_R   0.420984 0.503676 0.700281 0.802468
Cu1   Cu    Cu3+1 0.359330 0.500020 0.500010 0.977031
Cu2   Cu    Cu3+1 0.640670 0.499980 0.499990 0.975755
O5    O     O_R   0.381220 0.319680 0.500010 -0.580447
O6    O     O_R   0.618810 0.319640 0.500000 -0.587732
O7    O     O_R   0.439180 0.500040 0.349020 -0.566891
O8    O     O_R   0.676770 0.500000 0.349010 -0.566588
C3    C     C_R   0.500308 0.262388 0.498997 0.812481
C4    C     C_R   0.578795 0.501774 0.299853 0.837790
C5    C     C_R   0.786334 0.608846 0.027751 -0.019629
H1    H     H_    0.837848 0.590016 0.172908 0.216541
H2    H     H_    0.777451 0.706280 0.841406 0.175294
C6    C     C_R   0.623443 0.517862 0.186231 -0.090509
C7    C     C_R   0.238792 0.442620 0.866663 -0.135013
C8    C     C_R   0.199723 0.420284 0.973335 -0.131148
C9    C     C_R   0.296650 0.449004 0.029209 -0.170154
C10   C     C_R   0.434105 0.506180 0.979602 0.083792
C11   C     C_R   0.464592 0.542144 0.873696 0.086512
C12   C     C_R   0.542252 0.528910 0.031129 0.064627
C13   C     C_R   0.674824 0.592901 0.978215 0.086799
C14   C     C_R   0.688450 0.644598 0.879862 -0.204269
C15   C     C_R   0.584719 0.620528 0.829200 -0.195880
C16   C     C_R   0.521891 0.489884 0.134034 -0.238228
C17   C     C_R   0.757195 0.572983 0.132456 -0.203974
C18   C     C_R   0.372309 0.500907 0.815333 -0.093754
H3    H     H_    0.425450 0.439709 0.177362 0.190438
H4    H     H_    0.165704 0.411495 0.823808 0.167383
H5    H     H_    0.258960 0.426397 0.111139 0.165436
H6    H     H_    0.095543 0.376446 0.012461 0.146972
H7    H     H_    0.598036 0.666372 0.755296 0.164413
C19   C     C_R   0.374185 0.935762 0.518559 0.101302
C20   C     C_R   0.506067 0.870591 0.481023 -0.141704
C21   C     C_R   0.636876 0.937440 0.430991 -0.051834
C22   C     C_R   0.633690 0.067178 0.437719 -0.251486
H8    H     H_    0.732841 0.119608 0.402221 0.179791
C23   C     C_R   0.502745 0.129399 0.489344 -0.080924
C24   C     C_R   0.372144 0.062768 0.521655 0.041344
C25   C     C_3   0.251434 0.066048 0.623247 -0.495846
C26   C     C_3   0.252842 0.925182 0.619468 0.219011
H9    H     H_    0.287626 0.105846 0.687888 0.214337
H10   H     H_    0.148496 0.106420 0.614875 0.159235
H11   H     H_    0.151392 0.882193 0.610299 0.104526
C27   C     C_R   0.957864 0.435004 0.426011 0.194275
N1    N     N_R   0.852320 0.499070 0.499340 -0.183724
C28   C     C_R   0.897704 0.574338 0.565701 -0.039786
H12   H     H_    0.819221 0.633374 0.619739 0.135761
C29   C     C_R   0.046390 0.573933 0.566096 -0.085264
H13   H     H_    0.078854 0.631812 0.621090 0.169463
N2    N     N_R   0.148230 0.499110 0.499340 -0.227933
C30   C     C_R   0.105377 0.435291 0.425804 0.295101
C31   C     C_3   0.119480 0.299234 0.406747 0.157540
C32   C     C_3   0.960227 0.298876 0.407028 -0.528860
H14   H     H_    0.140362 0.245622 0.471605 0.131211
H15   H     H_    0.945383 0.276408 0.329988 0.216217
H16   H     H_    0.887824 0.247001 0.474620 0.194160
O9    O     O_3   0.301586 0.872437 0.698603 -0.715327
H17   H     H_    0.213150 0.865665 0.760626 0.340075
O10   O     O_3   0.217520 0.273264 0.307949 -0.729279
H18   H     H_    0.220978 0.181672 0.302046 0.340118
C33   C     C_2   0.934538 0.660747 0.973896 0.812758
O11   O     O_2   0.993114 0.642712 0.880569 -0.634965
O12   O     O_R   0.010729 0.725319 0.031602 -0.745842
H19   H     H_    0.111781 0.753175 0.987150 0.339065
C34   C     C_2   0.776924 0.877369 0.371002 0.870117
O13   O     O_2   0.775800 0.784281 0.319449 -0.591434
O14   O     O_R   0.910909 0.930665 0.369919 -0.781820
H20   H     H_    0.998693 0.882256 0.325493 0.337204

loop_
_geom_bond_atom_site_label_1
_geom_bond_atom_site_label_2
_geom_bond_distance
_ccdc_geom_bond_type
O4    Cu2   1.936663 S    
C28   C29   1.420755 A    
C30   C31   1.490512 S    
C16   H3    1.074795 S    
C20   C21   1.422610 A    
C9    H5    1.076028 S    
C11   C15   1.404931 A    
C26   O9    1.402176 S    
C27   C30   1.407108 A    
C15   H7    1.080578 S    
C23   C24   1.390410 A    
C4    C6    1.463727 S    
C19   C24   1.372122 A    
C7    C8    1.386502 A    
C26   H11   1.114050 S    
O8    C4    1.297388 A    
Cu2   O8    1.949392 S    
C8    H6    1.082948 S    
C8    C9    1.390947 A    
C3    C23   1.441582 S    
O2    C1    1.292165 A    
C13   C14   1.401880 A    
C21   C34   1.484470 S    
C6    C16   1.390301 A    
C27   C32   1.491100 S    
C22   C23   1.403104 A    
C6    C17   1.395544 A    
O1    Cu1   1.958755 S    
C9    C10   1.420365 A    
C12   C13   1.428085 A    
O12   H19   1.014111 S    
Cu1   O7    1.936663 S    
C25   H9    1.112855 S    
C14   C15   1.384887 A    
O4    C2    1.298484 A    
C29   H13   1.081904 S    
O3    Cu1   1.949392 S    
H2    C14   1.080065 S    
C31   O10   1.400318 S    
C19   C20   1.396016 A    
C2    C18   1.471615 S    
C29   N2    1.368523 A    
C5    C17   1.401401 A    
O1    C1    1.292725 A    
C34   O13   1.222556 D    
C33   O11   1.222704 D    
C25   C26   1.521981 S    
O9    H17   0.992554 S    
C25   H10   1.110897 S    
C10   C12   1.427006 A    
C19   C26   1.496108 S    
C32   H15   1.112022 S    
C5    C13   1.425780 A    
C24   C25   1.495361 S    
C7    H4    1.083383 S    
C22   H8    1.081912 S    
O10   H18   0.992038 S    
C5    C33   1.489649 S    
C11   C18   1.416342 A    
Cu1   O5    1.958483 S    
O14   H20   1.013954 S    
C21   C22   1.403702 A    
C31   C32   1.518866 S    
C1    C20   1.448380 S    
O3    C2    1.297367 A    
N1    C28   1.369753 A    
O7    C4    1.295816 A    
C34   O14   1.398802 S    
Cu1   Cu2   2.685178 S    
O5    C3    1.290172 A    
N2    C30   1.364380 A    
C27   N1    1.364365 A    
C32   H16   1.110999 S    
Cu1   N2    2.017623 S    
C28   H12   1.079104 S    
H1    C17   1.083654 S    
C10   C11   1.415578 A    
C7    C18   1.401347 A    
Cu2   N1    2.017495 S    
Cu2   O6    1.958754 S    
O2    Cu2   1.958483 S    
C12   C16   1.399540 A    
C31   H14   1.111894 S    
C33   O12   1.398914 S    
O6    C3    1.293035 A    
