data_mof_unit_61185.cif
_audit_creation_date              2012-12-10T19:06:08-0500
_audit_creation_method            fapswitch 2.2
_symmetry_space_group_name_H-M    P1
_symmetry_Int_Tables_number       1
_space_group_crystal_system       triclinic
_cell_length_a                    30.300353
_cell_length_b                    30.299876
_cell_length_c                    30.285074
_cell_angle_alpha                 89.288021
_cell_angle_beta                  89.32789
_cell_angle_gamma                 90.170528
_cell_volume                      27800.4386384

loop_
_atom_site_label
_atom_site_type_symbol
_atom_type_description
_atom_site_fract_x
_atom_site_fract_y
_atom_site_fract_z
_atom_type_partial_charge
C1    C     C_R   0.500334 0.999588 0.914018 0.905123
C2    C     C_R   0.500027 0.085993 0.000317 0.904892
C3    C     C_R   0.499734 0.000156 0.085975 0.914957
C4    C     C_R   0.499906 0.913984 0.000062 0.907204
C5    C     C_R   0.999847 0.085998 0.499731 0.907143
C6    C     C_R   0.086015 0.000096 0.499727 0.919786
C7    C     C_R   0.999819 0.914006 0.500297 0.918385
C8    C     C_R   0.913972 0.000186 0.500282 0.898857
C9    C     C_R   0.085937 0.500070 0.000241 0.911521
C10   C     C_R   0.999875 0.500305 0.913985 0.913214
C11   C     C_R   0.914043 0.499952 0.999609 0.913097
C12   C     C_R   0.999883 0.499714 0.086022 0.906728
C13   C     C_R   0.000304 0.500147 0.414018 0.911365
C14   C     C_R   0.000031 0.585997 0.500637 0.906205
C15   C     C_R   0.999726 0.500358 0.585976 0.915350
C16   C     C_R   0.999909 0.414010 0.499394 0.911374
C17   C     C_R   0.500105 0.585970 0.999669 0.913134
C18   C     C_R   0.586036 0.500124 0.999723 0.917123
C19   C     C_R   0.500024 0.414017 0.000269 0.923453
C20   C     C_R   0.413966 0.499975 0.000301 0.907892
C21   C     C_R   0.585989 0.000108 0.500591 0.911063
C22   C     C_R   0.499816 0.000283 0.413978 0.908372
C23   C     C_R   0.414039 0.999943 0.499667 0.910382
C24   C     C_R   0.499691 0.999682 0.586035 0.902560
C25   C     C_R   0.516721 0.204079 0.966380 0.470451
C26   C     C_R   0.511606 0.040250 0.201534 0.467941
C27   C     C_R   0.514211 0.796204 0.035672 0.471603
C28   C     C_R   0.516886 0.959177 0.798650 0.464223
C29   C     C_R   0.484170 0.798434 0.960839 0.469690
C30   C     C_R   0.488340 0.962814 0.203398 0.468064
C31   C     C_R   0.482752 0.201300 0.040343 0.471535
C32   C     C_R   0.491080 0.035830 0.796039 0.479006
C33   C     C_R   0.202704 0.037735 0.483581 0.467156
C34   C     C_R   0.037949 0.797534 0.490288 0.473566
C35   C     C_R   0.796430 0.963754 0.490701 0.475360
C36   C     C_R   0.960482 0.201960 0.484115 0.470221
C37   C     C_R   0.798078 0.040017 0.516596 0.464861
C38   C     C_R   0.961290 0.797656 0.516626 0.469660
C39   C     C_R   0.202326 0.961714 0.511989 0.472793
C40   C     C_R   0.036629 0.203144 0.510507 0.477606
C41   C     C_R   0.036657 0.516811 0.796807 0.473540
C42   C     C_R   0.798044 0.513769 0.960986 0.468211
C43   C     C_R   0.963539 0.514177 0.203463 0.475612
C44   C     C_R   0.201426 0.514613 0.039811 0.469331
C45   C     C_R   0.037750 0.482207 0.202024 0.470348
C46   C     C_R   0.797062 0.488572 0.038228 0.470757
C47   C     C_R   0.961601 0.486459 0.798039 0.470552
C48   C     C_R   0.203370 0.488330 0.963497 0.477616
C49   C     C_R   0.014268 0.703697 0.464948 0.472966
C50   C     C_R   0.011531 0.539923 0.701706 0.469315
C51   C     C_R   0.011439 0.296427 0.536016 0.475664
C52   C     C_R   0.012618 0.460494 0.298318 0.463480
C53   C     C_R   0.984132 0.298386 0.460204 0.463986
C54   C     C_R   0.986725 0.462891 0.703224 0.472925
C55   C     C_R   0.984057 0.701432 0.540335 0.466172
C56   C     C_R   0.991341 0.538369 0.296575 0.467241
C57   C     C_R   0.702595 0.538023 0.983771 0.464443
C58   C     C_R   0.539299 0.297668 0.993704 0.468313
C59   C     C_R   0.296745 0.462698 0.989001 0.475903
C60   C     C_R   0.461281 0.702176 0.985565 0.469916
C61   C     C_R   0.297716 0.538414 0.016172 0.459605
C62   C     C_R   0.461071 0.297532 0.014748 0.462579
C63   C     C_R   0.702554 0.463400 0.015402 0.474732
C64   C     C_R   0.538803 0.702900 0.008093 0.474669
C65   C     C_R   0.537241 0.017171 0.296856 0.472893
C66   C     C_R   0.298391 0.013801 0.459801 0.470539
C67   C     C_R   0.463540 0.008982 0.704085 0.466089
C68   C     C_R   0.701392 0.015985 0.540411 0.459436
C69   C     C_R   0.539913 0.982736 0.701269 0.464505
C70   C     C_R   0.296611 0.986189 0.536377 0.470998
C71   C     C_R   0.462272 0.986710 0.297694 0.465811
C72   C     C_R   0.703746 0.989912 0.464174 0.474962
C73   C     C_R   0.520355 0.158081 0.966742 -0.013114
C74   C     C_R   0.515805 0.038542 0.155568 -0.022132
C75   C     C_R   0.518488 0.842163 0.034759 -0.015073
C76   C     C_R   0.519585 0.961517 0.844670 -0.022704
C77   C     C_R   0.480215 0.844289 0.963422 -0.026605
C78   C     C_R   0.482730 0.964261 0.157654 -0.025881
C79   C     C_R   0.479209 0.155325 0.037403 -0.024347
C80   C     C_R   0.486077 0.035445 0.841970 -0.002603
C81   C     C_R   0.156933 0.035842 0.479261 -0.026684
C82   C     C_R   0.036088 0.843166 0.483825 -0.027143
C83   C     C_R   0.842277 0.964508 0.485070 -0.008239
C84   C     C_R   0.962647 0.156061 0.480820 -0.020724
C85   C     C_R   0.844060 0.037710 0.519496 -0.017155
C86   C     C_R   0.963179 0.843489 0.520393 -0.020328
C87   C     C_R   0.156603 0.963773 0.517648 -0.030619
C88   C     C_R   0.035584 0.157305 0.515765 -0.014167
C89   C     C_R   0.034705 0.521212 0.842605 -0.026990
C90   C     C_R   0.843998 0.517713 0.962354 -0.019297
C91   C     C_R   0.964712 0.518386 0.157482 -0.010964
C92   C     C_R   0.155511 0.518026 0.037797 -0.022075
C93   C     C_R   0.035537 0.478614 0.156155 -0.023685
C94   C     C_R   0.842816 0.483010 0.036279 -0.023658
C95   C     C_R   0.963395 0.482027 0.843906 -0.024742
C96   C     C_R   0.157500 0.483560 0.964530 -0.017556
C97   C     C_R   0.019236 0.657882 0.466167 -0.018142
C98   C     C_R   0.016081 0.538262 0.655786 -0.019845
C99   C     C_R   0.017329 0.342186 0.534358 -0.021759
C100  C     C_R   0.017577 0.462702 0.344089 -0.031276
C101  C     C_R   0.980361 0.344302 0.462418 -0.017910
C102  C     C_R   0.981491 0.464649 0.657509 -0.028508
C103  C     C_R   0.980204 0.655539 0.537948 -0.017280
C104  C     C_R   0.985830 0.537330 0.342492 -0.012007
C105  C     C_R   0.656976 0.535159 0.978186 -0.026594
C106  C     C_R   0.537515 0.343208 0.986470 -0.032337
C107  C     C_R   0.342616 0.464197 0.983247 -0.013402
C108  C     C_R   0.462938 0.656267 0.982053 -0.025847
C109  C     C_R   0.343582 0.535918 0.020563 -0.029222
C110  C     C_R   0.462371 0.343417 0.018034 -0.025617
C111  C     C_R   0.656708 0.465090 0.020058 -0.030436
C112  C     C_R   0.537717 0.656950 0.013135 -0.011769
C113  C     C_R   0.535214 0.021086 0.342749 -0.022153
C114  C     C_R   0.344356 0.017695 0.461912 -0.020706
C115  C     C_R   0.464347 0.015284 0.658258 -0.012238
C116  C     C_R   0.655458 0.019198 0.538255 -0.019876
C117  C     C_R   0.537320 0.979757 0.655368 -0.026249
C118  C     C_R   0.342547 0.982142 0.535475 -0.015254
C119  C     C_R   0.463793 0.982032 0.343581 -0.015102
C120  C     C_R   0.657988 0.983901 0.465456 -0.023245
C121  C     C_R   0.499961 0.133786 0.001590 -0.238659
C122  C     C_R   0.499102 0.001163 0.133676 -0.227454
C123  C     C_R   0.499608 0.866205 0.999449 -0.238904
C124  C     C_R   0.501437 0.998632 0.866262 -0.239430
C125  C     C_R   0.133755 0.999943 0.498974 -0.237733
C126  C     C_R   0.999537 0.866307 0.501212 -0.237188
C127  C     C_R   0.866205 0.001019 0.501188 -0.238697
C128  C     C_R   0.999254 0.133720 0.498960 -0.239893
C129  C     C_R   0.999305 0.501223 0.866239 -0.239276
C130  C     C_R   0.866327 0.499924 0.999174 -0.236575
C131  C     C_R   0.999992 0.498959 0.133809 -0.243233
C132  C     C_R   0.133619 0.500323 0.000944 -0.240261
C133  C     C_R   0.000012 0.633755 0.501794 -0.239719
C134  C     C_R   0.998974 0.501177 0.633702 -0.236618
C135  C     C_R   0.999524 0.366234 0.498530 -0.239839
C136  C     C_R   0.001138 0.500143 0.366294 -0.229063
C137  C     C_R   0.633770 0.499953 0.999084 -0.230222
C138  C     C_R   0.499754 0.366319 0.001131 -0.227578
C139  C     C_R   0.366163 0.500041 0.001200 -0.232394
C140  C     C_R   0.500134 0.633705 0.998641 -0.237448
C141  C     C_R   0.499611 0.001147 0.366192 -0.240115
C142  C     C_R   0.366314 0.999870 0.498916 -0.237533
C143  C     C_R   0.500513 0.998634 0.633820 -0.237924
C144  C     C_R   0.633743 0.000598 0.501678 -0.238036
C145  C     C_R   0.500072 0.225806 0.004012 -0.155195
C146  C     C_R   0.500140 0.001690 0.225610 -0.164181
C147  C     C_R   0.499266 0.774206 0.997728 -0.166138
C148  C     C_R   0.503663 0.996749 0.774246 -0.158798
C149  C     C_R   0.225815 0.999688 0.497455 -0.171362
C150  C     C_R   0.999507 0.774313 0.503774 -0.171456
C151  C     C_R   0.774139 0.002431 0.503520 -0.156792
C152  C     C_R   0.998186 0.225730 0.497239 -0.166757
C153  C     C_R   0.999181 0.501522 0.774198 -0.164973
C154  C     C_R   0.774351 0.501297 0.999654 -0.166187
C155  C     C_R   0.001027 0.498253 0.225882 -0.164958
C156  C     C_R   0.225590 0.501591 0.002006 -0.164460
C157  C     C_R   0.999141 0.725761 0.503039 -0.164558
C158  C     C_R   0.999320 0.501435 0.725682 -0.166588
C159  C     C_R   0.997481 0.274258 0.497788 -0.169971
C160  C     C_R   0.001866 0.499043 0.274325 -0.171438
C161  C     C_R   0.725840 0.500933 0.999622 -0.170358
C162  C     C_R   0.500234 0.274326 0.004864 -0.168290
C163  C     C_R   0.274114 0.500913 0.002583 -0.169452
C164  C     C_R   0.499803 0.725694 0.996862 -0.166521
C165  C     C_R   0.499858 0.001899 0.274114 -0.161547
C166  C     C_R   0.274338 0.999781 0.497841 -0.162892
C167  C     C_R   0.502334 0.995536 0.725776 -0.172890
C168  C     C_R   0.725675 0.003360 0.502726 -0.166959
O1    O     O_R   0.463050 0.000010 0.934540 -0.621208
O2    O     O_R   0.463050 0.065460 0.000010 -0.617428
O3    O     O_R   0.463050 0.999990 0.065460 -0.624033
O4    O     O_R   0.463050 0.934540 0.999990 -0.618593
O5    O     O_R   0.536950 0.999990 0.934540 -0.619777
O6    O     O_R   0.536950 0.934540 0.000010 -0.621038
O7    O     O_R   0.536950 0.000010 0.065460 -0.623010
O8    O     O_R   0.536950 0.065460 0.999990 -0.620487
O9    O     O_R   0.000010 0.065460 0.536950 -0.619872
O10   O     O_R   0.065460 0.999990 0.536950 -0.616551
O11   O     O_R   0.999990 0.934540 0.536950 -0.625690
O12   O     O_R   0.934540 0.000010 0.536950 -0.620137
O13   O     O_R   0.999990 0.065460 0.463050 -0.620612
O14   O     O_R   0.934540 0.999990 0.463050 -0.621008
O15   O     O_R   0.000010 0.934540 0.463050 -0.616364
O16   O     O_R   0.065460 0.000010 0.463050 -0.621260
O17   O     O_R   0.065460 0.463050 0.999990 -0.619235
O18   O     O_R   0.999990 0.463050 0.934540 -0.617574
O19   O     O_R   0.934540 0.463050 0.000010 -0.617329
O20   O     O_R   0.000010 0.463050 0.065460 -0.619081
O21   O     O_R   0.065460 0.536950 0.000010 -0.620922
O22   O     O_R   0.999990 0.536950 0.065460 -0.620645
O23   O     O_R   0.934540 0.536950 0.999990 -0.624454
O24   O     O_R   0.000010 0.536950 0.934540 -0.617823
O25   O     O_R   0.963050 0.500010 0.434540 -0.625219
O26   O     O_R   0.963050 0.565460 0.500010 -0.623366
O27   O     O_R   0.963050 0.499990 0.565460 -0.617741
O28   O     O_R   0.963050 0.434540 0.499990 -0.624081
O29   O     O_R   0.036950 0.499990 0.434540 -0.619839
O30   O     O_R   0.036950 0.434540 0.500010 -0.618203
O31   O     O_R   0.036950 0.500010 0.565460 -0.621882
O32   O     O_R   0.036950 0.565460 0.499990 -0.616407
O33   O     O_R   0.500010 0.565460 0.036950 -0.622586
O34   O     O_R   0.565460 0.499990 0.036950 -0.617827
O35   O     O_R   0.499990 0.434540 0.036950 -0.626663
O36   O     O_R   0.434540 0.500010 0.036950 -0.619877
O37   O     O_R   0.499990 0.565460 0.963050 -0.619917
O38   O     O_R   0.434540 0.499990 0.963050 -0.622692
O39   O     O_R   0.500010 0.434540 0.963050 -0.619091
O40   O     O_R   0.565460 0.500010 0.963050 -0.625849
O41   O     O_R   0.565460 0.963050 0.499990 -0.616524
O42   O     O_R   0.499990 0.963050 0.434540 -0.621873
O43   O     O_R   0.434540 0.963050 0.500010 -0.620700
O44   O     O_R   0.500010 0.963050 0.565460 -0.615233
O45   O     O_R   0.565460 0.036950 0.500010 -0.623139
O46   O     O_R   0.499990 0.036950 0.565460 -0.623596
O47   O     O_R   0.434540 0.036950 0.499990 -0.620893
O48   O     O_R   0.500010 0.036950 0.434540 -0.617987
Zn1   Zn    Zn3+2 0.450650 0.000000 0.000000 0.920087
Zn2   Zn    Zn3+2 0.549350 0.000000 0.000000 0.926299
Zn3   Zn    Zn3+2 1.000000 1.000000 0.549350 0.923204
Zn4   Zn    Zn3+2 1.000000 1.000000 0.450650 0.922538
Zn5   Zn    Zn3+2 0.000000 0.450650 0.000000 0.921911
Zn6   Zn    Zn3+2 1.000000 0.549350 0.000000 0.924637
Zn7   Zn    Zn3+2 0.950650 0.500000 0.500000 0.924409
Zn8   Zn    Zn3+2 0.049350 0.500000 0.500000 0.918216
Zn9   Zn    Zn3+2 0.500000 0.500000 0.049350 0.919025
Zn10  Zn    Zn3+2 0.500000 0.500000 0.950650 0.914864
Zn11  Zn    Zn3+2 0.500000 0.950650 0.500000 0.923680
Zn12  Zn    Zn3+2 0.500000 0.049350 0.500000 0.925746
O49   O     O_3   0.533312 0.227645 0.930307 -0.547558
C169  C     C_3   0.498234 0.239437 0.902249 0.081914
H1    H     H_    0.478719 0.266711 0.916846 0.123973
H2    H     H_    0.476059 0.210919 0.895640 0.109976
C170  C     C_3   0.517514 0.255774 0.858353 -0.817965
H3    H     H_    0.533349 0.228010 0.840630 0.241588
H4    H     H_    0.490895 0.269737 0.837520 0.199738
H5    H     H_    0.542607 0.281787 0.863991 0.269322
O50   O     O_3   0.522704 0.078813 0.222902 -0.550000
C171  C     C_3   0.483710 0.102414 0.232552 0.085694
H6    H     H_    0.464087 0.085044 0.258759 0.122533
H7    H     H_    0.462977 0.107134 0.202707 0.110464
C172  C     C_3   0.496198 0.147681 0.249676 -0.819308
H8    H     H_    0.510262 0.168287 0.222409 0.242290
H9    H     H_    0.466549 0.164303 0.263466 0.201096
H10   H     H_    0.521093 0.144318 0.276110 0.267744
O51   O     O_3   0.528293 0.772782 0.072442 -0.553238
C173  C     C_3   0.491295 0.761861 0.099233 0.080611
H11   H     H_    0.470531 0.736639 0.083071 0.123253
H12   H     H_    0.470967 0.791508 0.106704 0.112407
C174  C     C_3   0.507272 0.742272 0.142677 -0.817910
H13   H     H_    0.527069 0.767039 0.160600 0.248828
H14   H     H_    0.478461 0.732292 0.163600 0.201024
H15   H     H_    0.527856 0.712770 0.136348 0.259640
O52   O     O_3   0.531683 0.921544 0.777698 -0.546810
C175  C     C_3   0.495156 0.894394 0.767956 0.090951
H16   H     H_    0.475877 0.909057 0.740560 0.125911
H17   H     H_    0.473357 0.888960 0.797397 0.108730
C176  C     C_3   0.512188 0.849745 0.752896 -0.818626
H18   H     H_    0.529425 0.832771 0.780416 0.246021
H19   H     H_    0.484048 0.828907 0.742345 0.199127
H20   H     H_    0.535477 0.854187 0.724618 0.265910
O53   O     O_3   0.469542 0.777238 0.923423 -0.545377
C177  C     C_3   0.505882 0.769697 0.894991 0.083071
H21   H     H_    0.527842 0.744003 0.909174 0.122650
H22   H     H_    0.525200 0.800499 0.888359 0.109940
C178  C     C_3   0.489038 0.752823 0.851172 -0.816764
H23   H     H_    0.469400 0.778832 0.834371 0.245454
H24   H     H_    0.517358 0.743750 0.829507 0.199713
H25   H     H_    0.467971 0.723185 0.856826 0.264733
O54   O     O_3   0.479120 0.924144 0.226540 -0.551792
C179  C     C_3   0.519079 0.901399 0.233915 0.072669
H26   H     H_    0.537361 0.916922 0.261297 0.129726
H27   H     H_    0.540595 0.900707 0.203721 0.113778
C180  C     C_3   0.508745 0.853926 0.247247 -0.823425
H28   H     H_    0.491049 0.837176 0.220221 0.245724
H29   H     H_    0.539907 0.835889 0.253836 0.203146
H30   H     H_    0.487867 0.853086 0.277601 0.259298
O55   O     O_3   0.464636 0.222084 0.076656 -0.546380
C181  C     C_3   0.498209 0.231262 0.107225 0.084126
H31   H     H_    0.517861 0.260264 0.095715 0.130690
H32   H     H_    0.520434 0.202542 0.112655 0.109471
C182  C     C_3   0.476662 0.242665 0.151357 -0.822879
H33   H     H_    0.461466 0.212651 0.166589 0.239787
H34   H     H_    0.501848 0.255971 0.174054 0.202319
H35   H     H_    0.450601 0.267892 0.146456 0.267217
O56   O     O_3   0.479410 0.073472 0.772657 -0.561090
C183  C     C_3   0.517811 0.095652 0.757276 0.082322
H36   H     H_    0.530959 0.079446 0.727165 0.132923
H37   H     H_    0.544068 0.096637 0.782737 0.106700
C184  C     C_3   0.505582 0.142822 0.745024 -0.824305
H38   H     H_    0.500466 0.162369 0.775408 0.237131
H39   H     H_    0.532526 0.158230 0.724897 0.203575
H40   H     H_    0.474856 0.143300 0.725593 0.267099
O57   O     O_3   0.225040 0.076015 0.471103 -0.549098
C185  C     C_3   0.233426 0.100846 0.509235 0.080952
H41   H     H_    0.258487 0.084248 0.530113 0.122648
H42   H     H_    0.202692 0.106222 0.529091 0.113964
C186  C     C_3   0.251807 0.145722 0.495343 -0.815232
H43   H     H_    0.226636 0.164534 0.476597 0.244765
H44   H     H_    0.260907 0.164713 0.525073 0.200026
H45   H     H_    0.281688 0.141553 0.474315 0.262802
O58   O     O_3   0.076506 0.775288 0.479881 -0.548839
C187  C     C_3   0.099696 0.767101 0.519286 0.076849
H46   H     H_    0.082335 0.741686 0.539881 0.123865
H47   H     H_    0.103867 0.797769 0.538838 0.114508
C188  C     C_3   0.145283 0.749629 0.507680 -0.817837
H48   H     H_    0.164024 0.774810 0.488123 0.247598
H49   H     H_    0.163586 0.742007 0.538428 0.200748
H50   H     H_    0.142329 0.719085 0.488101 0.262064
O59   O     O_3   0.773314 0.925955 0.479756 -0.555124
C189  C     C_3   0.761077 0.902870 0.518805 0.084689
H51   H     H_    0.734746 0.920839 0.536937 0.122095
H52   H     H_    0.789833 0.897648 0.540879 0.111458
C190  C     C_3   0.742691 0.858015 0.506460 -0.815515
H53   H     H_    0.769170 0.837536 0.491635 0.245190
H54   H     H_    0.729358 0.840898 0.536428 0.200376
H55   H     H_    0.715724 0.862101 0.482330 0.264494
O60   O     O_3   0.922654 0.223524 0.470734 -0.549647
C191  C     C_3   0.895717 0.232066 0.508032 0.080232
H56   H     H_    0.908292 0.261463 0.525597 0.132765
H57   H     H_    0.893904 0.203346 0.531431 0.108875
C192  C     C_3   0.849245 0.241936 0.492441 -0.830130
H58   H     H_    0.834881 0.212151 0.477156 0.245147
H59   H     H_    0.828134 0.251762 0.520877 0.204684
H60   H     H_    0.849920 0.269189 0.467659 0.263760
O61   O     O_3   0.776656 0.077507 0.531088 -0.550959
C193  C     C_3   0.767243 0.105276 0.494669 0.086972
H61   H     H_    0.737235 0.093313 0.477761 0.133227
H62   H     H_    0.795284 0.107528 0.470554 0.108872
C194  C     C_3   0.757914 0.151432 0.511601 -0.831338
H63   H     H_    0.787934 0.165039 0.527183 0.247039
H64   H     H_    0.748139 0.173390 0.483757 0.204313
H65   H     H_    0.730752 0.150274 0.536512 0.263143
O62   O     O_3   0.922483 0.775680 0.527793 -0.551378
C195  C     C_3   0.898676 0.767731 0.488852 0.078166
H66   H     H_    0.913212 0.739366 0.470961 0.129891
H67   H     H_    0.897977 0.797224 0.466390 0.112071
C196  C     C_3   0.851228 0.756080 0.501261 -0.820938
H68   H     H_    0.835090 0.784695 0.517306 0.243041
H69   H     H_    0.832658 0.747579 0.471077 0.202878
H70   H     H_    0.850472 0.727354 0.524364 0.261701
O63   O     O_3   0.224379 0.923496 0.524089 -0.546048
C197  C     C_3   0.231552 0.898060 0.485935 0.077881
H71   H     H_    0.256210 0.914331 0.463633 0.122618
H72   H     H_    0.200290 0.892520 0.467701 0.113902
C198  C     C_3   0.249726 0.853230 0.499612 -0.816678
H73   H     H_    0.225537 0.835631 0.521420 0.248395
H74   H     H_    0.255978 0.833073 0.469796 0.200712
H75   H     H_    0.281179 0.857449 0.517531 0.260049
O64   O     O_3   0.074637 0.225938 0.521418 -0.550882
C199  C     C_3   0.098051 0.237011 0.482199 0.079962
H76   H     H_    0.080961 0.263849 0.463881 0.124759
H77   H     H_    0.102146 0.207937 0.460323 0.111161
C200  C     C_3   0.143674 0.253722 0.494163 -0.818325
H78   H     H_    0.162680 0.226920 0.510401 0.246079
H79   H     H_    0.161634 0.264758 0.463755 0.200619
H80   H     H_    0.140773 0.281984 0.516906 0.262936
O65   O     O_3   0.074283 0.530283 0.773959 -0.549833
C201  C     C_3   0.101350 0.493095 0.766590 0.074791
H81   H     H_    0.087985 0.473165 0.739204 0.129758
H82   H     H_    0.104381 0.471865 0.796809 0.111868
C202  C     C_3   0.147368 0.508734 0.753266 -0.823675
H83   H     H_    0.162006 0.528179 0.780302 0.245789
H84   H     H_    0.168825 0.479834 0.746621 0.202445
H85   H     H_    0.145851 0.529595 0.722959 0.260594
O66   O     O_3   0.776356 0.526332 0.922889 -0.547151
C203  C     C_3   0.768062 0.488601 0.897314 0.085238
H86   H     H_    0.740856 0.468751 0.912531 0.123513
H87   H     H_    0.797978 0.467574 0.893509 0.110101
C204  C     C_3   0.753848 0.503498 0.851416 -0.822621
H88   H     H_    0.782184 0.518881 0.833333 0.243393
H89   H     H_    0.741916 0.474727 0.832541 0.200757
H90   H     H_    0.726874 0.528080 0.853908 0.268418
O67   O     O_3   0.926927 0.529432 0.226351 -0.556295
C205  C     C_3   0.900184 0.493250 0.239697 0.080815
H91   H     H_    0.913499 0.477850 0.270257 0.134248
H92   H     H_    0.897667 0.467761 0.213559 0.108353
C206  C     C_3   0.853976 0.509949 0.249853 -0.828778
H93   H     H_    0.838733 0.523012 0.219217 0.243283
H94   H     H_    0.833226 0.482532 0.263286 0.204168
H95   H     H_    0.855309 0.536597 0.274550 0.262355
O68   O     O_3   0.222607 0.528118 0.077690 -0.545294
C207  C     C_3   0.232085 0.490824 0.104192 0.084693
H96   H     H_    0.259642 0.471692 0.089395 0.123240
H97   H     H_    0.202720 0.468955 0.108925 0.108990
C208  C     C_3   0.246559 0.506368 0.149436 -0.824458
H98   H     H_    0.217855 0.519883 0.167931 0.242341
H99   H     H_    0.260563 0.478223 0.168507 0.201361
H100  H     H_    0.272041 0.532528 0.145846 0.269193
O69   O     O_3   0.074621 0.466310 0.223629 -0.544270
C209  C     C_3   0.103666 0.501813 0.231615 0.076576
H101  H     H_    0.090629 0.522437 0.258875 0.125276
H102  H     H_    0.109166 0.522813 0.201566 0.109749
C210  C     C_3   0.148017 0.483150 0.245610 -0.822190
H103  H     H_    0.163305 0.464808 0.217875 0.245494
H104  H     H_    0.170393 0.510519 0.255032 0.200721
H105  H     H_    0.143544 0.460383 0.274276 0.266723
O70   O     O_3   0.774521 0.477824 0.076993 -0.548133
C211  C     C_3   0.764239 0.517126 0.099540 0.077499
H106  H     H_    0.737425 0.535182 0.082483 0.124927
H107  H     H_    0.793654 0.539043 0.102482 0.113074
C212  C     C_3   0.747865 0.505242 0.145915 -0.819474
H108  H     H_    0.775353 0.491422 0.165670 0.241099
H109  H     H_    0.735114 0.535326 0.162369 0.201036
H110  H     H_    0.720867 0.480499 0.144363 0.267777
O71   O     O_3   0.924408 0.471622 0.776411 -0.544152
C213  C     C_3   0.897029 0.507948 0.766673 0.082683
H111  H     H_    0.912274 0.529056 0.740298 0.122107
H112  H     H_    0.890243 0.528243 0.796415 0.111317
C214  C     C_3   0.853264 0.490814 0.749651 -0.817681
H113  H     H_    0.834991 0.473271 0.776598 0.243283
H114  H     H_    0.832916 0.518761 0.737431 0.200251
H115  H     H_    0.859156 0.467626 0.722114 0.268696
O72   O     O_3   0.226534 0.477009 0.925627 -0.554264
C215  C     C_3   0.236736 0.515861 0.901341 0.077171
H116  H     H_    0.263803 0.534295 0.917416 0.128200
H117  H     H_    0.207427 0.537802 0.897788 0.111756
C216  C     C_3   0.252466 0.503351 0.855331 -0.826154
H118  H     H_    0.225502 0.486544 0.837503 0.247145
H119  H     H_    0.262411 0.533536 0.836446 0.202949
H120  H     H_    0.281255 0.480975 0.857526 0.260635
O73   O     O_3   0.027601 0.726922 0.427407 -0.549227
C217  C     C_3   0.989948 0.737897 0.402529 0.078764
H121  H     H_    0.970640 0.764198 0.419104 0.123527
H122  H     H_    0.968293 0.708611 0.397350 0.113522
C218  C     C_3   0.004876 0.755535 0.357582 -0.815823
H123  H     H_    0.019276 0.728440 0.337760 0.240394
H124  H     H_    0.976241 0.769632 0.339705 0.200202
H125  H     H_    0.030047 0.781792 0.361572 0.269273
O74   O     O_3   0.023090 0.578323 0.723156 -0.547745
C219  C     C_3   0.984369 0.602279 0.732930 0.084496
H126  H     H_    0.963913 0.584502 0.758188 0.120225
H127  H     H_    0.964407 0.608354 0.702809 0.112073
C220  C     C_3   0.997384 0.646588 0.751915 -0.816180
H128  H     H_    0.013674 0.667340 0.726025 0.244142
H129  H     H_    0.967537 0.663925 0.764392 0.199751
H130  H     H_    0.020500 0.641642 0.779646 0.268292
O75   O     O_3   0.022392 0.273217 0.573964 -0.553392
C221  C     C_3   0.983236 0.264180 0.598238 0.074695
H131  H     H_    0.961782 0.240877 0.580250 0.121250
H132  H     H_    0.964607 0.295034 0.605214 0.116936
C222  C     C_3   0.995055 0.242543 0.642110 -0.817173
H133  H     H_    0.014422 0.265813 0.662319 0.247312
H134  H     H_    0.964342 0.233253 0.660470 0.200924
H135  H     H_    0.014729 0.212308 0.636328 0.260705
O76   O     O_3   0.021965 0.421422 0.276955 -0.544833
C223  C     C_3   0.981923 0.398653 0.269998 0.078212
H136  H     H_    0.961260 0.416714 0.245752 0.121282
H137  H     H_    0.962983 0.393801 0.301468 0.114699
C224  C     C_3   0.992319 0.353507 0.251189 -0.813779
H138  H     H_    0.010674 0.333440 0.275728 0.245807
H139  H     H_    0.961097 0.336180 0.243101 0.200480
H140  H     H_    0.012630 0.357161 0.220644 0.263318
O77   O     O_3   0.970785 0.277167 0.422349 -0.548863
C225  C     C_3   0.008176 0.268771 0.395475 0.086244
H141  H     H_    0.027628 0.241117 0.409640 0.125855
H142  H     H_    0.029669 0.298501 0.391374 0.109334
C226  C     C_3   0.992531 0.255295 0.350016 -0.818264
H143  H     H_    0.974967 0.283201 0.334003 0.246143
H144  H     H_    0.021310 0.246009 0.329078 0.200973
H145  H     H_    0.969782 0.226651 0.353012 0.262388
O78   O     O_3   0.976376 0.424346 0.726111 -0.547968
C227  C     C_3   0.015762 0.400768 0.733886 0.077785
H146  H     H_    0.035496 0.417251 0.759647 0.124622
H147  H     H_    0.036109 0.397522 0.703140 0.113997
C228  C     C_3   0.004150 0.354615 0.750581 -0.818232
H148  H     H_    0.985426 0.336649 0.725074 0.246317
H149  H     H_    0.034852 0.336087 0.757916 0.200748
H150  H     H_    0.983802 0.356538 0.781211 0.262168
O79   O     O_3   0.968681 0.722515 0.577712 -0.551606
C229  C     C_3   0.004243 0.730833 0.606059 0.089910
H151  H     H_    0.024023 0.759356 0.593240 0.127944
H152  H     H_    0.026265 0.701645 0.609974 0.108834
C230  C     C_3   0.985828 0.742484 0.651305 -0.821141
H153  H     H_    0.971156 0.712696 0.667409 0.240421
H154  H     H_    0.012513 0.755467 0.672436 0.201923
H155  H     H_    0.959832 0.767965 0.648077 0.266410
O80   O     O_3   0.981928 0.576818 0.273443 -0.556126
C231  C     C_3   0.021865 0.598298 0.261683 0.086052
H156  H     H_    0.039383 0.579966 0.235245 0.123640
H157  H     H_    0.043878 0.601857 0.290631 0.113479
C232  C     C_3   0.011218 0.644138 0.243842 -0.817563
H158  H     H_    0.995238 0.664002 0.270072 0.247637
H159  H     H_    0.042124 0.660937 0.232711 0.200984
H160  H     H_    0.988615 0.641678 0.215441 0.260355
O81   O     O_3   0.724638 0.576146 0.970476 -0.550592
C233  C     C_3   0.732620 0.602124 0.007930 0.077001
H161  H     H_    0.760719 0.588396 0.026908 0.129885
H162  H     H_    0.702968 0.604422 0.030052 0.113792
C234  C     C_3   0.744937 0.648615 0.992826 -0.822234
H163  H     H_    0.716506 0.664298 0.976020 0.242810
H164  H     H_    0.753982 0.668765 0.021775 0.203236
H165  H     H_    0.773507 0.647629 0.969589 0.262333
O82   O     O_3   0.578454 0.275321 0.985853 -0.550191
C235  C     C_3   0.600231 0.269512 0.026434 0.076071
H166  H     H_    0.580177 0.248871 0.049754 0.117935
H167  H     H_    0.607569 0.301919 0.041790 0.119357
C236  C     C_3   0.643689 0.245705 0.018418 -0.816857
H168  H     H_    0.665107 0.265439 0.995563 0.251431
H169  H     H_    0.661027 0.240978 0.050253 0.201202
H170  H     H_    0.637386 0.212860 0.003847 0.256867
O83   O     O_3   0.273993 0.424840 0.977717 -0.554207
C237  C     C_3   0.264087 0.400369 0.016587 0.082367
H171  H     H_    0.238849 0.417606 0.036832 0.121153
H172  H     H_    0.294168 0.394492 0.036622 0.115232
C238  C     C_3   0.245090 0.355793 0.003916 -0.816419
H173  H     H_    0.269944 0.336858 0.984767 0.248990
H174  H     H_    0.235938 0.336747 0.034287 0.200809
H175  H     H_    0.215149 0.360551 0.983653 0.259811
O84   O     O_3   0.422967 0.724122 0.974237 -0.545466
C239  C     C_3   0.398123 0.732300 0.013026 0.081617
H176  H     H_    0.414572 0.757768 0.033192 0.123270
H177  H     H_    0.393133 0.701631 0.033207 0.110854
C240  C     C_3   0.353027 0.749809 0.000089 -0.816670
H178  H     H_    0.334467 0.724134 0.982141 0.245925
H179  H     H_    0.334021 0.758952 0.030202 0.199955
H180  H     H_    0.356878 0.779471 0.978541 0.264477
O85   O     O_3   0.275925 0.576320 0.028932 -0.544429
C241  C     C_3   0.269501 0.603484 0.991311 0.080052
H181  H     H_    0.243501 0.589291 0.970145 0.125521
H182  H     H_    0.300554 0.607997 0.971615 0.112093
C242  C     C_3   0.254163 0.648754 0.006273 -0.818743
H183  H     H_    0.280484 0.664923 0.025567 0.245101
H184  H     H_    0.246622 0.669725 0.976978 0.201060
H185  H     H_    0.223960 0.645429 0.027169 0.263558
O86   O     O_3   0.421960 0.275214 0.024182 -0.546849
C243  C     C_3   0.399857 0.267572 0.984201 0.083395
H186  H     H_    0.417996 0.243045 0.963990 0.120097
H187  H     H_    0.395676 0.298706 0.964663 0.114568
C244  C     C_3   0.354222 0.248823 0.994652 -0.812337
H188  H     H_    0.334534 0.273064 0.013729 0.247364
H189  H     H_    0.336859 0.241602 0.963417 0.199120
H190  H     H_    0.357135 0.217793 0.014243 0.261545
O87   O     O_3   0.724746 0.425950 0.029459 -0.544516
C245  C     C_3   0.733624 0.399397 0.992434 0.080804
H191  H     H_    0.759664 0.414867 0.971103 0.123171
H192  H     H_    0.703452 0.393746 0.972523 0.112723
C246  C     C_3   0.750400 0.354816 0.008393 -0.815743
H193  H     H_    0.724453 0.337832 0.028505 0.247228
H194  H     H_    0.758957 0.334020 0.979579 0.199819
H195  H     H_    0.780243 0.359301 0.028774 0.264240
O88   O     O_3   0.577259 0.725480 0.017831 -0.552889
C247  C     C_3   0.599577 0.736514 0.978008 0.082883
H196  H     H_    0.581857 0.763065 0.960021 0.124036
H197  H     H_    0.603533 0.707273 0.956374 0.111291
C248  C     C_3   0.645374 0.753932 0.988724 -0.819832
H198  H     H_    0.664638 0.728072 0.006176 0.249650
H199  H     H_    0.662987 0.763391 0.957591 0.201337
H200  H     H_    0.642635 0.783431 0.009944 0.258808
O89   O     O_3   0.574815 0.030997 0.274127 -0.551520
C249  C     C_3   0.601808 0.993910 0.265968 0.076160
H201  H     H_    0.588115 0.974252 0.238554 0.128546
H202  H     H_    0.605255 0.972364 0.295914 0.111558
C250  C     C_3   0.647655 0.009678 0.252152 -0.819628
H203  H     H_    0.662723 0.028799 0.279187 0.246243
H204  H     H_    0.668989 0.980840 0.244855 0.201794
H205  H     H_    0.645728 0.030866 0.222098 0.259164
O90   O     O_3   0.277191 0.028218 0.422142 -0.546945
C251  C     C_3   0.267456 0.991633 0.395393 0.086265
H206  H     H_    0.240095 0.971877 0.410395 0.126263
H207  H     H_    0.296839 0.970196 0.390231 0.108716
C252  C     C_3   0.252517 0.008588 0.350420 -0.816243
H208  H     H_    0.281088 0.022597 0.331614 0.238931
H209  H     H_    0.238025 0.981140 0.331375 0.200829
H210  H     H_    0.227215 0.034706 0.354567 0.269300
O91   O     O_3   0.426401 0.020948 0.728171 -0.558498
C253  C     C_3   0.400192 0.982986 0.736217 0.085228
H211  H     H_    0.418378 0.957984 0.755996 0.114753
H212  H     H_    0.389449 0.968149 0.704647 0.118883
C254  C     C_3   0.359401 0.996259 0.762547 -0.819919
H213  H     H_    0.336683 0.967605 0.766228 0.201498
H214  H     H_    0.369113 0.007340 0.795846 0.251864
H215  H     H_    0.341947 0.023492 0.745312 0.257866
O92   O     O_3   0.722468 0.029245 0.578398 -0.549111
C255  C     C_3   0.731311 0.991790 0.605036 0.085685
H216  H     H_    0.759741 0.973246 0.591168 0.127292
H217  H     H_    0.702121 0.969447 0.608337 0.108265
C256  C     C_3   0.743503 0.007242 0.650919 -0.823086
H218  H     H_    0.714974 0.024256 0.666386 0.247373
H219  H     H_    0.752738 0.978444 0.671864 0.201868
H220  H     H_    0.771838 0.030450 0.648755 0.262308
O93   O     O_3   0.578345 0.969793 0.722061 -0.545580
C257  C     C_3   0.603975 0.007670 0.730746 0.081303
H221  H     H_    0.588798 0.026921 0.757910 0.125181
H222  H     H_    0.608050 0.029215 0.700874 0.109300
C258  C     C_3   0.649542 0.992903 0.745386 -0.818736
H223  H     H_    0.666833 0.976150 0.717796 0.245072
H224  H     H_    0.669257 0.022077 0.755362 0.201371
H225  H     H_    0.646547 0.969724 0.773900 0.264550
O94   O     O_3   0.273602 0.972995 0.574152 -0.547164
C259  C     C_3   0.262183 0.010627 0.598837 0.081625
H226  H     H_    0.235351 0.029273 0.582346 0.123545
H227  H     H_    0.291097 0.032836 0.603643 0.111616
C260  C     C_3   0.245153 0.995634 0.644041 -0.815937
H228  H     H_    0.272574 0.981467 0.663613 0.242052
H229  H     H_    0.231022 0.024179 0.661998 0.199624
H230  H     H_    0.219050 0.970221 0.640386 0.268552
O95   O     O_3   0.425282 0.971796 0.275716 -0.549166
C261  C     C_3   0.397474 0.007912 0.266348 0.081316
H231  H     H_    0.411758 0.028376 0.238993 0.123321
H232  H     H_    0.391697 0.028911 0.295813 0.111053
C262  C     C_3   0.352970 0.990319 0.251516 -0.822409
H233  H     H_    0.335365 0.974275 0.279821 0.243302
H234  H     H_    0.332522 0.017817 0.238511 0.201265
H235  H     H_    0.357716 0.965607 0.225115 0.267678
O96   O     O_3   0.727463 0.979329 0.426450 -0.557249
C263  C     C_3   0.734901 0.018452 0.401576 0.073994
H236  H     H_    0.752181 0.043798 0.421198 0.113967
H237  H     H_    0.703153 0.032146 0.389429 0.121472
C264  C     C_3   0.764253 0.008186 0.361963 -0.820602
H238  H     H_    0.748087 0.983436 0.340757 0.253761
H239  H     H_    0.770374 0.038864 0.342283 0.201774
H240  H     H_    0.796399 0.995132 0.373333 0.256324
C265  C     C_3   0.545896 0.136195 0.929502 -0.339529
C266  C     C_3   0.595477 0.138820 0.937635 -0.779223
H241  H     H_    0.603136 0.126006 0.971196 0.254593
H242  H     H_    0.613352 0.118545 0.912960 0.224352
H243  H     H_    0.607109 0.173508 0.934474 0.282316
H244  H     H_    0.536850 0.101078 0.925615 0.186043
H245  H     H_    0.538397 0.152103 0.897221 0.207458
C267  C     C_3   0.538454 0.076564 0.131127 -0.345708
C268  C     C_3   0.588522 0.072564 0.134550 -0.781469
H246  H     H_    0.599243 0.038949 0.124988 0.255662
H247  H     H_    0.604626 0.096975 0.111871 0.225381
H248  H     H_    0.599103 0.079102 0.168820 0.279589
H249  H     H_    0.530178 0.077712 0.095703 0.186517
H250  H     H_    0.527655 0.108783 0.144612 0.207871
C269  C     C_3   0.543223 0.864351 0.071928 -0.341128
C270  C     C_3   0.593023 0.859957 0.065100 -0.781107
H251  H     H_    0.602454 0.869195 0.030647 0.253872
H252  H     H_    0.610459 0.882350 0.087885 0.223711
H253  H     H_    0.603583 0.825536 0.072028 0.280502
H254  H     H_    0.535618 0.899836 0.074432 0.188203
H255  H     H_    0.533526 0.849700 0.104469 0.206466
C271  C     C_3   0.543315 0.924889 0.869499 -0.341146
C272  C     C_3   0.593237 0.931945 0.866740 -0.780150
H256  H     H_    0.601645 0.966656 0.874577 0.256783
H257  H     H_    0.609732 0.909835 0.890936 0.225095
H258  H     H_    0.605625 0.924300 0.833057 0.273953
H259  H     H_    0.533765 0.923154 0.904806 0.187708
H260  H     H_    0.534826 0.892009 0.856009 0.205231
C273  C     C_3   0.454329 0.868802 0.928066 -0.329993
C274  C     C_3   0.405021 0.868595 0.939276 -0.769397
H261  H     H_    0.399266 0.870098 0.975540 0.254913
H262  H     H_    0.389028 0.897793 0.923790 0.226590
H263  H     H_    0.389298 0.838280 0.926531 0.259079
H264  H     H_    0.465325 0.903412 0.924122 0.183447
H265  H     H_    0.459677 0.854044 0.895034 0.207174
C275  C     C_3   0.457974 0.926784 0.135717 -0.325626
C276  C     C_3   0.408500 0.937137 0.133102 -0.776269
H266  H     H_    0.398602 0.962954 0.156937 0.255214
H267  H     H_    0.400187 0.948869 0.099351 0.252453
H268  H     H_    0.388865 0.906863 0.140483 0.228590
H269  H     H_    0.470741 0.920499 0.102130 0.168427
H270  H     H_    0.462453 0.895304 0.154223 0.221049
C277  C     C_3   0.452055 0.130500 0.072352 -0.330932
C278  C     C_3   0.402821 0.132753 0.061880 -0.764034
H271  H     H_    0.397466 0.132905 0.025647 0.252836
H272  H     H_    0.385647 0.103454 0.076463 0.223894
H273  H     H_    0.388161 0.163018 0.076134 0.265464
H274  H     H_    0.461543 0.095433 0.075143 0.187228
H275  H     H_    0.457793 0.144092 0.105738 0.202604
C279  C     C_3   0.465659 0.075658 0.863872 -0.347057
C280  C     C_3   0.415980 0.077255 0.856218 -0.779750
H276  H     H_    0.400157 0.046461 0.868962 0.248310
H277  H     H_    0.401600 0.105757 0.873967 0.222295
H278  H     H_    0.408803 0.081163 0.820557 0.295753
H279  H     H_    0.470822 0.076141 0.899923 0.186859
H280  H     H_    0.481326 0.106309 0.850577 0.204413
C281  C     C_3   0.133607 0.071430 0.452583 -0.328631
C282  C     C_3   0.130061 0.058126 0.404167 -0.776979
H281  H     H_    0.127252 0.021760 0.400904 0.258222
H282  H     H_    0.100247 0.073372 0.389454 0.229391
H283  H     H_    0.159597 0.069725 0.385310 0.249514
H284  H     H_    0.100063 0.077546 0.465673 0.175602
H285  H     H_    0.150926 0.103734 0.454480 0.217683
C283  C     C_3   0.072584 0.866338 0.457403 -0.322166
C284  C     C_3   0.061337 0.868756 0.408202 -0.767760
H286  H     H_    0.025916 0.861528 0.402377 0.253753
H287  H     H_    0.068477 0.902468 0.394992 0.232552
H288  H     H_    0.081657 0.844807 0.389460 0.242276
H289  H     H_    0.078119 0.900198 0.469183 0.170765
H290  H     H_    0.104791 0.849436 0.461640 0.214942
C285  C     C_3   0.864404 0.925201 0.463178 -0.351411
C286  C     C_3   0.854911 0.924498 0.413816 -0.780699
H291  H     H_    0.867698 0.955119 0.397654 0.246341
H292  H     H_    0.871539 0.895707 0.398693 0.222640
H293  H     H_    0.818975 0.921653 0.407799 0.298973
H294  H     H_    0.900646 0.925188 0.466765 0.192743
H295  H     H_    0.852434 0.893990 0.478881 0.203053
C287  C     C_3   0.925908 0.132032 0.456999 -0.339411
C288  C     C_3   0.933252 0.134935 0.407100 -0.781231
H296  H     H_    0.967938 0.126535 0.398452 0.255620
H297  H     H_    0.911047 0.111261 0.390537 0.226277
H298  H     H_    0.925944 0.168787 0.394877 0.273411
H299  H     H_    0.923782 0.096770 0.466507 0.187576
H300  H     H_    0.893163 0.146092 0.465612 0.208431
C289  C     C_3   0.868103 0.074668 0.543001 -0.342614
C290  C     C_3   0.862670 0.069536 0.592986 -0.783084
H301  H     H_    0.873690 0.036236 0.603814 0.253782
H302  H     H_    0.883019 0.094728 0.609692 0.224288
H303  H     H_    0.827619 0.074135 0.602956 0.283095
H304  H     H_    0.903836 0.075552 0.535356 0.191912
H305  H     H_    0.855297 0.107366 0.532317 0.204519
C291  C     C_3   0.926579 0.867084 0.545354 -0.339798
C292  C     C_3   0.936406 0.867471 0.594749 -0.790940
H306  H     H_    0.970733 0.878740 0.600482 0.260727
H307  H     H_    0.913428 0.890387 0.611652 0.227692
H308  H     H_    0.932013 0.833884 0.609132 0.265406
H309  H     H_    0.922687 0.901611 0.533956 0.183272
H310  H     H_    0.894075 0.851051 0.540235 0.217155
C293  C     C_3   0.133048 0.927830 0.544527 -0.321609
C294  C     C_3   0.132436 0.938779 0.593820 -0.763633
H311  H     H_    0.141239 0.973835 0.599646 0.251877
H312  H     H_    0.098814 0.932908 0.607868 0.230452
H313  H     H_    0.156035 0.917334 0.611800 0.243739
H314  H     H_    0.098672 0.923306 0.533830 0.175310
H315  H     H_    0.148836 0.895169 0.539514 0.210194
C295  C     C_3   0.073635 0.134503 0.539087 -0.339865
C296  C     C_3   0.068023 0.137362 0.589151 -0.783611
H316  H     H_    0.033462 0.129622 0.599203 0.255498
H317  H     H_    0.090112 0.113090 0.605428 0.224740
H318  H     H_    0.076779 0.170931 0.600476 0.275622
H319  H     H_    0.076087 0.099247 0.530742 0.183854
H320  H     H_    0.105793 0.149409 0.528850 0.210208
C297  C     C_3   0.070075 0.548118 0.865466 -0.322166
C298  C     C_3   0.056350 0.596602 0.868756 -0.771161
H321  H     H_    0.019905 0.600408 0.867897 0.255400
H322  H     H_    0.068129 0.610428 0.900345 0.230538
H323  H     H_    0.071184 0.616070 0.841043 0.246485
H324  H     H_    0.076480 0.535171 0.899005 0.174521
H325  H     H_    0.102364 0.546071 0.847881 0.215201
C299  C     C_3   0.867876 0.540945 0.924139 -0.347947
C300  C     C_3   0.861991 0.590847 0.926880 -0.780985
H326  H     H_    0.873072 0.602741 0.959488 0.253176
H327  H     H_    0.882141 0.607399 0.900614 0.222683
H328  H     H_    0.826878 0.599903 0.922243 0.286337
H329  H     H_    0.903706 0.534231 0.923477 0.189425
H330  H     H_    0.855304 0.529224 0.892031 0.204172
C301  C     C_3   0.927592 0.543380 0.134871 -0.338797
C302  C     C_3   0.933267 0.593070 0.140344 -0.778523
H331  H     H_    0.967866 0.603044 0.132703 0.252267
H332  H     H_    0.911123 0.610912 0.117263 0.222686
H333  H     H_    0.924725 0.602728 0.174613 0.283032
H334  H     H_    0.925912 0.536798 0.099183 0.190190
H335  H     H_    0.895023 0.532795 0.148692 0.204976
C303  C     C_3   0.130921 0.541324 0.074811 -0.339278
C304  C     C_3   0.133626 0.591410 0.068232 -0.775721
H336  H     H_    0.128024 0.600500 0.033124 0.255095
H337  H     H_    0.107867 0.607472 0.088830 0.224789
H338  H     H_    0.166551 0.603664 0.078272 0.273242
H339  H     H_    0.095696 0.531981 0.076619 0.185813
H340  H     H_    0.144565 0.532058 0.107551 0.206079
C305  C     C_3   0.070783 0.452214 0.132021 -0.331273
C306  C     C_3   0.058608 0.403279 0.131816 -0.774845
H341  H     H_    0.022683 0.398705 0.126453 0.256292
H342  H     H_    0.076793 0.386586 0.104716 0.225736
H343  H     H_    0.067563 0.387473 0.163693 0.263321
H344  H     H_    0.075540 0.463684 0.097528 0.182993
H345  H     H_    0.103624 0.456334 0.147437 0.209909
C307  C     C_3   0.865709 0.458145 0.073416 -0.319212
C308  C     C_3   0.869798 0.408946 0.062948 -0.768376
H346  H     H_    0.864621 0.402429 0.027339 0.252757
H347  H     H_    0.903330 0.397057 0.071585 0.233480
H348  H     H_    0.845144 0.389548 0.082480 0.243345
H349  H     H_    0.898998 0.471703 0.079115 0.168012
H350  H     H_    0.847917 0.461928 0.105442 0.217647
C309  C     C_3   0.927361 0.455987 0.868063 -0.329619
C310  C     C_3   0.936758 0.406490 0.866593 -0.757958
H351  H     H_    0.972618 0.399839 0.863439 0.251523
H352  H     H_    0.924599 0.390273 0.897587 0.223577
H353  H     H_    0.919621 0.391415 0.838308 0.259167
H354  H     H_    0.923951 0.465704 0.902961 0.180472
H355  H     H_    0.894496 0.462774 0.853599 0.203764
C311  C     C_3   0.134945 0.460335 0.926626 -0.334696
C312  C     C_3   0.136091 0.410239 0.933443 -0.780244
H356  H     H_    0.130411 0.401332 0.968746 0.255875
H357  H     H_    0.109674 0.394729 0.913722 0.225945
H358  H     H_    0.168523 0.397075 0.922458 0.268305
H359  H     H_    0.100135 0.470342 0.923405 0.179637
H360  H     H_    0.150821 0.469222 0.894430 0.210935
C313  C     C_3   0.045487 0.635608 0.429623 -0.326268
C314  C     C_3   0.094414 0.632919 0.441279 -0.771758
H361  H     H_    0.099010 0.630079 0.477573 0.256083
H362  H     H_    0.109337 0.603354 0.425756 0.228159
H363  H     H_    0.112116 0.662761 0.428854 0.255725
H364  H     H_    0.033108 0.601913 0.423577 0.175569
H365  H     H_    0.041984 0.653378 0.397543 0.215321
C315  C     C_3   0.039306 0.576023 0.631481 -0.344567
C316  C     C_3   0.089269 0.571228 0.634661 -0.780196
H366  H     H_    0.099380 0.537112 0.626302 0.255569
H367  H     H_    0.105686 0.594503 0.611001 0.223900
H368  H     H_    0.100254 0.578849 0.668546 0.277902
H369  H     H_    0.030695 0.577660 0.596138 0.185052
H370  H     H_    0.029179 0.608347 0.645235 0.206999
C317  C     C_3   0.043191 0.364406 0.570731 -0.325883
C318  C     C_3   0.092540 0.365985 0.559186 -0.774052
H371  H     H_    0.098101 0.368066 0.522856 0.256195
H372  H     H_    0.107833 0.395601 0.574171 0.227706
H373  H     H_    0.109190 0.336039 0.572350 0.254907
H374  H     H_    0.031726 0.398474 0.576185 0.176600
H375  H     H_    0.038271 0.347127 0.603087 0.214761
C319  C     C_3   0.042174 0.425818 0.367770 -0.326583
C320  C     C_3   0.091772 0.435742 0.369088 -0.769933
H376  H     H_    0.101591 0.461531 0.344438 0.253837
H377  H     H_    0.100946 0.447397 0.402365 0.249477
H378  H     H_    0.110911 0.405383 0.362000 0.228608
H379  H     H_    0.030010 0.420622 0.401930 0.172314
H380  H     H_    0.036849 0.393777 0.351186 0.216692
C321  C     C_3   0.955791 0.368437 0.425856 -0.348532
C322  C     C_3   0.906040 0.361875 0.431489 -0.785668
H381  H     H_    0.895103 0.373818 0.464356 0.252915
H382  H     H_    0.888553 0.380897 0.405514 0.224377
H383  H     H_    0.897242 0.326452 0.428520 0.285750
H384  H     H_    0.962114 0.404359 0.425197 0.195321
H385  H     H_    0.966500 0.356359 0.392966 0.205870
C323  C     C_3   0.955821 0.428179 0.635057 -0.320921
C324  C     C_3   0.906714 0.439854 0.632219 -0.771648
H386  H     H_    0.900828 0.475593 0.637439 0.253576
H387  H     H_    0.894145 0.431418 0.599028 0.233764
H388  H     H_    0.887504 0.420775 0.657432 0.242094
H389  H     H_    0.968565 0.422416 0.601356 0.171958
H390  H     H_    0.959531 0.396031 0.652649 0.215995
C325  C     C_3   0.954627 0.631247 0.574414 -0.347941
C326  C     C_3   0.905012 0.638208 0.569058 -0.779728
H391  H     H_    0.894781 0.628225 0.535572 0.253211
H392  H     H_    0.886772 0.617853 0.593994 0.222727
H393  H     H_    0.896435 0.673419 0.574060 0.288002
H394  H     H_    0.960739 0.595286 0.574928 0.194708
H395  H     H_    0.964753 0.643078 0.607339 0.202466
C327  C     C_3   0.964539 0.576881 0.364661 -0.351449
C328  C     C_3   0.915312 0.579118 0.354426 -0.783731
H396  H     H_    0.898623 0.548264 0.365768 0.249970
H397  H     H_    0.900282 0.607486 0.371882 0.222597
H398  H     H_    0.910020 0.583733 0.318462 0.295887
H399  H     H_    0.967532 0.575943 0.400996 0.192824
H400  H     H_    0.980989 0.607858 0.353183 0.203038
C329  C     C_3   0.634478 0.569098 0.948625 -0.321082
C330  C     C_3   0.632614 0.552900 0.900919 -0.779690
H401  H     H_    0.658108 0.527503 0.894271 0.254796
H402  H     H_    0.599773 0.538370 0.894201 0.253578
H403  H     H_    0.638083 0.580947 0.877521 0.227776
H404  H     H_    0.600697 0.576721 0.960182 0.175172
H405  H     H_    0.652363 0.601124 0.949067 0.221995
C331  C     C_3   0.575182 0.366307 0.961749 -0.322977
C332  C     C_3   0.565865 0.369770 0.912167 -0.768643
H406  H     H_    0.533825 0.354366 0.903569 0.252114
H407  H     H_    0.564844 0.404988 0.901564 0.243103
H408  H     H_    0.592402 0.353224 0.892996 0.232496
H409  H     H_    0.580775 0.399834 0.974436 0.166598
H410  H     H_    0.606919 0.348785 0.966765 0.216981
C333  C     C_3   0.364929 0.426626 0.958795 -0.350150
C334  C     C_3   0.355130 0.429060 0.909524 -0.781913
H411  H     H_    0.362728 0.462607 0.896217 0.249838
H412  H     H_    0.375890 0.404824 0.891626 0.221745
H413  H     H_    0.319970 0.421208 0.903454 0.291893
H414  H     H_    0.401157 0.426649 0.962223 0.196230
H415  H     H_    0.353440 0.394291 0.972456 0.201791
C335  C     C_3   0.425702 0.632374 0.959087 -0.332316
C336  C     C_3   0.433652 0.631767 0.909136 -0.776904
H416  H     H_    0.469376 0.629201 0.901160 0.257151
H417  H     H_    0.416603 0.602739 0.894915 0.227677
H418  H     H_    0.420357 0.662250 0.893641 0.258940
H419  H     H_    0.422327 0.597903 0.970782 0.178974
H420  H     H_    0.393185 0.647824 0.966356 0.209808
C337  C     C_3   0.366746 0.571069 0.047439 -0.326667
C338  C     C_3   0.366365 0.558555 0.096595 -0.771151
H421  H     H_    0.338656 0.535806 0.105097 0.257678
H422  H     H_    0.397737 0.542020 0.105431 0.250618
H423  H     H_    0.362905 0.588662 0.116900 0.227933
H424  H     H_    0.401271 0.576408 0.036790 0.179708
H425  H     H_    0.350520 0.603588 0.042876 0.214569
C339  C     C_3   0.424448 0.367052 0.040766 -0.342791
C340  C     C_3   0.431437 0.367784 0.090573 -0.789454
H426  H     H_    0.465808 0.377649 0.098130 0.260439
H427  H     H_    0.408597 0.391935 0.105864 0.228138
H428  H     H_    0.424806 0.334599 0.105154 0.264721
H429  H     H_    0.421296 0.401494 0.028913 0.180777
H430  H     H_    0.392283 0.350999 0.033819 0.214882
C341  C     C_3   0.633430 0.430056 0.048358 -0.325249
C342  C     C_3   0.635140 0.442021 0.097387 -0.761481
H431  H     H_    0.642097 0.477672 0.101922 0.251283
H432  H     H_    0.602820 0.434440 0.113568 0.226024
H433  H     H_    0.661108 0.422479 0.114188 0.251458
H434  H     H_    0.598521 0.425865 0.039287 0.182254
H435  H     H_    0.648507 0.397054 0.043350 0.206788
C343  C     C_3   0.577534 0.633737 0.032863 -0.347468
C344  C     C_3   0.579071 0.640137 0.082693 -0.785260
H436  H     H_    0.546993 0.630529 0.098159 0.252723
H437  H     H_    0.605342 0.618998 0.096880 0.222706
H438  H     H_    0.586500 0.675053 0.090438 0.287666
H439  H     H_    0.577309 0.597848 0.026998 0.186707
H440  H     H_    0.608525 0.646455 0.017300 0.204532
C345  C     C_3   0.570911 0.047409 0.365803 -0.330646
C346  C     C_3   0.558905 0.096418 0.366760 -0.775628
H441  H     H_    0.522765 0.100896 0.371815 0.257494
H442  H     H_    0.576260 0.112699 0.394448 0.225928
H443  H     H_    0.569202 0.112814 0.335174 0.257974
H444  H     H_    0.575696 0.035783 0.400108 0.181121
H445  H     H_    0.603606 0.043424 0.349284 0.211632
C347  C     C_3   0.368939 0.041583 0.424483 -0.337837
C348  C     C_3   0.367317 0.091448 0.430661 -0.775698
H446  H     H_    0.372741 0.099968 0.465792 0.255854
H447  H     H_    0.393666 0.107534 0.410286 0.223843
H448  H     H_    0.334888 0.104534 0.420181 0.270542
H449  H     H_    0.403933 0.031642 0.422372 0.182685
H450  H     H_    0.354828 0.033179 0.391950 0.206016
C349  C     C_3   0.425943 0.039362 0.636785 -0.353462
C350  C     C_3   0.427358 0.088540 0.647132 -0.780610
H451  H     H_    0.459213 0.103078 0.635590 0.251387
H452  H     H_    0.399994 0.105672 0.629969 0.222022
H453  H     H_    0.423468 0.093923 0.683135 0.293571
H454  H     H_    0.425802 0.036295 0.600456 0.194360
H455  H     H_    0.394067 0.025180 0.648657 0.197721
C351  C     C_3   0.631020 0.042926 0.575085 -0.345408
C352  C     C_3   0.636590 0.092813 0.569834 -0.784462
H456  H     H_    0.624859 0.103744 0.536886 0.253641
H457  H     H_    0.616914 0.109774 0.595676 0.224441
H458  H     H_    0.671793 0.102311 0.573291 0.283324
H459  H     H_    0.595257 0.035693 0.575883 0.192830
H460  H     H_    0.643458 0.032170 0.607856 0.205697
C353  C     C_3   0.573367 0.955189 0.630397 -0.328286
C354  C     C_3   0.563863 0.905473 0.630757 -0.770057
H461  H     H_    0.527765 0.898725 0.632537 0.253352
H462  H     H_    0.577101 0.890636 0.599978 0.227377
H463  H     H_    0.579938 0.889451 0.659529 0.254948
H464  H     H_    0.576417 0.966553 0.595722 0.181940
H465  H     H_    0.606318 0.961364 0.644914 0.207657
C355  C     C_3   0.365250 0.958537 0.573447 -0.335092
C356  C     C_3   0.365849 0.908717 0.566183 -0.778400
H466  H     H_    0.372935 0.901149 0.530998 0.257560
H467  H     H_    0.392007 0.893363 0.586637 0.224741
H468  H     H_    0.333511 0.894021 0.575844 0.267221
H469  H     H_    0.399645 0.969992 0.577345 0.177311
H470  H     H_    0.348680 0.965515 0.605540 0.209987
C357  C     C_3   0.427019 0.956464 0.367147 -0.347469
C358  C     C_3   0.433679 0.906886 0.361719 -0.777121
H471  H     H_    0.466633 0.897119 0.374121 0.252822
H472  H     H_    0.407940 0.888645 0.380983 0.223232
H473  H     H_    0.431132 0.897760 0.326454 0.287792
H474  H     H_    0.425112 0.963232 0.402892 0.190826
H475  H     H_    0.394342 0.966047 0.353867 0.205446
C359  C     C_3   0.635814 0.959216 0.428236 -0.329585
C360  C     C_3   0.632995 0.909741 0.438695 -0.771878
H476  H     H_    0.631703 0.903187 0.474872 0.256004
H477  H     H_    0.602603 0.895760 0.424063 0.229568
H478  H     H_    0.662035 0.892507 0.424443 0.251132
H479  H     H_    0.602169 0.971703 0.422471 0.173616
H480  H     H_    0.653629 0.964314 0.396274 0.212526

loop_
_geom_bond_atom_site_label_1
_geom_bond_atom_site_label_2
_ccdc_geom_bond_type
C265  H245  S    
C75   C269  S    
C116  C351  S    
C281  C282  S    
C96   C311  S    
C72   C168  A    
C226  H143  S    
C154  C161  S    
O1    Zn1   S    
C320  H376  S    
C120  C144  A    
C39   C87   A    
C64   C164  A    
O29   Zn8   S    
C196  H68   S    
C55   C157  A    
C289  H304  S    
C59   O83   S    
C23   O47   A    
O94   C259  S    
C182  H35   S    
O33   Zn9   S    
C79   C121  A    
C251  C252  S    
O65   C201  S    
C222  H133  S    
C327  H399  S    
C43   O67   S    
O90   C251  S    
C318  H371  S    
C334  H412  S    
C260  H229  S    
C147  C164  S    
O74   C219  S    
C247  H196  S    
C227  H147  S    
C272  H257  S    
C91   C131  A    
C347  H450  S    
C36   O60   S    
O84   C239  S    
C17   O33   A    
C180  H30   S    
C89   C129  A    
C267  C268  S    
C266  H243  S    
C63   C161  A    
C319  C320  S    
C250  H203  S    
C91   C301  S    
C353  H464  S    
C224  H138  S    
C299  C300  S    
C206  H95   S    
C175  H17   S    
C259  H226  S    
C282  H283  S    
C356  H467  S    
C171  H6    S    
C201  H81   S    
C252  H209  S    
C55   O79   S    
C296  H318  S    
C321  H384  S    
C193  H61   S    
C291  H310  S    
C360  H478  S    
C173  H11   S    
O13   Zn4   S    
C44   C92   A    
C194  H63   S    
C204  H90   S    
O89   C249  S    
C14   O26   A    
C330  H402  S    
O17   Zn5   S    
O51   C173  S    
C70   O94   S    
C215  H117  S    
C30   O54   S    
C9    O21   A    
C302  H332  S    
C302  H331  S    
C200  H79   S    
C337  C338  S    
O34   Zn9   S    
C235  H167  S    
C332  H407  S    
C297  H325  S    
C333  H415  S    
C276  H268  S    
C171  H7    S    
C53   C159  A    
C308  H347  S    
O10   Zn3   S    
C110  C138  A    
C352  H458  S    
C350  H451  S    
C88   C295  S    
C179  H26   S    
C261  H231  S    
C222  H135  S    
C209  H102  S    
C204  H88   S    
C47   C153  A    
C263  C264  S    
O79   C229  S    
C261  C262  S    
C301  H335  S    
C6    O16   A    
C246  H195  S    
C44   C156  A    
C267  H249  S    
C18   C137  S    
C323  H390  S    
O93   C257  S    
C255  H216  S    
C231  H157  S    
C32   C80   A    
C202  H84   S    
C8    O12   A    
C118  C355  S    
C333  C334  S    
C256  H220  S    
C193  C194  S    
C19   O35   A    
C306  H341  S    
O37   Zn10  S    
C258  H223  S    
C343  H440  S    
C28   O52   S    
C198  H75   S    
C169  H2    S    
C68   O92   S    
C68   C116  A    
C287  H300  S    
O18   Zn5   S    
C73   C121  A    
O68   C207  S    
C119  C141  A    
C226  H145  S    
C213  H112  S    
O88   C247  S    
C322  H381  S    
C290  H302  S    
C58   C162  A    
O35   Zn9   S    
C196  H70   S    
C16   O30   A    
C111  C137  A    
C2    C121  S    
C67   C167  A    
C312  H357  S    
C109  C337  S    
C251  H206  S    
C223  H137  S    
C48   C96   A    
C183  C184  S    
O11   Zn3   S    
C305  H345  S    
C65   C113  A    
C318  H373  S    
C216  H118  S    
C248  H198  S    
C6    C125  S    
C115  C349  S    
C278  H271  S    
C27   C75   A    
C197  C198  S    
C211  C212  S    
O80   C231  S    
C344  H436  S    
C335  H420  S    
C241  H181  S    
C240  H180  S    
C71   C119  A    
C210  H103  S    
C239  C240  S    
C7    O15   A    
C331  H410  S    
C40   C88   A    
C290  H303  S    
C230  H154  S    
C274  H261  S    
C182  H33   S    
C1    C124  S    
O45   Zn12  S    
C93   C305  S    
O71   C213  S    
C183  H37   S    
C218  H124  S    
C195  C196  S    
C185  H41   S    
C4    O4    A    
C22   O42   A    
C5    C128  S    
C92   C303  S    
C326  H392  S    
C329  H405  S    
C197  H72   S    
C280  H277  S    
C7    C126  S    
C63   C111  A    
C199  H76   S    
C219  H127  S    
C10   C129  S    
C64   C112  A    
C49   C97   A    
C273  H264  S    
C31   C145  A    
O16   Zn4   S    
C57   C161  A    
C117  C143  A    
C294  H312  S    
C324  H386  S    
C202  H83   S    
C348  H447  S    
C148  C167  S    
C245  H191  S    
C63   O87   S    
C33   C149  A    
O31   Zn8   S    
C240  H179  S    
C262  H233  S    
C268  H246  S    
C78   C275  S    
C281  H284  S    
C302  H333  S    
C315  H370  S    
C208  H99   S    
C99   C317  S    
C52   C160  A    
C41   C89   A    
C49   O73   S    
C284  H286  S    
C269  H255  S    
C150  C157  S    
C86   C126  A    
C57   O81   S    
C112  C140  A    
C283  H290  S    
C341  C342  S    
C26   O50   S    
C350  H453  S    
C87   C293  S    
C45   C93   A    
C248  H200  S    
C241  C242  S    
C264  H238  S    
C190  H53   S    
C360  H477  S    
C34   O58   S    
O91   C253  S    
C50   C158  A    
C1    O5    A    
C174  H13   S    
O48   Zn12  S    
C13   O29   A    
C38   C86   A    
C20   C139  S    
C250  H205  S    
C320  H377  S    
O47   Zn12  S    
O22   Zn6   S    
C311  H360  S    
O53   C177  S    
C298  H322  S    
C190  H54   S    
C54   C158  A    
C315  H369  S    
C24   C143  S    
C342  H431  S    
C269  C270  S    
C300  H327  S    
C179  H27   S    
C270  H251  S    
C40   C152  A    
C233  C234  S    
C176  H18   S    
C153  C158  S    
C26   C146  A    
C205  H91   S    
C191  H57   S    
O40   Zn10  S    
C116  C144  A    
O44   Zn11  S    
C114  C347  S    
C295  H319  S    
C82   C126  A    
C309  H355  S    
C292  H308  S    
C21   O41   A    
C347  C348  S    
C188  H49   S    
C245  C246  S    
C83   C285  S    
C275  H270  S    
C256  H218  S    
C225  H141  S    
O6    Zn2   S    
C38   O62   S    
O81   C233  S    
C170  H3    S    
C337  H424  S    
C223  C224  S    
C357  H475  S    
O20   Zn5   S    
C324  H388  S    
C301  H334  S    
C328  H398  S    
C279  H280  S    
O55   C181  S    
C119  C357  S    
C112  C343  S    
C194  H64   S    
C49   C157  A    
O76   C223  S    
O9    Zn3   S    
C278  H273  S    
C316  H366  S    
C216  H119  S    
C41   O65   S    
C228  H148  S    
C195  H67   S    
C41   C153  A    
C101  C135  A    
C60   C164  A    
C210  H105  S    
C187  H47   S    
C50   C98   A    
C313  H365  S    
C299  H330  S    
C319  H379  S    
C76   C124  A    
C331  C332  S    
C249  C250  S    
C351  H459  S    
C268  H248  S    
C357  C358  S    
C195  H66   S    
C36   C152  A    
C243  H187  S    
C175  C176  S    
C224  H139  S    
C52   C100  A    
C59   C107  A    
C328  H396  S    
C293  H314  S    
C236  H169  S    
C205  C206  S    
C308  H346  S    
C266  H242  S    
C66   O90   S    
C101  C321  S    
O57   C185  S    
C35   O59   S    
C172  H8    S    
C242  H184  S    
C349  H454  S    
C345  H445  S    
O39   Zn10  S    
C306  H342  S    
C360  H476  S    
C46   C94   A    
O25   Zn7   S    
C280  H276  S    
C192  H60   S    
C310  H351  S    
C72   C120  A    
C225  C226  S    
C232  H158  S    
C252  H208  S    
C71   O95   S    
C303  H340  S    
C355  H469  S    
C262  H235  S    
C201  H82   S    
O5    Zn2   S    
C234  H164  S    
C203  C204  S    
C354  H461  S    
C257  H221  S    
C68   C168  A    
C358  H471  S    
C146  C165  S    
C192  H58   S    
C284  H288  S    
C233  H161  S    
C217  H121  S    
C304  H338  S    
O86   C243  S    
C207  H96   S    
C359  H480  S    
C264  H240  S    
C286  H291  S    
C89   C297  S    
C344  H438  S    
C265  H244  S    
C309  H354  S    
C349  H455  S    
C174  H15   S    
C104  C136  A    
C247  C248  S    
C81   C125  A    
C314  H361  S    
C45   O69   S    
C42   O66   S    
C47   O71   S    
C21   C144  S    
C83   C127  A    
C229  C230  S    
C60   C108  A    
C331  H409  S    
C357  H474  S    
C14   C133  S    
C214  H115  S    
C182  H34   S    
C285  H294  S    
C39   C149  A    
C270  H253  S    
C327  H400  S    
C341  H435  S    
C172  H10   S    
C76   C271  S    
C73   C265  S    
C288  H298  S    
C318  H372  S    
C214  H113  S    
O24   Zn6   S    
O70   C211  S    
C336  H418  S    
C247  H197  S    
C229  H151  S    
C227  C228  S    
C335  C336  S    
C70   C118  A    
C103  C325  S    
O72   C215  S    
C85   C127  A    
C228  H149  S    
C113  C141  A    
C299  H329  S    
C25   C73   A    
C342  H433  S    
C107  C139  A    
C231  H156  S    
C170  H5    S    
C206  H94   S    
C300  H326  S    
C59   C163  A    
C105  C137  A    
C29   C77   A    
C217  C218  S    
C338  H421  S    
C71   C165  A    
C316  H368  S    
C1    O1    A    
C263  H236  S    
C296  H317  S    
C181  H31   S    
C285  H295  S    
O12   Zn3   S    
C193  H62   S    
C34   C82   A    
O87   C245  S    
C230  H155  S    
C237  C238  S    
O75   C221  S    
C100  C136  A    
O26   Zn7   S    
C288  H297  S    
C253  C254  S    
C282  H282  S    
C84   C128  A    
C346  H441  S    
C201  C202  S    
C185  H42   S    
C203  H87   S    
C226  H144  S    
C57   C105  A    
C242  H185  S    
C179  C180  S    
C285  C286  S    
C216  H120  S    
C177  C178  S    
C342  H432  S    
C200  H78   S    
C34   C150  A    
C312  H356  S    
C15   C134  S    
C332  H406  S    
C80   C279  S    
C276  H267  S    
C171  C172  S    
C25   O49   S    
O96   C263  S    
O32   Zn8   S    
C35   C151  A    
C244  H190  S    
O36   Zn9   S    
O62   C195  S    
C120  C359  S    
C283  C284  S    
C352  H457  S    
C350  H452  S    
C273  C274  S    
C300  H328  S    
C253  H212  S    
C339  H429  S    
C261  H232  S    
C222  H134  S    
C277  C278  S    
C310  H353  S    
C65   C165  A    
C293  H315  S    
C184  H40   S    
O56   C183  S    
C321  C322  S    
C267  H250  S    
C221  H131  S    
C60   O84   S    
C255  H217  S    
C196  H69   S    
C253  H211  S    
C358  H473  S    
C79   C277  S    
C352  H456  S    
C156  C163  S    
C53   C101  A    
C256  H219  S    
C181  C182  S    
C346  H442  S    
C304  H336  S    
C289  H305  S    
C341  H434  S    
C97   C133  A    
C198  H74   S    
C51   O75   S    
C31   O55   S    
C90   C299  S    
C287  H299  S    
C255  C256  S    
C286  H293  S    
O85   C241  S    
O2    Zn1   S    
C53   O77   S    
C203  H86   S    
C215  H116  S    
C48   C156  A    
C108  C335  S    
C293  C294  S    
C271  C272  S    
C218  H123  S    
C13   O25   A    
O82   C235  S    
C6    O10   A    
C10   O18   A    
C250  H204  S    
C314  H363  S    
C308  H348  S    
C234  H165  S    
C235  H166  S    
C322  H382  S    
O77   C225  S    
C43   C155  A    
C5    O13   A    
C340  H428  S    
C313  C314  S    
C260  H228  S    
C237  H172  S    
C52   O76   S    
O64   C199  S    
C85   C289  S    
C323  H389  S    
C46   C154  A    
C251  H207  S    
C211  H106  S    
C28   C148  A    
C306  H343  S    
C258  H224  S    
C296  H316  S    
C65   O89   S    
C335  H419  S    
C334  H411  S    
C20   O36   A    
C185  C186  S    
C278  H272  S    
C172  H9    S    
C336  H416  S    
C178  H24   S    
C35   C83   A    
O38   Zn10  S    
C272  H258  S    
C241  H182  S    
O19   Zn5   S    
C346  H443  S    
C347  H449  S    
O78   C227  S    
C14   O32   A    
C317  H375  S    
C305  H344  S    
C197  H71   S    
C322  H383  S    
C64   O88   S    
C353  H465  S    
O30   Zn8   S    
C69   C167  A    
C212  H108  S    
C275  H269  S    
C248  H199  S    
C37   O61   S    
C210  H104  S    
C207  C208  S    
C301  C302  S    
C235  C236  S    
C40   O64   S    
C252  H210  S    
C330  H403  S    
C105  C329  S    
C321  H385  S    
C99   C135  A    
C329  H404  S    
C18   O34   A    
C186  H44   S    
C94   C130  A    
C291  H309  S    
C211  H107  S    
C84   C287  S    
C340  H427  S    
C219  C220  S    
C56   C104  A    
C177  H21   S    
C2    O2    A    
C351  H460  S    
C313  H364  S    
C3    O7    A    
C74   C122  A    
C92   C132  A    
C348  H446  S    
O7    Zn2   S    
C75   C123  A    
C307  H349  S    
C274  H263  S    
C246  H194  S    
C303  C304  S    
C338  H423  S    
C11   C130  S    
C95   C309  S    
C263  H237  S    
C200  H80   S    
C12   O22   A    
C307  C308  S    
C208  H98   S    
C80   C124  A    
C332  H408  S    
C8    O14   A    
C189  H51   S    
C254  H214  S    
C66   C114  A    
C239  H176  S    
C42   C154  A    
C317  H374  S    
C227  H146  S    
C212  H109  S    
C54   C102  A    
O58   C187  S    
C254  H215  S    
C330  H401  S    
O8    Zn2   S    
C29   C147  A    
O66   C203  S    
C349  C350  S    
C326  H393  S    
C209  H101  S    
C32   C148  A    
C15   O27   A    
C199  C200  S    
C287  C288  S    
C355  C356  S    
C176  H20   S    
C175  H16   S    
C27   O51   S    
C169  H1    S    
C244  H189  S    
C249  H202  S    
C194  H65   S    
C110  C339  S    
C259  C260  S    
C97   C313  S    
C289  C290  S    
C62   C162  A    
C23   O43   A    
C236  H168  S    
C325  H395  S    
C17   O37   A    
C4    O6    A    
C270  H252  S    
C46   O70   S    
C259  H227  S    
C343  H439  S    
O73   C217  S    
C271  H260  S    
O61   C193  S    
C10   O24   A    
C44   O68   S    
C220  H130  S    
O28   Zn7   S    
C107  C333  S    
C102  C323  S    
C90   C130  A    
C295  H320  S    
C277  H275  S    
C88   C128  A    
C292  H306  S    
C58   C106  A    
C95   C129  A    
C217  H122  S    
C213  H111  S    
C319  H380  S    
C225  H142  S    
C288  H296  S    
O41   Zn11  S    
C290  H301  S    
C93   C131  A    
C94   C307  S    
C221  C222  S    
O4    Zn1   S    
C189  C190  S    
C312  H358  S    
O27   Zn7   S    
C325  C326  S    
C328  H397  S    
O14   Zn4   S    
C223  H136  S    
C12   C131  S    
C22   O48   A    
C186  H43   S    
C274  H262  S    
C334  H413  S    
C20   O38   A    
C54   O78   S    
C61   C109  A    
C209  C210  S    
C356  H466  S    
C24   O44   A    
C272  H256  S    
O59   C189  S    
C215  C216  S    
C187  C188  S    
C238  H173  S    
O49   C169  S    
C82   C283  S    
O60   C191  S    
C188  H48   S    
C11   O19   A    
C199  H77   S    
C37   C85   A    
C258  H225  S    
O63   C197  S    
C305  C306  S    
C9    O17   A    
C70   C166  A    
C117  C353  S    
C183  H36   S    
C229  H152  S    
C106  C138  A    
C145  C162  S    
C39   O63   S    
C106  C331  S    
C151  C168  S    
C12   O20   A    
C55   C103  A    
C271  H259  S    
C297  C298  S    
O54   C179  S    
C326  H391  S    
C169  C170  S    
C18   O40   A    
C240  H178  S    
C19   C138  S    
C280  H278  S    
C69   C117  A    
C67   C115  A    
C343  C344  S    
C21   O45   A    
C100  C319  S    
C232  H159  S    
C359  C360  S    
C345  H444  S    
C111  C341  S    
C279  C280  S    
C294  H311  S    
C192  H59   S    
C213  C214  S    
C310  H352  S    
C348  H448  S    
C42   C90   A    
C61   O85   S    
C23   C142  S    
C180  H29   S    
C355  H470  S    
C262  H234  S    
O46   Zn12  S    
C234  H163  S    
C281  H285  S    
C11   O23   A    
C3    C122  S    
C237  H171  S    
C96   C132  A    
C208  H100  S    
C2    O8    A    
C224  H140  S    
C358  H472  S    
C333  H414  S    
C340  H426  S    
C329  C330  S    
C284  H287  S    
O43   Zn11  S    
C325  H394  S    
C19   O39   A    
C304  H337  S    
C243  C244  S    
C283  H289  S    
C266  H241  S    
C24   O46   A    
C257  C258  S    
C273  H265  S    
C184  H39   S    
C339  C340  S    
C264  H239  S    
C286  H292  S    
C30   C146  A    
C307  H350  S    
C221  H132  S    
C344  H437  S    
C51   C99   A    
C277  H274  S    
C173  H12   S    
C260  H230  S    
C174  H14   S    
C268  H247  S    
C81   C281  S    
C66   C166  A    
C62   O86   S    
C353  C354  S    
C320  H378  S    
C242  H183  S    
C295  C296  S    
C354  H463  S    
C32   O56   S    
C238  H174  S    
C239  H177  S    
C311  H359  S    
C108  C140  A    
C298  H321  S    
C190  H55   S    
C177  H22   S    
C186  H45   S    
C9    C132  S    
C231  C232  S    
C324  H387  S    
C230  H153  S    
O3    Zn1   S    
C311  C312  S    
C232  H160  S    
C43   C91   A    
C202  H85   S    
C4    C123  S    
C176  H19   S    
C233  H162  S    
C102  C134  A    
O95   C261  S    
C191  H56   S    
O52   C175  S    
C336  H417  S    
C15   O31   A    
C8    C127  S    
C29   O53   S    
C62   C110  A    
O42   Zn11  S    
C188  H50   S    
C246  H193  S    
C244  H188  S    
C180  H28   S    
C7    O11   A    
O15   Zn4   S    
C77   C273  S    
C69   O93   S    
C212  H110  S    
C170  H4    S    
O23   Zn6   S    
C5    O9    A    
C206  H93   S    
C337  H425  S    
C98   C315  S    
C191  C192  S    
C50   O74   S    
C45   C155  A    
C72   O96   S    
C27   C147  A    
C323  C324  S    
C37   C151  A    
C269  H254  S    
C338  H422  S    
C279  H279  S    
C316  H367  S    
C56   O80   S    
C13   C136  S    
C181  H32   S    
O21   Zn6   S    
C214  H114  S    
C309  C310  S    
C189  H52   S    
C87   C125  A    
C356  H468  S    
C184  H38   S    
C351  C352  S    
C48   O72   S    
C114  C142  A    
C187  H46   S    
C238  H175  S    
C207  H97   S    
C314  H362  S    
C155  C160  S    
C61   C163  A    
C354  H462  S    
C149  C166  S    
C275  C276  S    
C118  C142  A    
C298  H323  S    
C292  H307  S    
C257  H222  S    
C297  H324  S    
C31   C79   A    
C249  H201  S    
C58   O82   S    
C220  H129  S    
C276  H266  S    
C98   C134  A    
C86   C291  S    
C228  H150  S    
C265  C266  S    
C109  C139  A    
C236  H170  S    
C104  C327  S    
C291  C292  S    
C103  C133  A    
C56   C160  A    
O67   C205  S    
C339  H430  S    
C327  C328  S    
C3    O3    A    
C254  H213  S    
O69   C209  S    
C178  H23   S    
C36   C84   A    
C294  H313  S    
C22   C141  S    
C51   C159  A    
C16   O28   A    
C218  H125  S    
C205  H92   S    
C38   C150  A    
C17   C140  S    
C245  H192  S    
C303  H339  S    
O83   C237  S    
C115  C143  A    
O92   C255  S    
C78   C122  A    
C178  H25   S    
C282  H281  S    
C152  C159  S    
C74   C267  S    
C30   C78   A    
C113  C345  S    
C315  C316  S    
C26   C74   A    
C220  H128  S    
C345  C346  S    
C317  C318  S    
C47   C95   A    
C243  H186  S    
C219  H126  S    
C25   C145  A    
C67   O91   S    
C204  H89   S    
C198  H73   S    
O50   C171  S    
C16   C135  S    
C33   C81   A    
C359  H479  S    
C173  C174  S    
C33   O57   S    
C77   C123  A    
C28   C76   A    
