data_mof_unit_64902.cif
_audit_creation_date              2012-12-10T19:34:11-0500
_audit_creation_method            fapswitch 2.2
_symmetry_space_group_name_H-M    P1
_symmetry_Int_Tables_number       1
_space_group_crystal_system       triclinic
_cell_length_a                    23.579648
_cell_length_b                    23.501598
_cell_length_c                    16.389812
_cell_angle_alpha                 89.994712
_cell_angle_beta                  92.710035
_cell_angle_gamma                 89.997519
_cell_volume                      9072.41061001

loop_
_atom_site_label
_atom_site_type_symbol
_atom_type_description
_atom_site_fract_x
_atom_site_fract_y
_atom_site_fract_z
_atom_type_partial_charge
C1    C     C_R   0.426350 0.078834 0.489158 0.853956
C2    C     C_R   0.463228 0.006660 0.152867 -0.261197
C3    C     C_R   0.036873 0.494042 0.847122 -0.259883
C4    C     C_R   0.963129 0.505966 0.152877 -0.259887
C5    C     C_R   0.483994 0.995884 0.883541 0.211706
C6    C     C_R   0.516006 0.004116 0.116459 0.211706
C7    C     C_R   0.984057 0.495758 0.883529 0.212727
C8    C     C_R   0.015944 0.504243 0.116472 0.212726
C9    C     C_R   0.434316 0.999810 0.833321 -0.287496
C10   C     C_R   0.565684 0.000191 0.166679 -0.287495
C11   C     C_R   0.934322 0.498949 0.833305 -0.287992
C12   C     C_R   0.573650 0.921166 0.510842 0.853957
C13   C     C_R   0.065679 0.501045 0.166696 -0.287991
C14   C     C_R   0.438178 0.001991 0.748767 0.013107
C15   C     C_R   0.561822 0.998009 0.251233 0.013105
C16   C     C_R   0.938149 0.501207 0.748751 0.011761
C17   C     C_R   0.061851 0.498786 0.251250 0.011763
C18   C     C_2   0.478867 0.992733 0.973008 -0.216068
C19   C     C_2   0.521133 0.007267 0.026992 -0.216068
C20   C     C_2   0.978973 0.492464 0.972997 -0.215808
C21   C     C_2   0.021030 0.507537 0.027003 -0.215809
C22   C     C_R   0.399109 0.865622 0.484932 -0.034065
C23   C     C_R   0.573652 0.078832 0.510837 0.854180
C24   C     C_R   0.600891 0.134378 0.515068 -0.034066
C25   C     C_R   0.600873 0.865610 0.515077 -0.033641
C26   C     C_R   0.399124 0.134388 0.484920 -0.033639
C27   C     C_R   0.872103 0.389072 0.480542 -0.036314
C28   C     C_R   0.127897 0.610929 0.519457 -0.036314
C29   C     C_R   0.127892 0.389060 0.519462 -0.035830
C30   C     C_R   0.872108 0.610941 0.480540 -0.035838
C31   C     C_R   0.404843 0.829409 0.552890 -0.200562
C32   C     C_R   0.595157 0.170590 0.447109 -0.200563
C33   C     C_R   0.595168 0.829428 0.447093 -0.201291
C34   C     C_R   0.426348 0.921168 0.489163 0.854178
C35   C     C_R   0.404831 0.170573 0.552902 -0.201294
C36   C     C_R   0.848908 0.366445 0.550603 -0.213052
C37   C     C_R   0.151093 0.633554 0.449396 -0.213050
C38   C     C_R   0.151128 0.366507 0.449385 -0.213614
C39   C     C_R   0.848860 0.633474 0.550620 -0.213607
C40   C     C_R   0.384041 0.774370 0.548243 -0.159318
C41   C     C_R   0.615959 0.225629 0.451756 -0.159318
C42   C     C_R   0.615956 0.774383 0.451726 -0.159160
C43   C     C_R   0.384042 0.225618 0.548265 -0.159151
C44   C     C_R   0.796441 0.339882 0.545099 -0.149597
C45   C     C_R   0.922890 0.575727 0.488561 0.860410
C46   C     C_R   0.203560 0.660117 0.454900 -0.149598
C47   C     C_R   0.203596 0.339944 0.454894 -0.149448
C48   C     C_R   0.796392 0.660038 0.545108 -0.149448
C49   C     C_R   0.355824 0.755350 0.476217 0.204941
C50   C     C_R   0.644177 0.244650 0.523783 0.204941
C51   C     C_R   0.644140 0.755327 0.523763 0.204862
C52   C     C_R   0.355854 0.244671 0.476228 0.204863
C53   C     C_R   0.766116 0.336128 0.469383 0.207117
C54   C     C_R   0.233884 0.663871 0.530616 0.207117
C55   C     C_R   0.233883 0.336115 0.530632 0.207027
C56   C     C_R   0.077109 0.424273 0.511439 0.860408
C57   C     C_R   0.766118 0.663889 0.469363 0.207029
C58   C     C_R   0.352760 0.790235 0.406858 -0.170220
C59   C     C_R   0.647239 0.209766 0.593142 -0.170221
C60   C     C_R   0.647168 0.790177 0.593150 -0.169906
C61   C     C_R   0.352824 0.209817 0.406844 -0.169913
C62   C     C_R   0.790198 0.356850 0.398901 -0.181455
C63   C     C_R   0.209801 0.643151 0.601098 -0.181455
C64   C     C_R   0.209760 0.356759 0.601127 -0.181191
C65   C     C_R   0.790254 0.643266 0.398866 -0.181192
C66   C     C_R   0.374478 0.845270 0.411088 -0.202411
C67   C     C_R   0.077111 0.575724 0.511435 0.860402
C68   C     C_R   0.625521 0.154730 0.588913 -0.202411
C69   C     C_R   0.625456 0.845219 0.588937 -0.202559
C70   C     C_R   0.374538 0.154776 0.411060 -0.202555
C71   C     C_R   0.842901 0.383364 0.404348 -0.197366
C72   C     C_R   0.157098 0.616637 0.595652 -0.197369
C73   C     C_R   0.157054 0.383272 0.595676 -0.197317
C74   C     C_R   0.842960 0.616751 0.404319 -0.197325
C75   C     C_2   0.320452 0.704369 0.476384 -0.244515
C76   C     C_2   0.679548 0.295631 0.523615 -0.244515
C77   C     C_2   0.679521 0.704350 0.523577 -0.244544
C78   C     C_R   0.922889 0.424276 0.488565 0.860403
C79   C     C_2   0.320474 0.295648 0.476410 -0.244540
C80   C     C_2   0.712820 0.304439 0.460754 -0.231850
C81   C     C_2   0.287180 0.695561 0.539245 -0.231850
C82   C     C_2   0.287179 0.304420 0.539257 -0.231872
C83   C     C_2   0.712823 0.695586 0.460736 -0.231869
C84   C     C_R   0.538622 0.995724 0.762442 0.001506
C85   C     C_R   0.461378 0.004275 0.237558 0.001508
C86   C     C_R   0.038687 0.496472 0.762433 0.002660
C87   C     C_R   0.961313 0.503535 0.237567 0.002653
C88   C     C_R   0.536772 0.993339 0.847133 -0.261198
H1    H     H_    0.426110 0.843287 0.609464 0.160320
H2    H     H_    0.371266 0.872116 0.357337 0.146783
H3    H     H_    0.371356 0.127953 0.357289 0.145433
H4    H     H_    0.628637 0.872039 0.642711 0.145434
H5    H     H_    0.140094 0.599237 0.650604 0.151748
H6    H     H_    0.859905 0.400765 0.349396 0.151751
H7    H     H_    0.860008 0.599433 0.349349 0.150210
H8    H     H_    0.140015 0.400607 0.650643 0.150203
H9    H     H_    0.294762 0.718454 0.596319 0.149946
H10   H     H_    0.705239 0.281546 0.403680 0.149945
H11   H     H_    0.705265 0.718522 0.403687 0.149928
H12   H     H_    0.573892 0.156712 0.390534 0.160321
H13   H     H_    0.294744 0.281493 0.596313 0.149927
H14   H     H_    0.687122 0.318113 0.580948 0.146294
H15   H     H_    0.312878 0.681887 0.419051 0.146294
H16   H     H_    0.312920 0.318161 0.419092 0.146300
H17   H     H_    0.687066 0.681828 0.580891 0.146299
H18   H     H_    0.330934 0.775975 0.350887 0.122670
H19   H     H_    0.669065 0.224026 0.649113 0.122669
H20   H     H_    0.668965 0.775887 0.649132 0.122655
H21   H     H_    0.331025 0.224104 0.350863 0.122652
H22   H     H_    0.768014 0.352801 0.339762 0.125246
H23   H     H_    0.573938 0.843336 0.390502 0.159827
H24   H     H_    0.231985 0.647201 0.660237 0.125246
H25   H     H_    0.231914 0.352648 0.660281 0.125204
H26   H     H_    0.768111 0.647394 0.339706 0.125202
H27   H     H_    0.611846 0.252600 0.398214 0.129100
H28   H     H_    0.388155 0.747399 0.601784 0.129101
H29   H     H_    0.388135 0.252565 0.601824 0.129098
H30   H     H_    0.611865 0.747438 0.398164 0.129103
H31   H     H_    0.219371 0.678625 0.400005 0.123368
H32   H     H_    0.780630 0.321372 0.599994 0.123368
H33   H     H_    0.780544 0.678471 0.600026 0.123371
H34   H     H_    0.426064 0.156668 0.609492 0.159825
H35   H     H_    0.219435 0.321494 0.399981 0.123376
H36   H     H_    0.599887 0.995202 0.290535 0.127518
H37   H     H_    0.400113 0.004799 0.709465 0.127518
H38   H     H_    0.099954 0.496552 0.290571 0.124727
H39   H     H_    0.900046 0.503435 0.709430 0.124722
H40   H     H_    0.392952 0.001291 0.859330 0.131206
H41   H     H_    0.607048 0.998710 0.140670 0.131205
H42   H     H_    0.892939 0.499786 0.859310 0.130006
H43   H     H_    0.107062 0.500202 0.140691 0.130007
H44   H     H_    0.423827 0.011824 0.117202 0.127219
H45   H     H_    0.870956 0.369856 0.609911 0.155747
H46   H     H_    0.576172 0.988174 0.882798 0.127220
H47   H     H_    0.923653 0.510546 0.117215 0.126468
H48   H     H_    0.076349 0.489467 0.882784 0.126466
H49   H     H_    0.578939 0.993375 0.733737 0.122317
H50   H     H_    0.421061 0.006624 0.266264 0.122316
H51   H     H_    0.079035 0.494738 0.733712 0.117472
H52   H     H_    0.920965 0.505275 0.266287 0.117476
H53   H     H_    0.561553 0.021549 0.005567 0.144524
H54   H     H_    0.438447 0.978451 0.994433 0.144524
H55   H     H_    0.061247 0.522406 0.005599 0.144265
H56   H     H_    0.129045 0.630143 0.390089 0.155748
H57   H     H_    0.938755 0.477595 0.994402 0.144266
H58   H     H_    0.129113 0.369980 0.390059 0.155006
H59   H     H_    0.870863 0.629985 0.609951 0.155012
H60   H     H_    0.628732 0.127884 0.642664 0.146784
N1    N     N_R   0.489810 0.000000 0.715580 -0.092288
N2    N     N_R   0.510190 0.000000 0.284420 -0.092288
N3    N     N_R   0.989810 0.500000 0.715580 -0.090368
N4    N     N_R   0.010190 0.500000 0.284420 -0.090367
O1    O     O_R   0.445750 0.057890 0.422600 -0.618911
O2    O     O_R   0.560780 0.942100 0.438960 -0.618799
O3    O     O_R   0.560780 0.057900 0.438960 -0.616870
O4    O     O_R   0.439220 0.942100 0.561040 -0.616870
O5    O     O_R   0.939220 0.557900 0.561040 -0.616816
O6    O     O_R   0.060780 0.442100 0.438960 -0.616815
O7    O     O_R   0.060780 0.557900 0.438960 -0.615454
O8    O     O_R   0.939220 0.442100 0.561040 -0.615455
O9    O     O_R   0.554250 0.942110 0.577400 -0.618912
O10   O     O_R   0.554250 0.057890 0.577400 -0.616816
O11   O     O_R   0.445750 0.942110 0.422600 -0.616816
O12   O     O_R   0.945750 0.557890 0.422600 -0.620474
O13   O     O_R   0.054250 0.442110 0.577400 -0.620471
O14   O     O_R   0.054250 0.557890 0.577400 -0.619025
O15   O     O_R   0.945750 0.442110 0.422600 -0.619023
O16   O     O_R   0.439220 0.057900 0.561040 -0.618798
Zn1   Zn    Zn3+2 0.504350 1.000000 0.407560 0.936058
Zn2   Zn    Zn3+2 0.495650 0.000000 0.592440 0.936059
Zn3   Zn    Zn3+2 0.004350 0.500000 0.407560 0.938965
Zn4   Zn    Zn3+2 0.995650 0.500000 0.592440 0.938964

loop_
_geom_bond_atom_site_label_1
_geom_bond_atom_site_label_2
_ccdc_geom_bond_type
C61   C70   A    
O14   Zn4   S    
C8    C13   A    
C37   H56   S    
C23   O3    A    
C65   H26   S    
C30   C45   S    
C70   H3    S    
C87   H52   S    
C4    C8    A    
C27   C78   S    
C61   H21   S    
C36   H45   S    
C51   C77   S    
C48   C57   A    
C66   H2    S    
C71   H6    S    
C2    C6    A    
C7    C11   A    
C6    C19   S    
C78   O15   A    
C14   H37   S    
O7    Zn3   S    
C50   C59   A    
C28   C37   A    
C45   O12   A    
C43   C52   A    
C18   C19   D    
C3    C7    A    
C52   C61   A    
O5    Zn4   S    
C30   C74   A    
C17   H38   S    
N2    Zn1   S    
C29   C73   A    
C54   C63   A    
C44   H32   S    
C40   C49   A    
C31   C40   A    
C2    C85   A    
C3    H48   S    
C11   C16   A    
C63   H24   S    
C85   N2    A    
C22   C66   A    
C56   O6    A    
C12   O9    A    
C5    C88   A    
C44   C53   A    
C58   C66   A    
C38   H58   S    
C31   H1    S    
O10   Zn2   S    
C56   O13   A    
C30   C39   A    
C2    H44   S    
C32   C41   A    
C49   C75   S    
C33   H23   S    
C69   H4    S    
C35   C43   A    
C60   H20   S    
C42   C51   A    
C23   O10   A    
C84   N1    A    
O13   Zn4   S    
O16   Zn2   S    
C19   H53   S    
C83   H11   S    
C3    C86   A    
C75   H15   S    
O8    Zn4   S    
C28   C72   A    
C41   H27   S    
C76   H14   S    
C22   C34   S    
C9    H40   S    
C22   C31   A    
N1    Zn2   S    
C84   C88   A    
C18   H54   S    
C28   C67   S    
C45   O5    A    
C21   H55   S    
C34   O11   A    
C15   H36   S    
C57   C65   A    
C48   H33   S    
C4    C87   A    
N4    Zn3   S    
C24   C68   A    
C53   C80   S    
C42   H30   S    
O15   Zn3   S    
C5    C18   S    
C1    O16   A    
C59   H19   S    
N3    Zn4   S    
C32   H12   S    
O2    Zn1   S    
C58   H18   S    
C29   C38   A    
C9    C14   A    
C24   C32   A    
C5    C9    A    
C50   C76   S    
C59   C68   A    
C53   C62   A    
O3    Zn1   S    
C47   H35   S    
C62   H22   S    
C23   C24   S    
C55   C64   A    
C46   C54   A    
C57   C83   S    
C8    C21   S    
C13   H43   S    
C63   C72   A    
C55   C82   S    
C1    O1    A    
C38   C47   A    
C86   H51   S    
C43   H29   S    
C4    H47   S    
O9    Zn2   S    
C67   O14   A    
C78   O8    A    
C64   C73   A    
C84   H49   S    
C87   N4    A    
C1    C26   S    
C26   C70   A    
C79   H16   S    
C36   C44   A    
C17   N4    A    
C25   C69   A    
C72   H5    S    
C39   H59   S    
C52   C79   S    
C11   H42   S    
C41   C50   A    
C27   C71   A    
C47   C55   A    
C33   C42   A    
C64   H25   S    
C65   C74   A    
C80   H10   S    
O6    Zn3   S    
C74   H7    S    
C35   H34   S    
C75   C81   D    
C76   C80   D    
C12   O2    A    
C68   H60   S    
C6    C10   A    
C79   C82   D    
C29   C56   S    
C34   O4    A    
C27   C36   A    
C13   C17   A    
C12   C25   S    
C10   C15   A    
C77   H17   S    
C10   H41   S    
C88   H46   S    
C86   N3    A    
C40   H28   S    
C81   H9    S    
C60   C69   A    
C14   N1    A    
O4    Zn2   S    
C82   H13   S    
C62   C71   A    
C46   H31   S    
C16   N3    A    
C15   N2    A    
O11   Zn1   S    
C16   H39   S    
C49   C58   A    
C26   C35   A    
C20   C21   D    
C7    C20   S    
O1    Zn1   S    
C77   C83   D    
C20   H57   S    
O12   Zn3   S    
C67   O7    A    
C51   C60   A    
C73   H8    S    
C37   C46   A    
C85   H50   S    
C54   C81   S    
C25   C33   A    
C39   C48   A    
