data_mof_unit_36281.cif
_audit_creation_date              2012-12-10T17:58:20-0500
_audit_creation_method            fapswitch 2.2
_symmetry_space_group_name_H-M    P1
_symmetry_Int_Tables_number       1
_space_group_crystal_system       triclinic
_cell_length_a                    9.679956
_cell_length_b                    10.805038
_cell_length_c                    15.921421
_cell_angle_alpha                 89.555481
_cell_angle_beta                  72.010434
_cell_angle_gamma                 89.79934
_cell_volume                      1583.79934416

loop_
_atom_site_label
_atom_site_type_symbol
_atom_type_description
_atom_site_fract_x
_atom_site_fract_y
_atom_site_fract_z
_atom_type_partial_charge
C1    C     C_R   0.000112 0.262607 0.499980 0.771278
C2    C     C_R   0.999902 0.737392 0.499978 0.762497
C3    C     C_R   0.587439 0.508706 0.089164 0.511609
C4    C     C_R   0.412269 0.508071 0.910751 0.514557
C5    C     C_R   0.731154 0.486060 0.039701 0.473259
C6    C     C_R   0.268700 0.485404 0.960498 0.482133
C7    C     C_R   0.868064 0.064240 0.524619 -0.159827
C8    C     C_R   0.131950 0.935761 0.475210 -0.167628
C9    C     C_R   0.867971 0.936141 0.524819 -0.206256
C10   C     C_R   0.132038 0.063860 0.474977 -0.201182
C11   C     C_R   0.999866 0.871494 0.499967 -0.011752
C12   C     C_R   0.000150 0.128507 0.499903 -0.011983
C13   C     C_R   0.544626 0.429568 0.559037 0.527160
C14   C     C_R   0.455374 0.570461 0.440969 0.528633
C15   C     C_R   0.396328 0.427355 0.558262 0.384613
C16   C     C_R   0.603751 0.572534 0.441642 0.390006
C17   C     C_R   0.915834 0.498304 0.670538 0.830834
C18   C     C_R   0.084147 0.498668 0.329482 0.836554
C19   C     C_R   0.864654 0.486680 0.765969 -0.203989
C20   C     C_R   0.135196 0.487202 0.234187 -0.206936
C21   C     C_R   0.893848 0.406157 0.900247 0.788186
C22   C     C_R   0.106056 0.406311 0.100877 0.792384
C23   C     C_R   0.944320 0.417762 0.809116 -0.258599
C24   C     C_R   0.055575 0.418254 0.191851 -0.265286
C25   C     C_R   0.726274 0.529867 0.813111 -0.080668
C26   C     C_R   0.273372 0.530447 0.186534 -0.088909
C27   C     C_R   0.670016 0.508417 0.904442 -0.040975
C28   C     C_R   0.329705 0.508640 0.095467 -0.048637
C29   C     C_R   0.766413 0.466975 0.948798 -0.224127
C30   C     C_R   0.233446 0.466845 0.051622 -0.224710
C31   C     C_R   0.520961 0.517738 0.952719 -0.160507
C32   C     C_R   0.478732 0.517960 0.047069 -0.156398
Cu1   Cu    Cu3+1 0.140660 0.500020 0.500000 1.047804
Cu2   Cu    Cu3+1 0.859340 0.499980 0.500000 1.048852
H1    H     H_    0.333395 0.583289 0.220852 0.252530
H2    H     H_    0.666043 0.582465 0.778170 0.219185
H3    H     H_    0.956125 0.371982 0.229089 0.201142
H4    H     H_    0.043748 0.371253 0.772449 0.226616
H5    H     H_    0.765012 0.112757 0.544670 0.175152
H6    H     H_    0.235002 0.887243 0.455151 0.173986
H7    H     H_    0.764988 0.887908 0.545432 0.146037
H8    H     H_    0.235011 0.112090 0.454288 0.150429
N1    N     N_R   0.352080 0.500030 0.499980 -0.298108
N2    N     N_R   0.647920 0.499970 0.500020 -0.302461
O1    O     O_R   0.118740 0.319660 0.500000 -0.570717
O2    O     O_R   0.881260 0.680340 0.500000 -0.573053
O3    O     O_R   0.881170 0.319630 0.500010 -0.555773
O4    O     O_R   0.118830 0.680370 0.499990 -0.557557
O5    O     O_R   0.055570 0.500030 0.629830 -0.542383
O6    O     O_R   0.944430 0.499970 0.370170 -0.536746
O7    O     O_R   0.818000 0.500000 0.629840 -0.520205
O8    O     O_R   0.182000 0.500000 0.370160 -0.521014
O9    O     O_3   0.839190 0.491232 0.079258 -0.487660
C33   C     C_3   0.855732 0.615867 0.101508 -0.231387
H9    H     H_    0.768506 0.642862 0.162355 0.226853
H10   H     H_    0.858659 0.681491 0.046586 0.108544
H11   H     H_    0.960264 0.626232 0.115446 0.162215
O10   O     O_3   0.160691 0.490768 0.920904 -0.480680
C34   C     C_3   0.142053 0.615890 0.899319 -0.252475
H12   H     H_    0.230150 0.645580 0.839447 0.203053
H13   H     H_    0.135911 0.679689 0.955064 0.115132
H14   H     H_    0.038421 0.625800 0.884100 0.160933
F1    F     F_    0.958629 0.322603 0.938761 -0.544135
F2    F     F_    0.041344 0.322684 0.063353 -0.545728
F3    F     F_    0.556403 0.503286 0.178234 -0.643582
F4    F     F_    0.443148 0.502614 0.821746 -0.639418
F5    F     F_    0.583735 0.362216 0.620213 -0.609415
F6    F     F_    0.416202 0.637914 0.379870 -0.635377
O11   O     O_3   0.293092 0.357434 0.619657 -0.512617
C35   C     C_3   0.328083 0.230302 0.608968 -0.176167
H15   H     H_    0.225801 0.176422 0.632479 0.164344
H16   H     H_    0.396387 0.202623 0.650561 0.214750
H17   H     H_    0.382347 0.203965 0.538876 0.101029
O12   O     O_3   0.707170 0.642044 0.380007 -0.511858
C36   C     C_3   0.672240 0.769250 0.390020 -0.208085
H18   H     H_    0.774605 0.823041 0.366730 0.168750
H19   H     H_    0.617265 0.796187 0.459898 0.108779
H20   H     H_    0.604705 0.796476 0.347858 0.205150

loop_
_geom_bond_atom_site_label_1
_geom_bond_atom_site_label_2
_ccdc_geom_bond_type
C10   H8    S    
Cu1   O1    S    
C6    O10   S    
C17   O7    A    
C18   O8    A    
O9    C33   S    
C2    O2    A    
Cu1   O8    S    
Cu2   O7    S    
C16   O12   S    
C5    O9    S    
O11   C35   S    
C27   C29   A    
Cu1   O5    S    
C20   C24   A    
C35   H15   S    
Cu2   O2    S    
C16   N2    A    
C18   C20   S    
C34   H12   S    
C3    F3    S    
C1    C12   S    
C2    C11   S    
C24   H3    S    
C5    C29   A    
C7    C12   A    
C15   O11   S    
C33   H10   S    
Cu2   O6    S    
C34   H13   S    
O12   C36   S    
C27   C31   A    
Cu1   N1    S    
C28   C32   A    
Cu2   N2    S    
C4    C6    A    
C17   O5    A    
C1    O3    A    
C2    O4    A    
O10   C34   S    
C21   C29   A    
C19   C23   A    
C36   H18   S    
C36   H19   S    
C31   C32   A    
C35   H17   S    
Cu1   Cu2   S    
C9    C11   A    
C10   C12   A    
C6    C30   A    
C13   C15   A    
C14   C16   A    
C18   O6    A    
C13   F5    S    
C7    C9    A    
C33   H9    S    
C34   H14   S    
C14   F6    S    
C22   C30   A    
C26   C28   A    
C3    C5    A    
C25   C27   A    
C23   H4    S    
C9    H7    S    
C21   C23   A    
C15   N1    A    
C4    F4    S    
C1    O1    A    
C20   C26   A    
C8    C11   A    
C28   C30   A    
C17   C19   S    
C22   C24   A    
C3    C32   A    
C19   C25   A    
C36   H20   S    
C21   F1    S    
C4    C31   A    
C25   H2    S    
C22   F2    S    
C26   H1    S    
C8    C10   A    
Cu1   O4    S    
C7    H5    S    
C35   H16   S    
Cu2   O3    S    
C8    H6    S    
C13   N2    A    
C14   N1    A    
C33   H11   S    
