data_mof_unit_49993.cif
_audit_creation_date              2012-12-10T19:44:42-0500
_audit_creation_method            fapswitch 2.2
_symmetry_space_group_name_H-M    P1
_symmetry_Int_Tables_number       1
_space_group_crystal_system       triclinic
_cell_length_a                    8.588589
_cell_length_b                    14.931981
_cell_length_c                    14.169389
_cell_angle_alpha                 90.619899
_cell_angle_beta                  98.635373
_cell_angle_gamma                 89.955353
_cell_volume                      1796.44307314

loop_
_atom_site_label
_atom_site_type_symbol
_atom_type_description
_atom_site_fract_x
_atom_site_fract_y
_atom_site_fract_z
_atom_type_partial_charge
C1    C     C_R   0.502382 0.327612 0.499569 0.940238
C2    C     C_R   0.365178 0.475792 0.882503 -0.260930
C3    C     C_R   0.500640 0.499713 0.053521 0.134728
C4    C     C_R   0.500594 0.499729 0.946827 0.144465
C5    C     C_R   0.200990 0.499984 0.475067 0.950956
C6    C     C_R   0.798985 0.500273 0.524935 1.029387
C7    C     C_2   0.035926 0.499924 0.461589 -0.322461
C8    C     C_2   0.964002 0.500665 0.538403 -0.322716
C9    C     C_R   0.370906 0.099222 0.548351 -0.121005
C10   C     C_R   0.385593 0.901134 0.419061 -0.141208
C11   C     C_R   0.389635 0.191047 0.551259 -0.221198
C12   C     C_R   0.502345 0.672600 0.500854 0.928333
C13   C     C_R   0.403997 0.809347 0.421674 -0.248982
C14   C     C_R   0.493183 0.231458 0.496943 -0.156532
C15   C     C_R   0.492878 0.769115 0.501230 -0.171159
C16   C     C_R   0.579442 0.179544 0.438771 0.366211
C17   C     C_R   0.564630 0.821811 0.579497 0.458805
C18   C     C_R   0.556037 0.087572 0.434756 -0.239780
C19   C     C_R   0.540838 0.913741 0.576735 -0.221211
C20   C     C_R   0.453805 0.048203 0.489930 0.056326
C21   C     C_R   0.453523 0.952587 0.496734 0.044247
C22   C     C_R   0.408254 0.438497 0.096252 -0.266118
C23   C     C_R   0.635868 0.523609 0.907461 -0.284010
C24   C     C_R   0.409329 0.439968 0.195612 0.090431
C25   C     C_R   0.633004 0.523337 0.807924 0.065519
C26   C     C_R   0.590992 0.559864 0.213515 0.035399
C27   C     C_R   0.367589 0.476050 0.783495 0.042846
C28   C     C_R   0.592810 0.561013 0.114437 -0.262098
H1    H     H_    0.974024 0.499105 0.388709 0.188108
H2    H     H_    0.744357 0.541253 0.953025 0.142060
H3    H     H_    0.338114 0.392521 0.227462 0.132649
H4    H     H_    0.737840 0.542053 0.779102 0.154106
H5    H     H_    0.662257 0.607289 0.259404 0.127685
H6    H     H_    0.262702 0.456980 0.735509 0.123773
H7    H     H_    0.664306 0.610607 0.085921 0.143151
H8    H     H_    0.256863 0.458064 0.908086 0.136705
H9    H     H_    0.565248 0.230895 0.243389 0.339119
H10   H     H_    0.653961 0.722182 0.813783 0.372071
H11   H     H_    0.025788 0.501555 0.611268 0.167069
H12   H     H_    0.294125 0.067765 0.592340 0.166261
H13   H     H_    0.320431 0.932197 0.356468 0.162953
H14   H     H_    0.322895 0.230696 0.595686 0.174762
H15   H     H_    0.348231 0.769655 0.361489 0.178485
H16   H     H_    0.622518 0.045661 0.392270 0.188318
H17   H     H_    0.595759 0.956116 0.634910 0.191388
H18   H     H_    0.337080 0.388740 0.053647 0.141062
N1    N     N_R   0.500000 0.499980 0.252470 -0.090420
N2    N     N_R   0.500000 0.500020 0.747530 -0.088204
O1    O     O_R   0.500010 0.369070 0.579480 -0.637807
O2    O     O_2   0.831533 0.153101 0.348510 -0.294513
O3    O     O_3   0.637335 0.276457 0.277293 -0.517595
O4    O     O_2   0.796481 0.706923 0.646001 -0.323401
O5    O     O_2   0.791252 0.850836 0.729926 -0.302094
O6    O     O_3   0.580296 0.732281 0.754058 -0.536874
O7    O     O_R   0.499990 0.630930 0.420520 -0.653191
O8    O     O_R   0.500010 0.369060 0.420520 -0.565499
O9    O     O_R   0.499990 0.630940 0.579480 -0.537042
O10   O     O_R   0.271750 0.500000 0.560890 -0.633270
O11   O     O_R   0.728250 0.500000 0.439110 -0.601121
O12   O     O_R   0.271750 0.499990 0.401930 -0.636690
O13   O     O_R   0.728250 0.500010 0.598070 -0.628014
O14   O     O_2   0.822180 0.292824 0.438955 -0.292847
S1    S     S_3+6 0.724801 0.225384 0.376443 0.034019
S2    S     S_3+6 0.691082 0.777570 0.678639 0.021598
Zn1   Zn    Zn3+2 0.500000 0.500010 0.606140 1.006096
Zn2   Zn    Zn3+2 0.500000 0.499990 0.393860 0.998662

loop_
_geom_bond_atom_site_label_1
_geom_bond_atom_site_label_2
_ccdc_geom_bond_type
C27   N2    A    
C2    C4    A    
C19   H17   S    
N1    Zn2   S    
C2    C27   A    
C7    H1    S    
C8    H11   S    
C18   H16   S    
N2    Zn1   S    
C1    C14   S    
C5    C7    S    
C26   H5    S    
C26   C28   A    
H10   O6    S    
C12   C15   S    
C25   H4    S    
C23   C25   A    
C24   H3    S    
O12   Zn2   S    
C7    C8    D    
C27   H6    S    
C10   H13   S    
O2    S1    D    
C9    C11   A    
C25   N2    A    
O14   S1    D    
O1    Zn1   S    
C5    O10   A    
O8    Zn2   S    
C12   O9    A    
C26   N1    A    
C6    O13   A    
C3    C28   A    
C16   S1    S    
C1    O8    A    
C18   C20   A    
C13   C15   A    
C10   C21   A    
H9    O3    S    
O5    S2    D    
C22   C24   A    
C12   O7    A    
C3    C4    S    
C22   H18   S    
C23   H2    S    
O13   Zn1   S    
O10   Zn1   S    
C13   H15   S    
O7    Zn2   S    
O3    S1    S    
C20   C21   S    
O6    S2    S    
C11   H14   S    
C16   C18   A    
O4    S2    D    
C2    H8    S    
C11   C14   A    
C15   C17   A    
C4    C23   A    
C3    C22   A    
C6    C8    S    
C17   S2    S    
C9    C20   A    
C5    O12   A    
C17   C19   A    
C14   C16   A    
C24   N1    A    
C1    O1    A    
C6    O11   A    
C9    H12   S    
C28   H7    S    
O9    Zn1   S    
O11   Zn2   S    
C19   C21   A    
C10   C13   A    
