data_mof_unit_15305.cif
_audit_creation_date              2013-03-05T15:47:26-0500
_audit_creation_method            fapswitch 2.2
_symmetry_space_group_name_H-M    P1
_symmetry_Int_Tables_number       1
_space_group_crystal_system       triclinic
_cell_length_a                    17.259153
_cell_length_b                    19.503069
_cell_length_c                    11.918753
_cell_angle_alpha                 90.00288
_cell_angle_beta                  71.92199
_cell_angle_gamma                 89.998272
_cell_volume                      3813.8798587

loop_
_atom_site_label
_atom_site_type_symbol
_atom_site_description
_atom_site_fract_x
_atom_site_fract_y
_atom_site_fract_z
_atom_type_partial_charge
O1    O     O_R   0.430030 0.075530 0.417420 -0.526806
O2    O     O_R   0.569970 0.924470 0.582580 -0.512598
O3    O     O_R   0.569970 0.075530 0.582580 -0.526741
O4    O     O_R   0.430030 0.924470 0.417420 -0.512679
O5    O     O_R   0.930030 0.575530 0.417420 -0.526978
O6    O     O_R   0.069970 0.424470 0.582580 -0.512674
O7    O     O_R   0.069970 0.575530 0.582580 -0.526841
O8    O     O_R   0.930030 0.424470 0.417420 -0.512599
O9    O     O_R   0.416860 0.075510 0.614610 -0.606246
O10   O     O_R   0.583140 0.924490 0.385390 -0.601848
O11   O     O_R   0.583140 0.075510 0.385390 -0.606086
O12   O     O_R   0.416860 0.924490 0.614610 -0.601613
O13   O     O_R   0.916860 0.575510 0.614610 -0.606153
O14   O     O_R   0.083140 0.424490 0.385390 -0.601361
O15   O     O_R   0.083140 0.575510 0.385390 -0.606563
O16   O     O_R   0.916860 0.424490 0.614610 -0.601561
C1    C     C_R   0.402067 0.102642 0.523157 0.819192
C2    C     C_R   0.598925 0.898004 0.476176 0.831732
C3    C     C_R   0.597961 0.102624 0.476833 0.819259
C4    C     C_R   0.401027 0.898037 0.523837 0.831812
C5    C     C_R   0.902059 0.602638 0.523161 0.818623
C6    C     C_R   0.099011 0.398063 0.476133 0.832397
C7    C     C_R   0.097886 0.602671 0.476869 0.818640
C8    C     C_R   0.901032 0.398034 0.523841 0.832333
C9    C     C_R   0.405432 0.001936 0.867863 0.078629
C10   C     C_R   0.594574 0.001813 0.132133 0.078561
C11   C     C_R   0.905431 0.501914 0.867861 0.078569
C12   C     C_R   0.094565 0.502010 0.132148 0.078527
Cu1   Cu    Cu3+1 0.507800 0.000000 0.383250 0.997167
Cu2   Cu    Cu3+1 0.492200 0.000000 0.616750 0.997257
Cu3   Cu    Cu3+1 0.007800 0.500000 0.383250 0.997164
Cu4   Cu    Cu3+1 0.992200 0.500000 0.616750 0.997203
C13   C     C_R   0.389496 0.002128 0.990758 0.063191
C14   C     C_R   0.610512 0.001938 0.009235 0.063131
C15   C     C_R   0.889493 0.502094 0.990756 0.063284
C16   C     C_R   0.110508 0.502271 0.009253 0.063318
H1    H     H_    0.642199 0.002701 0.172480 0.134026
H2    H     H_    0.357814 0.002893 0.827511 0.134025
H3    H     H_    0.142170 0.502978 0.172516 0.134068
H4    H     H_    0.857814 0.502837 0.827507 0.134051
C17   C     C_R   0.549254 0.999070 0.831210 0.336554
C18   C     C_R   0.450745 0.999119 0.168788 0.336580
C19   C     C_R   0.049257 0.499115 0.831220 0.336519
C20   C     C_R   0.950747 0.499084 0.168780 0.336577
C21   C     C_R   0.652456 0.163053 0.460566 -0.179064
C22   C     C_R   0.344762 0.838719 0.542284 -0.194213
C23   C     C_R   0.347642 0.163119 0.539380 -0.178955
C24   C     C_R   0.655061 0.838590 0.457774 -0.194237
C25   C     C_R   0.152204 0.663220 0.460688 -0.179244
C26   C     C_R   0.844827 0.338673 0.542283 -0.193939
C27   C     C_R   0.847590 0.663087 0.539415 -0.179389
C28   C     C_R   0.155309 0.338764 0.457627 -0.194032
C29   C     C_R   0.220765 0.781107 0.656601 -0.137350
C30   C     C_R   0.775824 0.221115 0.347290 -0.141906
C31   C     C_R   0.778924 0.780795 0.343421 -0.137509
C32   C     C_R   0.224251 0.221167 0.652588 -0.142069
C33   C     C_R   0.720841 0.281004 0.656512 -0.137538
C34   C     C_R   0.275400 0.721447 0.347278 -0.142055
C35   C     C_R   0.279417 0.281222 0.343465 -0.137391
C36   C     C_R   0.724290 0.721222 0.652792 -0.141902
C37   C     C_R   0.285289 0.825293 0.653476 0.084174
C38   C     C_R   0.709050 0.180090 0.349386 0.076405
C39   C     C_R   0.714407 0.824990 0.346537 0.084166
C40   C     C_R   0.291063 0.180202 0.650534 0.076292
C41   C     C_R   0.785310 0.325244 0.653444 0.084381
C42   C     C_R   0.208584 0.680464 0.349455 0.076417
C43   C     C_R   0.214964 0.325487 0.346528 0.084425
C44   C     C_R   0.791085 0.680207 0.650633 0.076599
C45   C     C_R   0.345982 0.798501 0.443152 0.282470
C46   C     C_R   0.652045 0.201465 0.561191 0.299969
C47   C     C_R   0.653826 0.798412 0.556955 0.282558
C48   C     C_R   0.348094 0.201535 0.438743 0.299941
C49   C     C_R   0.846182 0.298381 0.443175 0.282535
C50   C     C_R   0.151893 0.701530 0.561393 0.299761
C51   C     C_R   0.153892 0.298393 0.556654 0.282551
C52   C     C_R   0.847898 0.701413 0.438749 0.299826
C53   C     C_R   0.280549 0.754381 0.448879 -0.046487
C54   C     C_R   0.717334 0.245906 0.555911 -0.048954
C55   C     C_R   0.719202 0.754219 0.551216 -0.046531
C56   C     C_R   0.282831 0.246016 0.444010 -0.048962
C57   C     C_R   0.780810 0.254197 0.448852 -0.046546
C58   C     C_R   0.217168 0.746023 0.556027 -0.048769
C59   C     C_R   0.219291 0.254248 0.551018 -0.046522
C60   C     C_R   0.782579 0.745833 0.444068 -0.048754
N1    N     N_R   0.519530 0.000000 0.207810 -0.192408
N2    N     N_R   0.480470 0.000000 0.792190 -0.192411
N3    N     N_R   0.019530 0.500000 0.207810 -0.192442
N4    N     N_R   0.980470 0.500000 0.792190 -0.192432
H5    H     H_    0.672264 0.274480 0.737884 0.214738
H6    H     H_    0.323177 0.728427 0.264964 0.213300
H7    H     H_    0.328073 0.274785 0.262156 0.214751
H8    H     H_    0.676452 0.728148 0.735062 0.213311
H9    H     H_    0.172203 0.774656 0.737999 0.214995
H10   H     H_    0.823723 0.227991 0.265081 0.213283
H11   H     H_    0.827406 0.774198 0.261960 0.214895
H12   H     H_    0.176338 0.228030 0.734791 0.213267
C61   C     C_R   0.541031 0.000085 0.958892 -0.074551
C62   C     C_R   0.458971 0.000148 0.041105 -0.074539
C63   C     C_R   0.041033 0.500227 0.958899 -0.074525
C64   C     C_R   0.958972 0.500171 0.041103 -0.074568
C65   C     C_3   0.363447 0.006076 0.255184 -0.238192
C66   C     C_3   0.307249 0.984667 0.378846 -0.735221
H13   H     H_    0.299623 0.928197 0.389825 0.235899
H14   H     H_    0.320019 0.006810 0.455647 0.231648
H15   H     H_    0.244799 0.003469 0.387367 0.196326
H16   H     H_    0.344811 0.059245 0.243808 0.199038
H17   H     H_    0.338170 0.965097 0.216571 0.179690
C67   C     C_3   0.636561 0.005984 0.744823 -0.237969
C68   C     C_3   0.692773 0.984671 0.621096 -0.735020
H18   H     H_    0.700442 0.928208 0.609964 0.235742
H19   H     H_    0.679989 0.006850 0.544339 0.231634
H20   H     H_    0.755211 0.003482 0.612620 0.196324
H21   H     H_    0.655254 0.059112 0.756376 0.198906
H22   H     H_    0.661770 0.964916 0.783334 0.179812
C69   C     C_3   0.863425 0.505925 0.255151 -0.238352
C70   C     C_3   0.807235 0.484592 0.378853 -0.735356
H23   H     H_    0.799615 0.428125 0.389923 0.235802
H24   H     H_    0.820016 0.506800 0.455599 0.231738
H25   H     H_    0.744782 0.503371 0.387340 0.196384
H26   H     H_    0.844738 0.559071 0.243756 0.199223
H27   H     H_    0.838213 0.464888 0.216541 0.179714
C71   C     C_3   0.136574 0.505967 0.744843 -0.238718
C72   C     C_3   0.192749 0.484543 0.621191 -0.735576
H28   H     H_    0.200322 0.428067 0.610239 0.235909
H29   H     H_    0.179975 0.506737 0.544423 0.231813
H30   H     H_    0.255216 0.503300 0.612669 0.196434
H31   H     H_    0.155198 0.559154 0.756059 0.199598
H32   H     H_    0.161862 0.465020 0.783553 0.179496
N5    N     N_R   0.581649 0.199692 0.664720 0.122016
O17   O     O_R   0.586425 0.174645 0.763519 -0.399720
O18   O     O_R   0.510954 0.217806 0.656995 -0.363324
N6    N     N_R   0.414570 0.801902 0.337281 0.123105
O19   O     O_R   0.486569 0.784145 0.340358 -0.353774
O20   O     O_R   0.407246 0.830977 0.242776 -0.390742
N7    N     N_R   0.418496 0.199707 0.335223 0.122006
O21   O     O_R   0.413662 0.174798 0.236352 -0.399781
O22   O     O_R   0.489234 0.217652 0.342995 -0.363343
N8    N     N_R   0.585301 0.801954 0.662901 0.123131
O23   O     O_R   0.513209 0.784423 0.659938 -0.353574
O24   O     O_R   0.592804 0.830961 0.757359 -0.390899
N9    N     N_R   0.081686 0.699479 0.665217 0.122225
O25   O     O_R   0.086958 0.674718 0.763966 -0.400254
O26   O     O_R   0.010761 0.717316 0.657996 -0.363598
N10   N     N_R   0.914831 0.301800 0.337375 0.123066
O27   O     O_R   0.986874 0.284421 0.340713 -0.353094
O28   O     O_R   0.907494 0.330711 0.242746 -0.390635
N11   N     N_R   0.918219 0.699569 0.335108 0.122134
O29   O     O_R   0.913340 0.674524 0.236347 -0.399944
O30   O     O_R   0.988890 0.718110 0.342448 -0.363681
N12   N     N_R   0.085132 0.301670 0.662311 0.123006
O31   O     O_R   0.013193 0.284162 0.658706 -0.353416
O32   O     O_R   0.092237 0.330567 0.757083 -0.390326
C73   C     C_3   0.698251 0.155509 0.234147 -0.337422
C74   C     C_3   0.744508 0.196367 0.123546 -0.837433
H33   H     H_    0.735368 0.252346 0.139704 0.273644
H34   H     H_    0.810525 0.183884 0.095726 0.256636
H35   H     H_    0.720827 0.182815 0.049761 0.251737
H36   H     H_    0.715806 0.100766 0.223078 0.185869
H37   H     H_    0.633121 0.160688 0.239955 0.282958
C75   C     C_3   0.290154 0.858273 0.767261 -0.340087
C76   C     C_3   0.231033 0.831356 0.883164 -0.847666
H38   H     H_    0.167495 0.846825 0.891870 0.260293
H39   H     H_    0.235509 0.774693 0.888114 0.270230
H40   H     H_    0.247194 0.853432 0.958831 0.253082
H41   H     H_    0.352079 0.848989 0.773987 0.271311
H42   H     H_    0.280127 0.914140 0.761981 0.185379
C77   C     C_3   0.301912 0.155748 0.765793 -0.337588
C78   C     C_3   0.255924 0.196888 0.876196 -0.836992
H43   H     H_    0.265206 0.252819 0.859649 0.273645
H44   H     H_    0.189869 0.184553 0.904304 0.256573
H45   H     H_    0.279700 0.183456 0.949935 0.251728
H46   H     H_    0.284158 0.101062 0.777163 0.185903
H47   H     H_    0.367083 0.160776 0.759828 0.283000
C79   C     C_3   0.709415 0.857797 0.232702 -0.339731
C80   C     C_3   0.768274 0.830603 0.116794 -0.847489
H48   H     H_    0.831902 0.845985 0.107707 0.260296
H49   H     H_    0.763631 0.773932 0.112208 0.270117
H50   H     H_    0.751993 0.852568 0.041143 0.253093
H51   H     H_    0.647387 0.848601 0.226294 0.271470
H52   H     H_    0.719632 0.913652 0.237668 0.185385
C81   C     C_3   0.197582 0.656102 0.234238 -0.337101
C82   C     C_3   0.243182 0.697476 0.123945 -0.837283
H53   H     H_    0.233678 0.753363 0.140809 0.273735
H54   H     H_    0.309299 0.685340 0.095464 0.256494
H55   H     H_    0.219255 0.684045 0.050349 0.251925
H56   H     H_    0.215576 0.601475 0.222541 0.185992
H57   H     H_    0.132345 0.660953 0.240492 0.283283
C83   C     C_3   0.790069 0.358279 0.767247 -0.340158
C84   C     C_3   0.730860 0.331402 0.883135 -0.847300
H58   H     H_    0.667330 0.346819 0.891649 0.260275
H59   H     H_    0.735375 0.274744 0.888246 0.270109
H60   H     H_    0.746898 0.353563 0.958843 0.252982
H61   H     H_    0.851973 0.349024 0.774097 0.271133
H62   H     H_    0.780039 0.414143 0.761866 0.185292
C85   C     C_3   0.801943 0.655693 0.765858 -0.337399
C86   C     C_3   0.756032 0.696818 0.876303 -0.837724
H63   H     H_    0.765371 0.752745 0.859799 0.273752
H64   H     H_    0.689964 0.684532 0.904460 0.256637
H65   H     H_    0.779842 0.683314 0.949976 0.251819
H66   H     H_    0.784133 0.601019 0.777207 0.185897
H67   H     H_    0.867115 0.660667 0.759882 0.283236
C87   C     C_3   0.210355 0.358693 0.232779 -0.340585
C88   C     C_3   0.269795 0.332037 0.116913 -0.847392
H68   H     H_    0.333241 0.347492 0.108773 0.260317
H69   H     H_    0.265406 0.275388 0.111460 0.270102
H70   H     H_    0.253898 0.354314 0.041181 0.252949
H71   H     H_    0.148551 0.349397 0.225620 0.270908
H72   H     H_    0.220232 0.414561 0.238445 0.185319
C89   C     C_3   0.296393 0.000395 0.059036 -0.456565
C90   C     C_3   0.232751 0.014986 0.996721 -0.888630
H73   H     H_    0.241041 0.066993 0.959813 0.269238
H74   H     H_    0.233267 0.976354 0.928922 0.252034
H75   H     H_    0.170940 0.013082 0.062540 0.264466
H76   H     H_    0.280024 0.948043 0.095459 0.227170
H77   H     H_    0.281033 0.040770 0.126731 0.227236
C91   C     C_3   0.703613 0.000014 0.940950 -0.456541
C92   C     C_3   0.767289 0.014359 0.003309 -0.888680
H78   H     H_    0.759058 0.066288 0.040559 0.269063
H79   H     H_    0.766697 0.975572 0.070890 0.252177
H80   H     H_    0.829097 0.012474 0.937478 0.264509
H81   H     H_    0.719822 0.947648 0.904471 0.227325
H82   H     H_    0.719103 0.040412 0.873301 0.227164
C93   C     C_3   0.796385 0.500278 0.059022 -0.456597
C94   C     C_3   0.732747 0.514889 0.996713 -0.888821
H83   H     H_    0.741009 0.566909 0.959878 0.269269
H84   H     H_    0.733289 0.476295 0.928855 0.252050
H85   H     H_    0.670931 0.512941 0.062514 0.264471
H86   H     H_    0.780062 0.447902 0.095357 0.227149
H87   H     H_    0.780960 0.540606 0.126785 0.227272
C95   C     C_3   0.203627 0.500658 0.941001 -0.456465
C96   C     C_3   0.267220 0.515563 0.003292 -0.888327
H88   H     H_    0.258842 0.567673 0.039809 0.269330
H89   H     H_    0.266792 0.477126 0.071367 0.251790
H90   H     H_    0.329043 0.513623 0.937505 0.264362
H91   H     H_    0.220144 0.448289 0.904709 0.226877
H92   H     H_    0.218902 0.540962 0.873197 0.227355

loop_
_geom_bond_atom_site_label_1
_geom_bond_atom_site_label_2
_geom_bond_distance
_ccdc_geom_bond_type
C65   H17   1.079567 S    
O6    Cu4   1.948839 S    
C88   H68   1.110601 S    
C94   H85   1.111521 S    
C36   C55   1.397712 A    
C65   C66   1.549296 S    
C69   H27   1.079784 S    
C17   C67   1.544671 S    
O2    C2    1.315708 A    
O13   Cu4   1.969947 S    
C45   C53   1.404513 A    
N11   O29   1.301049 A    
C54   C57   1.409614 A    
C5    C27   1.482596 S    
O14   Cu3   1.969947 S    
C28   C51   1.412729 A    
C94   H83   1.097094 S    
C52   C60   1.407484 A    
C47   C55   1.404546 A    
C61   C62   1.450775 A    
C81   H57   1.109121 S    
N8    O23   1.301380 A    
N7    O21   1.300996 A    
C80   H49   1.110723 S    
C81   C82   1.535143 S    
C70   H23   1.112097 S    
C92   H80   1.111522 S    
C17   N2    1.403071 A    
C88   H69   1.110705 S    
O11   C3    1.306099 A    
C89   H77   1.099323 S    
C33   H5    1.074750 S    
C32   C59   1.397690 A    
C19   N4    1.403178 A    
N11   O30   1.300912 A    
C19   C63   1.484030 A    
C85   H66   1.106365 S    
C40   C77   1.519671 S    
N9    O26   1.300862 A    
C55   C60   1.409660 A    
C72   H29   1.094705 S    
C46   C54   1.407482 A    
C51   N12   1.439017 S    
C69   C70   1.549220 S    
O6    C6    1.315812 A    
C21   C38   1.420285 A    
C71   H31   1.106293 S    
C14   C61   1.498643 A    
C67   C68   1.549415 S    
C66   H15   1.112896 S    
N7    O22   1.300696 A    
C13   C62   1.498645 A    
C67   H22   1.079579 S    
C73   H36   1.106448 S    
C84   H59   1.110750 S    
C91   H81   1.111210 S    
C9    N2    1.329371 A    
C22   C45   1.412862 A    
C34   C53   1.397707 A    
C35   C43   1.399578 A    
C79   C80   1.533197 S    
C13   C89   1.560093 S    
C10   C14   1.403999 A    
C78   H45   1.110543 S    
C73   C74   1.535279 S    
C93   C94   1.531448 S    
C20   C69   1.544664 S    
N6    O19   1.301408 A    
C31   C39   1.399457 A    
C32   C40   1.396774 A    
C95   H92   1.099241 S    
C75   H42   1.108069 S    
Cu2   N2    2.037316 S    
C20   N3    1.403127 A    
C74   H34   1.110376 S    
O4    Cu1   1.948931 S    
C77   H47   1.109135 S    
C78   H44   1.110325 S    
C41   C83   1.526665 S    
C83   H62   1.108162 S    
O16   C8    1.301776 A    
C87   H72   1.108138 S    
C11   N4    1.329366 A    
C29   C37   1.399478 A    
C50   C58   1.407689 A    
C86   H65   1.110509 S    
C38   C73   1.519827 S    
C49   C57   1.404575 A    
C76   H39   1.110651 S    
C34   C42   1.396729 A    
C76   H38   1.110723 S    
C47   N8    1.439153 S    
C91   H82   1.099382 S    
C36   H8    1.076548 S    
C8    C26   1.482371 S    
C88   H70   1.110190 S    
Cu3   N3    2.037314 S    
C25   C42   1.420228 A    
C22   C37   1.426287 A    
C29   H9    1.074657 S    
C66   H13   1.112082 S    
C72   H28   1.112078 S    
C91   C92   1.531453 S    
C52   N11   1.438666 S    
C74   H35   1.110575 S    
C31   H11   1.074790 S    
C87   C88   1.533123 S    
C37   C75   1.526624 S    
C23   C40   1.420127 A    
C93   H86   1.111191 S    
N10   O27   1.301230 A    
C48   N7    1.438606 S    
C30   C38   1.396847 A    
C12   H3    1.073436 S    
C80   H50   1.110291 S    
C92   H78   1.097191 S    
C46   N5    1.438581 S    
C24   C39   1.426318 A    
C94   H84   1.102731 S    
C83   C84   1.533286 S    
C82   H55   1.110560 S    
C67   H21   1.106454 S    
C73   H37   1.109177 S    
O3    Cu2   1.948929 S    
C66   H14   1.094607 S    
Cu1   Cu2   2.711586 S    
C15   C93   1.560161 S    
C9    H2    1.073496 S    
C45   N6    1.439086 S    
C80   H48   1.110806 S    
C11   H4    1.073487 S    
O12   C4    1.301831 A    
C12   N3    1.329328 A    
O1    Cu1   1.948837 S    
C89   C90   1.531466 S    
O13   C5    1.306156 A    
C95   H91   1.111283 S    
C96   H89   1.103023 S    
C18   N1    1.403082 A    
C35   H7    1.074722 S    
C75   H41   1.111155 S    
C27   C52   1.412241 A    
O3    C3    1.312766 A    
C34   H6    1.076547 S    
C19   C71   1.544674 S    
O11   Cu1   1.970003 S    
C74   H33   1.111309 S    
C28   C43   1.426305 A    
N8    O24   1.301809 A    
O9    Cu2   1.969947 S    
C84   H58   1.110816 S    
N10   O28   1.301818 A    
C78   H43   1.111246 S    
C50   N9    1.438946 S    
C83   H61   1.111255 S    
C90   H73   1.097164 S    
C90   H74   1.102828 S    
C87   H71   1.111050 S    
N12   O32   1.301722 A    
C63   C64   1.450743 A    
C68   H20   1.112895 S    
C92   H79   1.102774 S    
C24   C47   1.412912 A    
C15   C64   1.498681 A    
C18   C65   1.544657 S    
C79   H52   1.108041 S    
C77   C78   1.535227 S    
C76   H40   1.110226 S    
C39   C79   1.526524 S    
C6    C28   1.482279 S    
N5    O17   1.300909 A    
O9    C1    1.306172 A    
C65   H16   1.106434 S    
C32   H12   1.076481 S    
O7    Cu4   1.948929 S    
O12   Cu2   1.970005 S    
C21   C46   1.412193 A    
C25   C50   1.412405 A    
O8    Cu3   1.948931 S    
Cu1   N1    2.037314 S    
C33   C54   1.398176 A    
C42   C81   1.519662 S    
Cu3   Cu4   2.711586 S    
C1    C23   1.482605 S    
C33   C41   1.399507 A    
C86   H63   1.111205 S    
C72   H30   1.112907 S    
C2    C24   1.482410 S    
C35   C56   1.398194 A    
C81   H56   1.106365 S    
C3    C21   1.482595 S    
C10   H1    1.073548 S    
O15   Cu3   1.970003 S    
C77   H46   1.106375 S    
C85   H67   1.109038 S    
O16   Cu4   1.970005 S    
C90   H75   1.111515 S    
O1    C1    1.312700 A    
C89   H76   1.111181 S    
C68   H19   1.094548 S    
C70   H25   1.112895 S    
O2    Cu2   1.948839 S    
C36   C44   1.396800 A    
C11   C15   1.403967 A    
C75   C76   1.533088 S    
O14   C6    1.301674 A    
C18   C62   1.484064 A    
C44   C85   1.519721 S    
C48   C56   1.407597 A    
C43   C87   1.526696 S    
C14   C91   1.560168 S    
C84   H60   1.110233 S    
C20   C64   1.483998 A    
O10   Cu1   1.969947 S    
C51   C59   1.404507 A    
C53   C58   1.409659 A    
O10   C2    1.301888 A    
C10   N1    1.329403 A    
O7    C7    1.312679 A    
C26   C49   1.412855 A    
O15   C7    1.306261 A    
C56   C59   1.409600 A    
O8    C8    1.315771 A    
C70   H24   1.094613 S    
C16   C63   1.498734 A    
C17   C61   1.484049 A    
C27   C44   1.420328 A    
C71   H32   1.079861 S    
C95   C96   1.531684 S    
C26   C41   1.426363 A    
C82   H54   1.110406 S    
C23   C48   1.412223 A    
C30   H10   1.076459 S    
C86   H64   1.110322 S    
C7    C25   1.482723 S    
C96   H90   1.111528 S    
C85   C86   1.535086 S    
O4    C4    1.315718 A    
C93   H87   1.099202 S    
O5    C5    1.312725 A    
C12   C16   1.403955 A    
N6    O20   1.301801 A    
C69   H26   1.106329 S    
C68   H18   1.112130 S    
C96   H88   1.097316 S    
C71   C72   1.549092 S    
C16   C95   1.560224 S    
N12   O31   1.301210 A    
C29   C58   1.398240 A    
N5    O18   1.300662 A    
C31   C60   1.398216 A    
N9    O25   1.301247 A    
C79   H51   1.111223 S    
C30   C57   1.397694 A    
C4    C22   1.482337 S    
C82   H53   1.111228 S    
C9    C13   1.403969 A    
O5    Cu3   1.948837 S    
C49   N10   1.439147 S    
Cu4   N4    2.037316 S    
