data_mof_unit_15273.cif
_audit_creation_date              2012-10-26T19:04:18-0400
_audit_creation_method            fapswitch 2.2
_symmetry_space_group_name_H-M    P1
_symmetry_Int_Tables_number       1
_space_group_crystal_system       triclinic
_cell_length_a                    15.012903
_cell_length_b                    15.604123
_cell_length_c                    9.600755
_cell_angle_alpha                 89.019206
_cell_angle_beta                  88.680434
_cell_angle_gamma                 89.792585
_cell_volume                      2248.16585246

loop_
_atom_site_label
_atom_site_type_symbol
_atom_type_description
_atom_site_fract_x
_atom_site_fract_y
_atom_site_fract_z
_atom_type_partial_charge
C1    C     C_R   0.378275 0.883428 0.502870 0.573801
C2    C     C_R   0.736236 0.203895 0.388876 -0.166907
C3    C     C_R   0.253702 0.315256 0.420347 -0.165609
C4    C     C_R   0.236182 0.703942 0.388821 -0.166898
C5    C     C_R   0.675303 0.804832 0.500016 0.016547
C6    C     C_R   0.671257 0.197721 0.494588 -0.017471
C7    C     C_R   0.175390 0.304896 0.500074 0.016552
C8    C     C_R   0.171243 0.697732 0.494589 -0.017445
C9    C     C_R   0.663749 0.000210 0.138596 -0.096105
C10   C     C_R   0.163750 0.500223 0.138595 -0.095991
C11   C     C_R   0.744929 0.000432 0.063804 0.207866
C12   C     C_R   0.378976 0.116342 0.500338 0.537966
C13   C     C_R   0.244929 0.500468 0.063800 0.207931
C14   C     C_R   0.744199 0.998805 0.920234 -0.098049
C15   C     C_R   0.244198 0.498840 0.920230 -0.098039
C16   C     C_R   0.664165 0.997975 0.850936 -0.127113
C17   C     C_R   0.164165 0.497989 0.850934 -0.127045
C18   C     C_R   0.580647 0.998636 0.922583 0.153186
C19   C     C_R   0.080647 0.498642 0.922582 0.153212
C20   C     C_R   0.580565 0.999261 0.072017 0.124422
C21   C     C_R   0.080566 0.499267 0.072017 0.124397
C22   C     C_R   0.423453 0.002906 0.076625 0.008145
C23   C     C_R   0.878263 0.383443 0.502867 0.573853
C24   C     C_R   0.923454 0.502905 0.076628 0.008177
C25   C     C_R   0.614464 0.122265 0.498195 0.531788
C26   C     C_R   0.614614 0.877672 0.500153 0.597249
C27   C     C_R   0.114455 0.622272 0.498195 0.531824
C28   C     C_R   0.114625 0.377678 0.500162 0.597321
C29   C     C_R   0.423573 0.003980 0.928841 0.008182
C30   C     C_R   0.923574 0.503980 0.928846 0.008341
C31   C     C_R   0.212104 0.085669 0.652226 -0.124579
C32   C     C_R   0.248738 0.854355 0.749686 -0.146313
C33   C     C_R   0.712542 0.586259 0.654317 -0.124432
C34   C     C_R   0.878908 0.616280 0.500359 0.537923
C35   C     C_R   0.748610 0.354507 0.749543 -0.146032
C36   C     C_R   0.133128 0.070943 0.726298 -0.156596
C37   C     C_R   0.180871 0.849327 0.850651 -0.194777
C38   C     C_R   0.633829 0.571877 0.729281 -0.156546
C39   C     C_R   0.680718 0.349498 0.850469 -0.194568
C40   C     C_R   0.566327 0.632374 0.727068 -0.105378
C41   C     C_R   0.601998 0.308087 0.822165 -0.050498
C42   C     C_R   0.065754 0.131581 0.724638 -0.105383
C43   C     C_R   0.102119 0.807969 0.822341 -0.050852
C44   C     C_R   0.576488 0.709271 0.649886 0.257764
C45   C     C_R   0.318506 0.252495 0.420229 -0.135867
C46   C     C_R   0.592890 0.266186 0.696566 0.271752
C47   C     C_R   0.076238 0.208912 0.648723 0.257668
C48   C     C_R   0.092952 0.766137 0.696690 0.271675
C49   C     C_R   0.658824 0.727433 0.578002 0.066573
C50   C     C_R   0.667901 0.258089 0.603213 0.016558
C51   C     C_R   0.158700 0.227250 0.577313 0.066573
C52   C     C_R   0.167935 0.758059 0.603274 0.016591
C53   C     C_R   0.226784 0.163683 0.578411 -0.009986
C54   C     C_R   0.242799 0.811405 0.621112 -0.012918
C55   C     C_R   0.726955 0.663919 0.579356 -0.009827
C56   C     C_R   0.301335 0.765781 0.393614 -0.140159
C57   C     C_R   0.742739 0.311470 0.621042 -0.012814
C58   C     C_R   0.306827 0.178282 0.501043 0.017225
C59   C     C_R   0.307267 0.818892 0.509168 0.002560
C60   C     C_R   0.806739 0.678213 0.501123 0.017012
C61   C     C_R   0.807253 0.318911 0.509158 0.002444
C62   C     C_R   0.818140 0.752133 0.419492 -0.136328
C63   C     C_R   0.801379 0.265745 0.393663 -0.140244
C64   C     C_R   0.753360 0.814909 0.419577 -0.165860
Cu1   Cu    Cu3+1 0.499990 1.000000 0.640660 0.981424
Cu2   Cu    Cu3+1 0.999990 0.500000 0.640660 0.981505
Cu3   Cu    Cu3+1 0.500010 1.000000 0.359340 0.934399
Cu4   Cu    Cu3+1 0.000010 0.500000 0.359340 0.934416
H1    H     H_    0.379392 0.262916 0.359466 0.132310
H2    H     H_    0.860956 0.509221 0.876271 0.093417
H3    H     H_    0.260511 0.034374 0.651747 0.130408
H4    H     H_    0.305104 0.890420 0.779423 0.150855
H5    H     H_    0.760932 0.534963 0.654131 0.130568
H6    H     H_    0.804942 0.390627 0.779251 0.150639
H7    H     H_    0.123015 0.011249 0.782942 0.133826
H8    H     H_    0.187574 0.881983 0.948476 0.116178
H9    H     H_    0.623983 0.512508 0.786961 0.133310
H10   H     H_    0.687382 0.382196 0.948266 0.115841
H11   H     H_    0.504564 0.618131 0.783149 0.111637
H12   H     H_    0.350028 0.769363 0.308617 0.153342
H13   H     H_    0.546475 0.311265 0.895958 0.149046
H14   H     H_    0.003855 0.117153 0.780213 0.111418
H15   H     H_    0.046618 0.811135 0.896176 0.149061
H16   H     H_    0.765289 0.873043 0.358804 0.120691
H17   H     H_    0.738086 0.159257 0.303619 0.138843
H18   H     H_    0.265797 0.373591 0.360168 0.120206
H19   H     H_    0.237992 0.659341 0.303511 0.138831
H20   H     H_    0.360621 0.005357 0.133899 0.118586
H21   H     H_    0.860622 0.505356 0.133901 0.118536
H22   H     H_    0.669423 0.001375 0.248119 0.165274
H23   H     H_    0.878825 0.762348 0.358142 0.132766
H24   H     H_    0.169425 0.501375 0.248118 0.165305
H25   H     H_    0.453617 0.741527 0.694588 0.317274
H26   H     H_    0.503597 0.244484 0.561102 0.309975
H27   H     H_    0.953525 0.241409 0.694070 0.317270
H28   H     H_    0.003605 0.744493 0.561264 0.310111
H29   H     H_    0.815983 0.006059 0.230439 0.306466
H30   H     H_    0.315984 0.506135 0.230429 0.306480
H31   H     H_    0.850108 0.269294 0.308715 0.153400
H32   H     H_    0.806554 0.998864 0.861071 0.144010
H33   H     H_    0.306553 0.498911 0.861066 0.144085
H34   H     H_    0.672490 0.997796 0.741030 0.177044
H35   H     H_    0.172490 0.497800 0.741028 0.177045
H36   H     H_    0.360954 0.009214 0.876253 0.093822
N1    N     N_R   0.501200 0.000000 0.147910 -0.242069
N2    N     N_R   0.001200 0.500000 0.147910 -0.242092
N3    N     N_R   0.501270 1.000000 0.852040 -0.227261
N4    N     N_R   0.001270 0.500000 0.852040 -0.227207
O1    O     O_R   0.409820 0.909830 0.618810 -0.495277
O2    O     O_R   0.590170 0.909830 0.618760 -0.479845
O3    O     O_R   0.090170 0.590170 0.618760 -0.486897
O4    O     O_R   0.090170 0.409830 0.618760 -0.479702
O5    O     O_R   0.590190 0.090180 0.381190 -0.535463
O6    O     O_R   0.590190 0.909820 0.381190 -0.522689
O7    O     O_R   0.090190 0.590180 0.381190 -0.535497
O8    O     O_R   0.090190 0.409820 0.381190 -0.522607
O9    O     O_3   0.505030 0.764162 0.638731 -0.679356
O10   O     O_3   0.508330 0.240835 0.663800 -0.668938
O11   O     O_3   0.005012 0.264155 0.638506 -0.679303
O12   O     O_R   0.409820 0.090170 0.618810 -0.472294
O13   O     O_3   0.008371 0.740825 0.663957 -0.668919
O14   O     O_3   0.826114 0.002580 0.128289 -0.703485
O15   O     O_3   0.326115 0.502635 0.128282 -0.703500
O16   O     O_R   0.909820 0.409830 0.618810 -0.495200
O17   O     O_R   0.909820 0.590170 0.618810 -0.472504
O18   O     O_R   0.409840 0.909830 0.381240 -0.502963
O19   O     O_R   0.409840 0.090170 0.381240 -0.511560
O20   O     O_R   0.909840 0.409830 0.381240 -0.502932
O21   O     O_R   0.909840 0.590170 0.381240 -0.511606
O22   O     O_R   0.590170 0.090170 0.618760 -0.486904

loop_
_geom_bond_atom_site_label_1
_geom_bond_atom_site_label_2
_ccdc_geom_bond_type
C44   C49   A    
C33   C55   A    
Cu2   Cu4   S    
C35   H6    S    
C22   C29   A    
C43   H15   S    
C36   C42   A    
C42   H14   S    
C4    C8    A    
C24   H21   S    
Cu1   O22   S    
C39   C41   A    
C12   O19   A    
C28   O4    A    
Cu4   N2    S    
H28   O13   S    
C19   C21   A    
Cu3   O6    S    
C3    C7    A    
C1    C59   S    
C13   O15   S    
C11   C14   A    
C31   C53   A    
C6    C25   S    
C46   O10   S    
C2    H17   S    
C60   C62   A    
C61   C63   A    
C18   N3    A    
C64   H16   S    
C62   C64   A    
C28   O8    A    
C1    O1    A    
C12   O12   A    
C34   O21   A    
Cu1   Cu3   S    
C63   H31   S    
C41   C46   A    
C22   H20   S    
Cu2   O3    S    
C43   C48   A    
C8    C52   A    
C40   C44   A    
C18   C20   A    
C21   N2    A    
C12   C58   S    
C19   N4    A    
C47   O11   S    
C10   H24   S    
C55   C60   A    
C4    C56   A    
C3    H18   S    
C34   C60   S    
C5    C49   A    
C2    C6    A    
H25   O9    S    
C25   O22   A    
C32   C54   A    
C30   H2    S    
C52   C54   A    
C54   C59   A    
C10   C21   A    
H30   O15   S    
C45   C58   A    
C45   H1    S    
C39   H10   S    
C1    O18   A    
C32   H4    S    
Cu3   O18   S    
C48   O13   S    
C4    H19   S    
Cu3   N1    S    
C47   C51   A    
H27   O11   S    
C49   C55   A    
C3    C45   A    
C6    C50   A    
C7    C28   S    
C5    C64   A    
C51   C53   A    
C37   C43   A    
C35   C39   A    
C26   O6    A    
H29   O14   S    
C36   H7    S    
C25   O5    A    
C9    C20   A    
C23   C61   S    
C41   H13   S    
C62   H23   S    
C40   H11   S    
C32   C37   A    
C15   H33   S    
C57   C61   A    
C9    C11   A    
Cu1   O1    S    
Cu4   O8    S    
Cu4   O20   S    
C33   H5    S    
C37   H8    S    
C13   C15   A    
Cu3   O19   S    
C14   C16   A    
C11   O14   S    
C24   N2    A    
C2    C63   A    
C20   N1    A    
C16   H34   S    
C15   C17   A    
C26   O2    A    
C30   N4    A    
C50   C57   A    
Cu2   N4    S    
C10   C13   A    
C9    H22   S    
C53   C58   A    
C56   C59   A    
C14   H32   S    
C23   O16   A    
C38   H9    S    
C22   N1    A    
C46   C50   A    
C33   C38   A    
C56   H12   S    
Cu2   O17   S    
C35   C57   A    
C17   H35   S    
C7    C51   A    
C38   C40   A    
H26   O10   S    
C44   O9    S    
C34   O17   A    
C31   H3    S    
C17   C19   A    
Cu1   O12   S    
Cu2   O16   S    
C42   C47   A    
Cu3   O5    S    
Cu4   O21   S    
C24   C30   A    
Cu1   O2    S    
Cu4   O7    S    
C27   O3    A    
C5    C26   S    
C48   C52   A    
C29   H36   S    
C16   C18   A    
C8    C27   S    
C31   C36   A    
C29   N3    A    
Cu2   O4    S    
Cu1   N3    S    
C23   O20   A    
C27   O7    A    
