data_mof_unit_26772.cif
_audit_creation_date              2012-12-10T17:03:37-0500
_audit_creation_method            fapswitch 2.2
_symmetry_space_group_name_H-M    P1
_symmetry_Int_Tables_number       1
_space_group_crystal_system       triclinic
_cell_length_a                    10.028984
_cell_length_b                    10.727194
_cell_length_c                    13.161118
_cell_angle_alpha                 90.480155
_cell_angle_beta                  70.07786
_cell_angle_gamma                 90.846931
_cell_volume                      1331.02381808

loop_
_atom_site_label
_atom_site_type_symbol
_atom_type_description
_atom_site_fract_x
_atom_site_fract_y
_atom_site_fract_z
_atom_type_partial_charge
C1    C     C_R   0.500611 0.737563 0.501778 0.960546
C2    C     C_R   0.370677 0.515630 0.821796 -0.116535
C3    C     C_2   0.596362 0.069243 0.530064 -0.282799
C4    C     C_R   0.421435 0.506541 0.704008 0.852351
C5    C     C_2   0.485124 0.132148 0.525080 -0.420790
C6    C     C_2   0.586135 0.934745 0.546740 0.580938
C7    C     C_2   0.505737 0.870117 0.500636 -0.442732
C8    C     C_2   0.105591 0.439725 0.429246 -0.120137
C9    C     C_2   0.954052 0.434918 0.432469 -0.143953
C10   C     C_R   0.497020 0.262618 0.504465 0.974338
C11   C     C_R   0.578720 0.500104 0.295961 0.863244
C12   C     C_R   0.433150 0.523027 0.984382 0.088351
C13   C     C_R   0.774462 0.622357 0.019339 -0.204035
C14   C     C_R   0.626332 0.516068 0.179723 -0.056312
C15   C     C_R   0.236405 0.466673 0.880913 -0.194607
C16   C     C_R   0.197779 0.450864 0.991824 -0.151385
C17   C     C_R   0.295958 0.475323 0.043149 -0.191038
C18   C     C_3   0.692905 0.946496 0.678510 -0.343352
C19   C     C_R   0.462893 0.557546 0.875851 0.085841
C20   C     C_R   0.541801 0.538082 0.029586 0.080594
C21   C     C_R   0.668739 0.604211 0.972762 0.180096
C22   C     C_R   0.686865 0.653397 0.871438 -0.270145
C23   C     C_R   0.584875 0.631196 0.823759 -0.202708
C24   C     C_R   0.528514 0.487161 0.129342 -0.252692
C25   C     C_R   0.752051 0.580393 0.123859 -0.207642
H1    H     H_    0.828842 0.603394 0.162569 0.160544
H2    H     H_    0.439185 0.428230 0.172040 0.142298
H3    H     H_    0.163003 0.436993 0.840979 0.159318
H4    H     H_    0.260383 0.459185 0.129112 0.128252
H5    H     H_    0.093459 0.414364 0.037517 0.145048
H6    H     H_    0.601944 0.673553 0.746061 0.205382
H7    H     H_    0.697168 0.115524 0.519697 0.186400
H8    H     H_    0.594206 0.990714 0.732692 0.171135
H9    H     H_    0.776948 0.017562 0.642084 0.172063
H10   H     H_    0.732747 0.885780 0.729242 0.182931
H11   H     H_    0.381472 0.088673 0.541247 0.158486
H12   H     H_    0.444882 0.914306 0.457046 0.120123
H13   H     H_    0.183049 0.388779 0.364847 0.152580
H14   H     H_    0.074741 0.542223 0.562866 0.160462
H15   H     H_    0.929561 0.375227 0.374075 0.154391
H16   H     H_    0.875830 0.559699 0.551028 0.176638
H17   H     H_    0.781015 0.707454 0.828312 0.142607
H18   H     H_    0.871277 0.673393 0.976838 0.141104
N1    N     N_2   0.148270 0.498670 0.498870 -0.186598
N2    N     N_2   0.852610 0.498640 0.498840 -0.184081
O1    O     O_R   0.386950 0.680940 0.500020 -0.618570
O2    O     O_R   0.613110 0.680900 0.499980 -0.556127
O3    O     O_R   0.330780 0.500000 0.653640 -0.617901
O4    O     O_R   0.556930 0.499960 0.653610 -0.609714
O5    O     O_R   0.386890 0.319100 0.500020 -0.615275
O6    O     O_R   0.613050 0.319060 0.499980 -0.608907
O7    O     O_R   0.443070 0.500040 0.346390 -0.610617
O8    O     O_R   0.669220 0.500000 0.346360 -0.619058
O9    O     O_3   0.667349 0.872492 0.597677 -0.596595
Zn1   Zn    Zn3+2 0.349000 0.500030 0.500020 0.938322
Zn2   Zn    Zn3+2 0.651000 0.499970 0.499980 0.959921

loop_
_geom_bond_atom_site_label_1
_geom_bond_atom_site_label_2
_ccdc_geom_bond_type
O1    Zn1   S    
C12   C17   A    
O3    Zn1   S    
C19   C23   A    
O7    Zn1   S    
C9    N2    D    
C6    C7    D    
O4    Zn2   S    
C17   H4    S    
C18   H10   S    
C2    C4    S    
O5    Zn1   S    
C11   O8    A    
C24   H2    S    
C4    O4    A    
C3    C6    S    
C12   C20   A    
C7    H12   S    
C13   C21   A    
C5    C10   S    
C1    C7    S    
C21   C22   A    
C2    C15   A    
C18   H9    S    
N1    Zn1   S    
C13   C25   A    
C15   H3    S    
C22   H17   S    
C8    H13   S    
C6    O9    S    
C10   O6    A    
C12   C19   A    
C18   H8    S    
C14   C25   A    
C3    H7    S    
C11   C14   S    
C1    O1    A    
C16   C17   A    
C18   O9    S    
H14   N1    S    
C16   H5    S    
C15   C16   A    
C10   O5    A    
C5    H11   S    
C8    N1    D    
C13   H18   S    
C20   C21   A    
O6    Zn2   S    
C4    O3    A    
O8    Zn2   S    
C14   C24   A    
H16   N2    S    
C22   C23   A    
C8    C9    S    
C11   O7    A    
C25   H1    S    
C2    C19   A    
C9    H15   S    
C1    O2    A    
C20   C24   A    
N2    Zn2   S    
O2    Zn2   S    
C3    C5    D    
C23   H6    S    
