data_mof_unit_23774.cif
_audit_creation_date              2012-12-11T17:09:35-0500
_audit_creation_method            fapswitch 2.2
_symmetry_space_group_name_H-M    P1
_symmetry_Int_Tables_number       1
_space_group_crystal_system       triclinic
_cell_length_a                    14.828249
_cell_length_b                    6.915313
_cell_length_c                    13.50024
_cell_angle_alpha                 90.00192
_cell_angle_beta                  99.876924
_cell_angle_gamma                 89.998626
_cell_volume                      1363.82335247

loop_
_atom_site_label
_atom_site_type_symbol
_atom_type_description
_atom_site_fract_x
_atom_site_fract_y
_atom_site_fract_z
_atom_type_partial_charge
O1    O     O_R   0.586930 0.505770 0.416350 -0.540912
O2    O     O_R   0.413070 0.005770 0.583650 -0.541162
O3    O     O_R   0.397900 0.173100 0.389630 -0.541705
O4    O     O_R   0.602100 0.673100 0.610370 -0.541486
C1    C     C_R   0.364204 0.345423 0.362844 0.756884
C2    C     C_R   0.635801 0.845422 0.637149 0.757528
O5    O     O_R   0.585280 0.175870 0.404330 -0.535755
O6    O     O_R   0.414720 0.675870 0.595670 -0.535829
O7    O     O_R   0.601790 0.008380 0.598460 -0.533520
O8    O     O_R   0.398210 0.508380 0.401540 -0.533534
C3    C     C_R   0.614412 0.344835 0.382668 0.711274
C4    C     C_R   0.385583 0.844841 0.617326 0.710583
O9    O     O_3   0.505200 0.340120 0.563670 -0.371866
O10   O     O_3   0.494800 0.840120 0.436330 -0.371820
V1    V     V_3+5 0.499040 0.064180 0.488190 1.448288
V2    V     V_3+5 0.500960 0.564180 0.511810 1.448575
C5    C     C_R   0.245471 0.987474 0.670156 0.001360
C6    C     C_R   0.754457 0.487601 0.329796 0.002143
C7    C     C_R   0.316602 0.852376 0.684357 -0.180236
C8    C     C_R   0.683389 0.352371 0.315635 -0.180520
C9    C     C_R   0.317427 0.715905 0.761755 -0.164821
C10   C     C_R   0.682595 0.215866 0.238258 -0.164791
H1    H     H_    0.370544 0.606573 0.773805 0.132189
H2    H     H_    0.629500 0.106492 0.226220 0.132217
C11   C     C_R   0.254618 0.726723 0.829337 0.278104
C12   C     C_R   0.745394 0.226716 0.170669 0.278118
C13   C     C_R   0.185604 0.873470 0.817355 -0.141852
C14   C     C_R   0.814386 0.373502 0.182638 -0.141818
C15   C     C_R   0.181499 0.997286 0.734409 -0.031008
C16   C     C_R   0.818444 0.497445 0.265537 -0.031212
C17   C     C_3   0.176496 0.213034 0.729037 -0.425398
C18   C     C_3   0.823278 0.713245 0.270724 -0.426487
C19   C     C_3   0.247837 0.204292 0.660210 0.367427
C20   C     C_3   0.751906 0.704409 0.339512 0.367976
H3    H     H_    0.202506 0.281396 0.802616 0.153125
H4    H     H_    0.797212 0.781274 0.197074 0.153401
H5    H     H_    0.108119 0.264685 0.691567 0.180537
H6    H     H_    0.891601 0.765298 0.308127 0.180144
H7    H     H_    0.314816 0.265958 0.695978 0.079750
H8    H     H_    0.684878 0.765679 0.303622 0.079605
C21   C     C_1   0.783478 0.877115 0.782843 -0.201462
C22   C     C_1   0.216530 0.377119 0.217147 -0.201555
C23   C     C_1   0.716222 0.860134 0.716793 -0.191891
C24   C     C_1   0.283787 0.360137 0.283195 -0.192159
O11   O     O_R   0.101720 0.231700 0.098560 -0.537339
O12   O     O_R   0.898280 0.731700 0.901440 -0.537314
O13   O     O_R   0.914700 0.558980 0.095690 -0.540762
O14   O     O_R   0.085300 0.058980 0.904310 -0.540788
C25   C     C_R   0.883218 0.389428 0.114818 0.719095
C26   C     C_R   0.116778 0.889420 0.885179 0.719012
O15   O     O_R   0.102080 0.561590 0.110390 -0.535526
O16   O     O_R   0.897920 0.061590 0.889610 -0.535532
O17   O     O_R   0.086950 0.728940 0.916330 -0.543380
O18   O     O_R   0.913050 0.228940 0.083670 -0.543399
C27   C     C_R   0.136125 0.391910 0.137491 0.737254
C28   C     C_R   0.863878 0.891908 0.862505 0.737199
O19   O     O_3   0.994770 0.394510 0.936380 -0.370365
O20   O     O_3   0.005230 0.894510 0.063620 -0.370375
V3    V     V_3+5 0.000970 0.670520 0.011800 1.400056
V4    V     V_3+5 0.999030 0.170520 0.988200 1.400025
N1    N     N_2   0.268904 0.599862 0.913605 -0.538645
H9    H     H_    0.212820 0.521551 0.925598 0.266658
C29   C     C_3   0.320388 0.682723 0.004310 -0.552874
H10   H     H_    0.334338 0.569410 0.063229 0.192514
H11   H     H_    0.280860 0.801215 0.032377 0.186155
H12   H     H_    0.386966 0.739739 0.989763 0.201698
N2    N     N_2   0.731099 0.099884 0.086385 -0.538690
H13   H     H_    0.787186 0.021639 0.074341 0.266683
C30   C     C_3   0.679553 0.182739 0.995715 -0.553017
H14   H     H_    0.665628 0.069467 0.936772 0.192515
H15   H     H_    0.719019 0.301332 0.967660 0.186174
H16   H     H_    0.612962 0.239608 0.010304 0.201731
O21   O     O_3   0.216801 0.289326 0.564013 -0.545003
C31   C     C_3   0.164691 0.163727 0.493917 -0.206280
H17   H     H_    0.104782 0.104134 0.523212 0.134673
H18   H     H_    0.208225 0.045718 0.472026 0.135662
H19   H     H_    0.137988 0.247260 0.424976 0.148395
O22   O     O_3   0.782615 0.789553 0.435751 -0.544842
C32   C     C_3   0.836433 0.665491 0.505313 -0.206170
H20   H     H_    0.896421 0.608287 0.475260 0.134386
H21   H     H_    0.794193 0.545674 0.527776 0.135653
H22   H     H_    0.863092 0.749603 0.574069 0.148335

loop_
_geom_bond_atom_site_label_1
_geom_bond_atom_site_label_2
_ccdc_geom_bond_type
C29   H11   S    
O11   V4    S    
O12   V3    S    
C13   C15   A    
C5    C15   A    
O21   C31   S    
O1    C3    A    
O2    C4    A    
C2    O7    A    
O17   V3    S    
O13   C25   A    
O18   V4    S    
O5    C3    A    
C19   H7    S    
C31   H18   S    
C20   H8    S    
C12   N2    S    
C18   H4    S    
C10   H2    S    
C7    C9    A    
O19   V3    S    
O20   V4    S    
C25   O18   A    
N1    C29   S    
C30   H15   S    
C17   H3    S    
O16   V4    S    
C31   H19   S    
C17   C19   S    
C6    C16   A    
C18   H6    S    
O15   C27   A    
C13   C26   S    
O14   C26   A    
C29   H12   S    
O6    V2    S    
C21   C23   T    
C30   H14   S    
C5    C19   S    
O14   V4    S    
C3    C8    S    
C26   O17   A    
C31   H17   S    
N2    H13   S    
C32   H20   S    
O4    C2    A    
C32   H21   S    
O22   C32   S    
O19   V4    S    
O20   V3    S    
C17   H5    S    
N2    C30   S    
C18   C20   S    
O4    V2    S    
C30   H16   S    
C21   C28   S    
C22   C27   S    
C14   C25   S    
O9    V1    S    
O6    C4    A    
O1    V2    S    
C11   N1    S    
O2    V1    S    
C6    C20   S    
C19   O21   S    
C1    C24   S    
C8    C10   A    
C2    C23   S    
C9    H1    S    
O10   V2    S    
O15   V3    S    
O3    V1    S    
C9    C11   A    
O3    C1    A    
C32   H22   S    
C11   C13   A    
C12   C14   A    
C14   C16   A    
O7    V1    S    
C22   C24   T    
C1    O8    A    
C15   C17   S    
O8    V2    S    
C20   O22   S    
C16   C18   S    
C4    C7    S    
O5    V1    S    
C5    C7    A    
C6    C8    A    
N1    H9    S    
O13   V3    S    
C29   H10   S    
O11   C27   A    
C10   C12   A    
O9    V2    S    
O12   C28   A    
O10   V1    S    
O16   C28   A    
