data_mof_unit_44393.cif
_audit_creation_date              2012-12-10T17:25:22-0500
_audit_creation_method            fapswitch 2.2
_symmetry_space_group_name_H-M    P1
_symmetry_Int_Tables_number       1
_space_group_crystal_system       triclinic
_cell_length_a                    27.766486
_cell_length_b                    10.777643
_cell_length_c                    9.583261
_cell_angle_alpha                 91.650672
_cell_angle_beta                  89.741065
_cell_angle_gamma                 94.879038
_cell_volume                      2856.27687975

loop_
_atom_site_label
_atom_site_type_symbol
_atom_type_description
_atom_site_fract_x
_atom_site_fract_y
_atom_site_fract_z
_atom_type_partial_charge
C1    C     C_R   0.501509 0.261758 0.497781 0.880542
C2    C     C_R   0.278323 0.485395 0.630117 0.135701
C3    C     C_R   0.252933 0.490721 0.504326 0.268614
C4    C     C_R   0.100930 0.477413 0.516006 -0.146685
C5    C     C_R   0.123869 0.367852 0.481334 -0.107556
C6    C     C_R   0.094776 0.256052 0.449432 0.412456
C7    C     C_R   0.128786 0.590853 0.547304 -0.025499
C8    C     C_R   0.354306 0.497470 0.501483 -0.114660
C9    C     C_R   0.645005 0.478385 0.497967 -0.201868
C10   C     C_R   0.971158 0.353633 0.531844 -0.060490
C11   C     C_R   0.976526 0.580572 0.508466 0.007724
C12   C     C_R   0.407430 0.499128 0.500290 0.847043
C13   C     C_R   0.948294 0.465019 0.519548 -0.016250
C14   C     C_R   0.942775 0.243925 0.570005 0.306482
C15   C     C_R   0.891931 0.240336 0.570559 0.387399
C16   C     C_R   0.868568 0.348578 0.539442 -0.173260
C17   C     C_R   0.897262 0.461174 0.516058 -0.098579
C18   C     C_R   0.875052 0.570569 0.487416 -0.073355
C19   C     C_R   0.824643 0.567075 0.483628 0.680192
C20   C     C_R   0.817549 0.350710 0.534173 0.715539
C21   C     C_R   0.721029 0.496305 0.625752 0.393953
C22   C     C_R   0.671351 0.505638 0.621532 -0.237708
C23   C     C_R   0.493215 0.735079 0.502488 0.929605
C24   C     C_R   0.669477 0.432932 0.378563 0.048133
C25   C     C_R   0.719699 0.426065 0.382795 0.414378
C26   C     C_R   0.745528 0.459392 0.505597 0.114824
C27   C     C_R   0.021784 0.358114 0.506968 0.037386
C28   C     C_R   0.049870 0.473442 0.519501 0.032327
C29   C     C_R   0.026839 0.584628 0.535938 0.073764
C30   C     C_R   0.044705 0.252861 0.462200 -0.148518
C31   C     C_R   0.105123 0.697021 0.590529 0.127253
C32   C     C_R   0.953653 0.684863 0.463032 0.410884
C33   C     C_R   0.903494 0.680032 0.457103 -0.117591
C34   C     C_R   0.592337 0.493135 0.499122 0.890417
C35   C     C_R   0.054137 0.692654 0.588064 0.126075
C36   C     C_R   0.545804 0.118860 0.721249 0.212771
C37   C     C_R   0.545318 0.065983 0.854348 0.116046
C38   C     C_R   0.513676 0.960804 0.879555 -0.158684
C39   C     C_R   0.488285 0.898216 0.769647 0.441986
C40   C     C_R   0.495016 0.940776 0.631650 -0.065868
C41   C     C_R   0.514798 0.063482 0.614521 -0.042666
C42   C     C_R   0.501463 0.125464 0.493341 -0.219448
C43   C     C_R   0.478920 0.055287 0.379916 0.308456
C44   C     C_R   0.471984 0.925913 0.386292 0.320658
C45   C     C_R   0.174868 0.375452 0.478818 0.656729
C46   C     C_R   0.483621 0.867278 0.509421 -0.215865
C47   C     C_R   0.570343 0.648436 0.155685 -0.164374
C48   C     C_R   0.613142 0.693947 0.097872 -0.344091
C49   C     C_R   0.619182 0.686854 0.956029 0.127015
C50   C     C_R   0.579509 0.645421 0.870487 0.366680
C51   C     C_R   0.537202 0.572802 0.928377 0.092900
C52   C     C_R   0.535418 0.573034 0.078662 0.184928
C53   C     C_R   0.465919 0.431665 0.071814 0.040857
C54   C     C_R   0.465761 0.432142 0.924095 0.010071
C55   C     C_R   0.179601 0.592701 0.539313 0.661273
C56   C     C_R   0.278262 0.500092 0.377264 0.398620
C57   C     C_R   0.328633 0.503225 0.376198 -0.202316
C58   C     C_R   0.328809 0.489028 0.628255 -0.211361
Cu1   Cu    Cu3+1 0.500000 0.499990 0.640660 1.021230
Cu2   Cu    Cu3+1 0.500000 0.500010 0.359340 1.007042
H1    H     H_    0.347864 0.484415 0.726142 0.188102
H2    H     H_    0.886879 0.761601 0.423723 0.236197
H3    H     H_    0.509205 0.926312 0.984273 0.211531
H4    H     H_    0.437864 0.375729 0.125453 0.172508
H5    H     H_    0.567705 0.671802 0.263207 0.231485
H6    H     H_    0.641260 0.740048 0.163751 0.202505
H7    H     H_    0.437733 0.376209 0.867349 0.139226
H8    H     H_    0.653427 0.534526 0.715731 0.219844
H9    H     H_    0.023632 0.167942 0.430155 0.230852
H10   H     H_    0.347587 0.510213 0.277317 0.205489
N1    N     N_R   0.201096 0.486388 0.506320 -0.460452
N2    N     N_R   0.797202 0.458747 0.507552 -0.441950
N3    N     N_R   0.500460 0.501210 0.147910 -0.189721
N4    N     N_R   0.500480 0.501290 0.852040 -0.182400
O1    O     O_R   0.500000 0.319640 0.618810 -0.585151
O2    O     O_2   0.788102 0.246928 0.554752 -0.426521
O3    O     O_2   0.207702 0.699491 0.563337 -0.444555
O4    O     O_2   0.802994 0.671224 0.456274 -0.471624
O5    O     O_R   0.500000 0.319660 0.381240 -0.543675
O6    O     O_R   0.430260 0.500010 0.618770 -0.574262
O7    O     O_R   0.430270 0.500030 0.381200 -0.574355
O8    O     O_R   0.500000 0.680340 0.618760 -0.499661
O9    O     O_R   0.500000 0.680360 0.381190 -0.575723
O10   O     O_R   0.569730 0.499970 0.618800 -0.558782
O11   O     O_R   0.569740 0.499990 0.381230 -0.629404
O12   O     O_2   0.198564 0.273556 0.450696 -0.425759
Cl1   Cl    Cl    0.247472 0.508704 0.218264 -0.527506
N5    N     N_3   0.132676 0.808401 0.639676 -0.472878
H11   H     H_    0.125151 0.881926 0.576756 0.282519
H12   H     H_    0.122629 0.828774 0.742467 0.236613
Cl2   Cl    Cl    0.985332 0.812370 0.381567 -0.509877
N6    N     N_3   0.644341 0.387823 0.254366 -0.497179
H13   H     H_    0.616183 0.322058 0.281026 0.240610
H14   H     H_    0.630607 0.462252 0.205278 0.257636
Cl3   Cl    Cl    0.750557 0.376204 0.232692 -0.462512
N7    N     N_3   0.029788 0.790413 0.655864 -0.507340
H15   H     H_    0.037984 0.792159 0.762275 0.242126
H16   H     H_    0.042529 0.876139 0.615525 0.291321
Cl4   Cl    Cl    0.458385 0.124180 0.227496 -0.553226
N8    N     N_3   0.580434 0.221167 0.690897 -0.578323
H17   H     H_    0.577124 0.292131 0.766201 0.257987
H18   H     H_    0.615037 0.190921 0.699957 0.237864
N9    N     N_3   0.574961 0.123927 0.964538 -0.563618
H19   H     H_    0.610847 0.109423 0.940541 0.241771
H20   H     H_    0.567115 0.080069 0.058897 0.247083
N10   N     N_3   0.252538 0.475575 0.759585 -0.528214
H21   H     H_    0.261422 0.394535 0.807266 0.256166
H22   H     H_    0.264747 0.551515 0.824157 0.275994
Cl5   Cl    Cl    0.441008 0.786077 0.814119 -0.520990
Cl6   Cl    Cl    0.443972 0.839344 0.243618 -0.482817
N11   N     N_3   0.663997 0.738695 0.897840 -0.481835
H23   H     H_    0.669094 0.832673 0.929129 0.258820
H24   H     H_    0.691970 0.693179 0.940728 0.280464
Cl7   Cl    Cl    0.585004 0.734332 0.718837 -0.612389
Cl8   Cl    Cl    0.117595 0.115622 0.390765 -0.466636
Cl9   Cl    Cl    0.752335 0.531512 0.783027 -0.505643
Cl10  Cl    Cl    0.859347 0.097710 0.613820 -0.362759
Cl11  Cl    Cl    0.969688 0.117776 0.645057 -0.488237

loop_
_geom_bond_atom_site_label_1
_geom_bond_atom_site_label_2
_ccdc_geom_bond_type
C10   C27   A    
C21   C26   A    
Cu2   O5    S    
C23   O8    A    
C45   N1    A    
C26   N2    S    
C41   C42   A    
N11   H23   S    
Cu1   O8    S    
C7    C55   A    
C19   N2    A    
C53   C54   A    
C40   C46   A    
C23   O9    A    
C36   C37   A    
C43   Cl4   S    
C21   Cl9   S    
C5    C6    A    
C55   O3    S    
Cu2   O9    S    
C9    C22   A    
C32   Cl2   S    
N10   H21   S    
C15   C16   A    
Cu2   N3    S    
C56   C57   A    
C20   O2    S    
C18   C19   A    
Cu2   O7    S    
N6    H13   S    
C8    C58   A    
C54   N4    A    
N9    H20   S    
C33   H2    S    
C14   Cl11  S    
N7    H16   S    
C51   N4    A    
C57   H10   S    
C16   C20   A    
C49   N11   S    
C58   H1    S    
Cu1   Cu2   S    
C23   C46   S    
C21   C22   A    
C27   C30   A    
C36   C41   A    
C34   O10   A    
C4    C7    A    
C24   N6    S    
N8    H18   S    
C4    C28   A    
C44   C46   A    
C50   C51   A    
C7    C31   A    
C51   C52   A    
C1    O1    A    
C24   C25   A    
N11   H24   S    
C52   N3    A    
C10   C14   A    
C39   C40   A    
C37   N9    S    
C16   C17   A    
C56   Cl1   S    
C54   H7    S    
C25   C26   A    
C35   N7    S    
C5    C45   A    
C2    N10   S    
C15   Cl10  S    
C50   Cl7   S    
C34   O11   A    
C19   O4    S    
C3    N1    S    
C43   C44   A    
C37   C38   A    
C8    C57   A    
C3    C56   A    
C47   C48   A    
C8    C12   S    
N7    H15   S    
N6    H14   S    
C17   C18   A    
C36   N8    S    
Cu1   O10   S    
Cu1   N4    S    
C22   H8    S    
C40   C41   A    
C6    C30   A    
N5    H12   S    
C11   C32   A    
C25   Cl3   S    
C9    C34   S    
C1    O5    A    
C31   C35   A    
C42   C43   A    
Cu1   O1    S    
N9    H19   S    
C30   H9    S    
C38   H3    S    
C28   C29   A    
C31   N5    S    
C53   N3    A    
C4    C5    A    
C10   C13   A    
Cu1   O6    S    
Cu2   O11   S    
C2    C58   A    
C9    C24   A    
C47   C52   A    
C29   C35   A    
C13   C17   A    
C32   C33   A    
C2    C3    A    
C11   C13   A    
C38   C39   A    
N10   H22   S    
C48   C49   A    
C12   O6    A    
N8    H17   S    
C53   H4    S    
C12   O7    A    
C45   O12   S    
C18   C33   A    
C6    Cl8   S    
C1    C42   S    
C39   Cl5   S    
N5    H11   S    
C11   C29   A    
C49   C50   A    
C27   C28   A    
C14   C15   A    
C20   N2    A    
C48   H6    S    
C47   H5    S    
C55   N1    A    
C44   Cl6   S    
