data_mof_unit_6825.cif
_audit_creation_date              2012-12-10T17:46:27-0500
_audit_creation_method            fapswitch 2.2
_symmetry_space_group_name_H-M    P1
_symmetry_Int_Tables_number       1
_space_group_crystal_system       triclinic
_cell_length_a                    21.222945
_cell_length_b                    21.659495
_cell_length_c                    14.551716
_cell_angle_alpha                 90.00069
_cell_angle_beta                  125.280702
_cell_angle_gamma                 89.994314
_cell_volume                      5460.53375764

loop_
_atom_site_label
_atom_site_type_symbol
_atom_type_description
_atom_site_fract_x
_atom_site_fract_y
_atom_site_fract_z
_atom_type_partial_charge
C1    C     C_R   0.601772 0.913646 0.630806 0.807379
C2    C     C_R   0.640900 0.286899 0.018071 -0.220692
C3    C     C_R   0.717647 0.751565 0.937143 0.077341
C4    C     C_R   0.216770 0.748396 0.937122 0.076385
C5    C     C_R   0.782502 0.251538 0.062890 0.077235
C6    C     C_R   0.786658 0.736267 0.043002 0.073305
C7    C     C_R   0.213945 0.263808 0.957233 0.073705
C8    C     C_R   0.354556 0.736899 0.067466 -0.226209
C9    C     C_R   0.644678 0.262660 0.932998 -0.228175
C10   C     C_R   0.648163 0.724592 0.907033 -0.220980
C11   C     C_R   0.352336 0.275913 0.093381 -0.221747
C12   C     C_R   0.851932 0.224399 0.093097 -0.221554
C13   C     C_R   0.642388 0.696103 0.986594 -0.210531
C14   C     C_R   0.147388 0.775590 0.907128 -0.221638
C15   C     C_R   0.145165 0.237320 0.933074 -0.227448
C16   C     C_R   0.855492 0.762509 0.066867 -0.228056
C17   C     C_R   0.425474 0.831501 0.238724 0.142713
C18   C     C_R   0.488762 0.806831 0.340342 -0.149882
C19   C     C_R   0.562206 0.806735 0.362527 -0.147305
C20   C     C_R   0.572906 0.830285 0.283069 -0.121635
C21   C     C_R   0.510140 0.853748 0.181140 -0.135558
C22   C     C_R   0.437068 0.856113 0.160107 -0.119009
C23   C     C_R   0.573150 0.170027 0.757235 0.140572
C24   C     C_R   0.358051 0.304421 0.013752 -0.211078
C25   C     C_R   0.558743 0.145220 0.832795 -0.116502
C26   C     C_R   0.484500 0.147837 0.807693 -0.134051
C27   C     C_R   0.423458 0.171849 0.704784 -0.123720
C28   C     C_R   0.437007 0.195681 0.628450 -0.147253
C29   C     C_R   0.511567 0.195280 0.654697 -0.154229
C30   C     C_R   0.592275 0.842114 0.796817 0.144079
C31   C     C_R   0.515039 0.829930 0.707718 -0.111036
C32   C     C_R   0.456141 0.838010 0.722713 -0.125122
C33   C     C_R   0.474196 0.852658 0.828847 -0.107525
C34   C     C_R   0.550788 0.863543 0.918387 -0.140053
C35   C     C_R   0.857698 0.195831 0.013590 -0.211102
C36   C     C_R   0.609174 0.860710 0.901584 -0.132957
C37   C     C_R   0.409540 0.159122 0.206346 0.143142
C38   C     C_R   0.394367 0.140791 0.102466 -0.132737
C39   C     C_R   0.454028 0.138142 0.088310 -0.139039
C40   C     C_R   0.530129 0.148831 0.179639 -0.107686
C41   C     C_R   0.546420 0.163304 0.284814 -0.124963
C42   C     C_R   0.486294 0.171293 0.297160 -0.111291
C43   C     C_R   0.908480 0.341591 0.204485 0.143566
C44   C     C_R   0.985489 0.329388 0.294384 -0.110989
C45   C     C_R   0.044971 0.337440 0.280651 -0.124761
C46   C     C_R   0.141734 0.804009 0.986912 -0.211061
C47   C     C_R   0.027761 0.352028 0.174982 -0.107462
C48   C     C_R   0.951400 0.362822 0.084586 -0.139525
C49   C     C_R   0.892398 0.360060 0.100128 -0.132947
C50   C     C_R   0.090220 0.658959 0.793577 0.143250
C51   C     C_R   0.105327 0.640454 0.897338 -0.132708
C52   C     C_R   0.045629 0.637735 0.911405 -0.139208
C53   C     C_R   0.969553 0.648531 0.820082 -0.107500
C54   C     C_R   0.953325 0.663170 0.715002 -0.124546
C55   C     C_R   0.013490 0.671214 0.702760 -0.111241
C56   C     C_R   0.073715 0.330524 0.758711 0.141329
C57   C     C_R   0.141300 0.213161 0.018090 -0.220661
C58   C     C_R   0.011644 0.305343 0.656526 -0.152967
C59   C     C_R   0.937417 0.304986 0.631528 -0.147354
C60   C     C_R   0.924694 0.328819 0.708730 -0.123065
C61   C     C_R   0.986231 0.352776 0.811273 -0.134507
C62   C     C_R   0.060131 0.355332 0.835146 -0.117151
C63   C     C_R   0.926837 0.669842 0.242505 0.140859
C64   C     C_R   0.941050 0.644911 0.166810 -0.116477
C65   C     C_R   0.015208 0.647463 0.191604 -0.134074
C66   C     C_R   0.076362 0.671512 0.294359 -0.123371
C67   C     C_R   0.063008 0.695449 0.370841 -0.147548
C68   C     C_R   0.859243 0.786719 0.981743 -0.220438
C69   C     C_R   0.988530 0.695117 0.344898 -0.154178
C70   C     C_R   0.363820 0.666056 0.796154 0.129858
C71   C     C_R   0.409312 0.612494 0.837257 -0.116486
C72   C     C_R   0.461792 0.599884 0.810923 -0.136238
C73   C     C_R   0.467103 0.639377 0.740024 -0.131208
C74   C     C_R   0.421219 0.692145 0.697274 -0.125116
C75   C     C_R   0.370532 0.706122 0.726451 -0.114814
C76   C     C_R   0.635946 0.334423 0.204317 0.129287
C77   C     C_R   0.629433 0.294927 0.274883 -0.113459
C78   C     C_R   0.578811 0.309379 0.303972 -0.124582
C79   C     C_R   0.326997 0.994851 0.672534 0.033623
C80   C     C_R   0.532807 0.362043 0.260317 -0.131573
C81   C     C_R   0.537912 0.400959 0.188566 -0.136455
C82   C     C_R   0.590321 0.387887 0.162282 -0.117552
C83   C     C_R   0.625331 0.643836 0.155479 0.139847
C84   C     C_R   0.583646 0.590063 0.099924 -0.142817
C85   C     C_R   0.521677 0.572399 0.103180 -0.146879
C86   C     C_R   0.501478 0.607734 0.162638 -0.124859
C87   C     C_R   0.543274 0.660971 0.219066 -0.144113
C88   C     C_R   0.604736 0.679280 0.214996 -0.103426
C89   C     C_R   0.374879 0.356534 0.844507 0.139910
C90   C     C_R   0.672899 0.006110 0.327342 0.033486
C91   C     C_R   0.395535 0.320796 0.785384 -0.104333
C92   C     C_R   0.456860 0.339010 0.780931 -0.144905
C93   C     C_R   0.498563 0.392381 0.836779 -0.124083
C94   C     C_R   0.478324 0.428002 0.895894 -0.147268
C95   C     C_R   0.416414 0.410472 0.899397 -0.142821
C96   C     C_R   0.874776 0.143500 0.844812 0.139989
C97   C     C_R   0.916255 0.089578 0.899943 -0.142690
C98   C     C_R   0.978269 0.071949 0.896765 -0.146931
C99   C     C_R   0.998699 0.107467 0.837778 -0.124447
C100  C     C_R   0.957067 0.160834 0.781712 -0.144581
C101  C     C_R   0.827054 0.505729 0.672596 0.033407
C102  C     C_R   0.895600 0.179128 0.785781 -0.104056
C103  C     C_R   0.125258 0.856311 0.156419 0.139696
C104  C     C_R   0.104597 0.820699 0.215659 -0.103890
C105  C     C_R   0.043184 0.838960 0.219883 -0.144780
C106  C     C_R   0.001424 0.892264 0.163735 -0.123996
C107  C     C_R   0.021710 0.927787 0.104581 -0.147392
C108  C     C_R   0.083687 0.910200 0.101270 -0.143598
C109  C     C_R   0.136157 0.166037 0.204359 0.129701
C110  C     C_R   0.090457 0.112611 0.162630 -0.116796
C111  C     C_R   0.038033 0.099812 0.188991 -0.136445
C112  C     C_R   0.398335 0.086423 0.369336 0.809077
C113  C     C_R   0.172979 0.494709 0.327431 0.033480
C114  C     C_R   0.032984 0.138972 0.260525 -0.131262
C115  C     C_R   0.079072 0.191599 0.303891 -0.124675
C116  C     C_R   0.129711 0.205771 0.274714 -0.114446
C117  C     C_R   0.864046 0.834216 0.795321 0.129409
C118  C     C_R   0.870283 0.794841 0.724346 -0.113287
C119  C     C_R   0.920989 0.809204 0.695379 -0.124688
C120  C     C_R   0.967351 0.861650 0.739559 -0.131255
C121  C     C_R   0.962497 0.900452 0.811679 -0.136586
C122  C     C_R   0.910001 0.887482 0.837838 -0.118234
C123  C     C_R   0.271902 0.992260 0.826259 0.112854
C124  C     C_R   0.356664 0.997197 0.608689 0.076616
C125  C     C_R   0.238245 0.935965 0.824048 -0.170606
C126  C     C_R   0.163633 0.934922 0.797545 -0.128526
C127  C     C_R   0.122645 0.990007 0.774623 -0.119845
C128  C     C_R   0.156656 0.046333 0.779395 -0.133931
C129  C     C_R   0.231521 0.047618 0.806748 -0.170790
C130  C     C_R   0.727915 0.008863 0.173542 0.113062
C131  C     C_R   0.767974 0.953285 0.193374 -0.171127
C132  C     C_R   0.842849 0.954114 0.220731 -0.134561
C133  C     C_R   0.877203 0.010196 0.225237 -0.119825
C134  C     C_R   0.836550 0.065487 0.202033 -0.128294
C135  C     C_R   0.643309 0.003175 0.391257 0.076847
C136  C     C_R   0.761918 0.064905 0.175486 -0.170022
C137  C     C_R   0.772004 0.508591 0.826356 0.112861
C138  C     C_R   0.731799 0.453141 0.806860 -0.170956
C139  C     C_R   0.656889 0.454251 0.779344 -0.134344
C140  C     C_R   0.622638 0.510494 0.774347 -0.119735
C141  C     C_R   0.663436 0.565670 0.797222 -0.128201
C142  C     C_R   0.738113 0.564803 0.823945 -0.170087
C143  C     C_R   0.228035 0.492034 0.173662 0.112631
C144  C     C_R   0.261939 0.435817 0.176141 -0.170115
C145  C     C_R   0.336555 0.434957 0.202650 -0.128364
C146  C     C_R   0.856680 0.503049 0.608714 0.077233
C147  C     C_R   0.377289 0.490145 0.225270 -0.119897
C148  C     C_R   0.343028 0.546392 0.220213 -0.133915
C149  C     C_R   0.268167 0.547493 0.192893 -0.170754
C150  C     C_R   0.143336 0.497193 0.391301 0.076961
C151  C     C_R   0.484258 0.001028 0.771440 0.053861
C152  C     C_R   0.515700 0.999286 0.228571 0.056286
C153  C     C_R   0.984280 0.499134 0.771432 0.054495
C154  C     C_R   0.015719 0.500845 0.228559 0.053853
C155  C     C_R   0.459490 0.000683 0.844064 -0.059618
C156  C     C_R   0.398276 0.913775 0.368823 0.808956
C157  C     C_R   0.540384 0.000343 0.155852 -0.058050
C158  C     C_R   0.959563 0.499944 0.844114 -0.059317
C159  C     C_R   0.040458 0.500318 0.155901 -0.059710
C160  C     C_R   0.378365 0.996878 0.793055 0.039436
C161  C     C_R   0.621493 0.004259 0.206817 0.039317
C162  C     C_R   0.878445 0.503834 0.793127 0.039360
C163  C     C_R   0.121587 0.496578 0.206899 0.039386
C164  C     C_R   0.513202 0.002874 0.965039 0.051848
C165  C     C_R   0.486617 0.998588 0.034848 0.050361
C166  C     C_R   0.013310 0.498053 0.965107 0.050923
C167  C     C_R   0.601713 0.086203 0.631157 0.810502
C168  C     C_R   0.986721 0.502342 0.034915 0.051678
C169  C     C_R   0.406696 0.993308 0.981677 -0.283820
C170  C     C_R   0.593079 0.008549 0.018181 -0.282477
C171  C     C_R   0.906828 0.507899 0.981763 -0.282745
C172  C     C_R   0.093225 0.492713 0.018271 -0.283402
C173  C     C_R   0.353284 0.993949 0.864979 -0.004796
C174  C     C_R   0.646529 0.007598 0.134867 -0.005348
C175  C     C_R   0.853391 0.507066 0.865069 -0.004927
C176  C     C_R   0.146652 0.493530 0.134963 -0.004565
C177  C     C_R   0.662407 0.130678 0.711335 -0.162370
C178  C     C_R   0.101746 0.413812 0.631200 0.809992
C179  C     C_R   0.337525 0.869293 0.288633 -0.162434
C180  C     C_R   0.338737 0.133052 0.294654 -0.161701
C181  C     C_R   0.661572 0.867161 0.705709 -0.161626
C182  C     C_R   0.161147 0.633077 0.705358 -0.161628
C183  C     C_R   0.838546 0.367093 0.294415 -0.161689
C184  C     C_R   0.837653 0.630744 0.288719 -0.162331
C185  C     C_R   0.162528 0.369403 0.711486 -0.162369
C186  C     C_R   0.799256 0.154269 0.826041 -0.007994
C187  C     C_R   0.200639 0.845496 0.174756 -0.007966
C188  C     C_R   0.206568 0.169212 0.206092 -0.008861
C189  C     C_R   0.898302 0.586220 0.368861 0.810330
C190  C     C_R   0.793711 0.830911 0.793770 -0.008747
C191  C     C_R   0.293352 0.669171 0.794279 -0.008756
C192  C     C_R   0.706348 0.331006 0.206051 -0.008780
C193  C     C_R   0.700846 0.654537 0.174175 -0.008070
C194  C     C_R   0.299430 0.345846 0.826006 -0.007997
C195  C     C_R   0.734720 0.129816 0.727839 0.085457
C196  C     C_R   0.265416 0.869798 0.272938 0.086215
C197  C     C_R   0.271757 0.138712 0.294171 0.089347
C198  C     C_R   0.728383 0.861350 0.705733 0.090145
C199  C     C_R   0.228159 0.638806 0.705959 0.089295
C200  C     C_R   0.898277 0.413616 0.369256 0.808276
C201  C     C_R   0.771675 0.361352 0.294218 0.089701
C202  C     C_R   0.765375 0.630014 0.272329 0.085468
C203  C     C_R   0.234789 0.370208 0.727767 0.085751
C204  C     C_R   0.651873 0.167697 0.782639 -0.097287
C205  C     C_R   0.347596 0.832649 0.216447 -0.098704
C206  C     C_R   0.344169 0.168796 0.217048 -0.109898
C207  C     C_R   0.656568 0.831694 0.783971 -0.110384
C208  C     C_R   0.155640 0.668706 0.783013 -0.109718
C209  C     C_R   0.843687 0.331544 0.216351 -0.110115
C210  C     C_R   0.848185 0.667679 0.217328 -0.097379
C211  C     C_R   0.101625 0.586440 0.630634 0.808842
C212  C     C_R   0.152186 0.332528 0.783137 -0.097782
C213  C     C_R   0.717229 0.197082 0.879905 0.021153
C214  C     C_R   0.282157 0.802873 0.120020 0.021243
C215  C     C_R   0.280531 0.206846 0.137117 0.022350
C216  C     C_R   0.720081 0.793381 0.863275 0.022214
C217  C     C_R   0.219261 0.706672 0.863155 0.022358
C218  C     C_R   0.780088 0.293389 0.136743 0.022325
C219  C     C_R   0.782869 0.697131 0.120125 0.021142
C220  C     C_R   0.217610 0.303078 0.880191 0.021204
C221  C     C_R   0.791739 0.183268 0.905955 0.038877
C222  C     C_R   0.358512 0.712807 0.982492 -0.220248
C223  C     C_R   0.207808 0.816568 0.094471 0.038679
C224  C     C_R   0.208996 0.198186 0.121899 0.038807
C225  C     C_R   0.791487 0.801892 0.878119 0.038573
C226  C     C_R   0.290853 0.697997 0.878524 0.038462
C227  C     C_R   0.708636 0.302004 0.121746 0.038729
C228  C     C_R   0.708357 0.683464 0.094188 0.038798
C229  C     C_R   0.292054 0.316902 0.906091 0.038755
C230  C     C_R   0.713484 0.236303 0.956971 0.073499
C231  C     C_R   0.285771 0.763499 0.043092 0.073329
C232  C     C_R   0.282962 0.248670 0.063226 0.076775
Cu1   Cu    Cu3+1 0.526640 0.000000 0.436960 0.944709
Cu2   Cu    Cu3+1 0.473360 1.000000 0.563040 0.944591
Cu3   Cu    Cu3+1 0.026640 0.500000 0.436960 0.944770
Cu4   Cu    Cu3+1 0.973360 0.500000 0.563040 0.944956
H1    H     H_    0.414375 0.700518 0.001853 0.172555
H2    H     H_    0.617128 0.013022 0.970664 0.142780
H3    H     H_    0.361441 0.280889 0.737967 0.117532
H4    H     H_    0.471028 0.312580 0.732248 0.135160
H5    H     H_    0.546287 0.406281 0.833902 0.124081
H6    H     H_    0.510314 0.469454 0.938343 0.104748
H7    H     H_    0.399029 0.439912 0.941236 0.111239
H8    H     H_    0.898757 0.060226 0.941736 0.111315
H9    H     H_    0.010216 0.030515 0.939423 0.104674
H10   H     H_    0.046527 0.093499 0.835197 0.124154
H11   H     H_    0.971408 0.187205 0.733172 0.134631
H12   H     H_    0.861548 0.219015 0.738162 0.117317
H13   H     H_    0.882758 0.512275 0.029265 0.142763
H14   H     H_    0.138722 0.780844 0.263279 0.117709
H15   H     H_    0.028984 0.812626 0.268616 0.134920
H16   H     H_    0.953632 0.906192 0.166435 0.124078
H17   H     H_    0.989693 0.969200 0.061931 0.104824
H18   H     H_    0.101071 0.939548 0.059327 0.111394
H19   H     H_    0.099645 0.078928 0.116663 0.121889
H20   H     H_    0.003458 0.058401 0.157921 0.118891
H21   H     H_    0.994754 0.127860 0.284597 0.115221
H22   H     H_    0.077541 0.219954 0.363640 0.117314
H23   H     H_    0.168135 0.244957 0.313697 0.108133
H24   H     H_    0.117336 0.488549 0.970801 0.142902
H25   H     H_    0.831681 0.755799 0.684800 0.108264
H26   H     H_    0.922390 0.781145 0.635215 0.117574
H27   H     H_    0.005659 0.872900 0.715692 0.115285
H28   H     H_    0.997314 0.941719 0.843411 0.118996
H29   H     H_    0.901003 0.920915 0.884349 0.122240
H30   H     H_    0.269977 0.893132 0.843414 0.127016
H31   H     H_    0.137984 0.891410 0.795564 0.129700
H32   H     H_    0.064820 0.989104 0.753988 0.119763
H33   H     H_    0.125313 0.089059 0.762611 0.121723
H34   H     H_    0.258003 0.091530 0.812416 0.120808
H35   H     H_    0.406277 0.734005 0.151107 0.160087
H36   H     H_    0.741234 0.909559 0.187971 0.120464
H37   H     H_    0.873935 0.911225 0.237734 0.121794
H38   H     H_    0.935044 0.010756 0.245902 0.119678
H39   H     H_    0.862479 0.108797 0.203832 0.129797
H40   H     H_    0.730445 0.107893 0.155891 0.127667
H41   H     H_    0.758445 0.409295 0.812626 0.120629
H42   H     H_    0.625688 0.411453 0.762565 0.121741
H43   H     H_    0.564765 0.511267 0.753544 0.119683
H44   H     H_    0.637573 0.609116 0.794995 0.129564
H45   H     H_    0.769692 0.607709 0.843261 0.127606
H46   H     H_    0.592863 0.265652 0.849576 0.160888
H47   H     H_    0.230401 0.392903 0.156993 0.127429
H48   H     H_    0.362400 0.391504 0.204868 0.129670
H49   H     H_    0.435117 0.489380 0.245900 0.119619
H50   H     H_    0.374171 0.589198 0.236753 0.121711
H51   H     H_    0.241492 0.591342 0.187024 0.120864
H52   H     H_    0.221574 0.027862 0.621862 0.241121
H53   H     H_    0.230827 0.948172 0.632757 0.236936
H54   H     H_    0.768385 0.053658 0.366502 0.236423
H55   H     H_    0.778799 0.974065 0.378428 0.241497
H56   H     H_    0.731211 0.552891 0.632991 0.236613
H57   H     H_    0.596670 0.727345 0.822117 0.154587
H58   H     H_    0.721404 0.473241 0.621815 0.241361
H59   H     H_    0.278410 0.527634 0.378000 0.241211
H60   H     H_    0.269120 0.447948 0.367253 0.236750
H61   H     H_    0.403795 0.273404 0.178359 0.155269
H62   H     H_    0.903396 0.227040 0.178055 0.154946
H63   H     H_    0.095893 0.773112 0.822193 0.155578
H64   H     H_    0.093420 0.234289 0.849553 0.160468
H65   H     H_    0.585070 0.299157 0.998879 0.172325
H66   H     H_    0.907349 0.765458 0.150251 0.161051
H67   H     H_    0.456075 0.998641 0.197994 0.139204
H68   H     H_    0.543921 0.001306 0.802150 0.139593
H69   H     H_    0.956065 0.501142 0.197885 0.139467
H70   H     H_    0.043917 0.498585 0.802049 0.139226
H71   H     H_    0.682115 0.004772 0.481603 0.135819
H72   H     H_    0.317880 0.995595 0.518349 0.135803
H73   H     H_    0.182135 0.495656 0.481655 0.135761
H74   H     H_    0.817886 0.504678 0.518366 0.135700
H75   H     H_    0.481083 0.787993 0.402217 0.099698
H76   H     H_    0.585642 0.682177 0.961623 0.172185
H77   H     H_    0.610611 0.787643 0.440740 0.122425
H78   H     H_    0.629754 0.829996 0.300128 0.116692
H79   H     H_    0.518289 0.870847 0.118937 0.127873
H80   H     H_    0.389138 0.875492 0.081661 0.123244
H81   H     H_    0.605320 0.125323 0.911826 0.122619
H82   H     H_    0.474050 0.130498 0.867417 0.127212
H83   H     H_    0.365717 0.172312 0.684496 0.116913
H84   H     H_    0.389878 0.215029 0.549338 0.124051
H85   H     H_    0.521389 0.214142 0.595029 0.100327
H86   H     H_    0.500560 0.815252 0.626475 0.096937
H87   H     H_    0.414738 0.318532 0.038723 0.172269
H88   H     H_    0.396574 0.831160 0.652655 0.110715
H89   H     H_    0.428757 0.856518 0.841316 0.127306
H90   H     H_    0.564928 0.875108 0.000578 0.133004
H91   H     H_    0.668090 0.870398 0.971501 0.131830
H92   H     H_    0.335870 0.131085 0.031273 0.131569
H93   H     H_    0.441322 0.126827 0.006830 0.133754
H94   H     H_    0.576542 0.145069 0.169243 0.127101
H95   H     H_    0.605582 0.170187 0.356163 0.110326
H96   H     H_    0.499464 0.185755 0.377771 0.096038
H97   H     H_    0.999347 0.314799 0.375326 0.096511
H98   H     H_    0.914421 0.181771 0.038638 0.172210
H99   H     H_    0.104348 0.330581 0.351329 0.110488
H100  H     H_    0.073669 0.355865 0.163510 0.127306
H101  H     H_    0.937962 0.374287 0.002745 0.133384
H102  H     H_    0.833679 0.369760 0.029603 0.131639
H103  H     H_    0.163804 0.630670 0.968520 0.131607
H104  H     H_    0.058289 0.626281 0.992806 0.133727
H105  H     H_    0.923110 0.644716 0.830403 0.127031
H106  H     H_    0.894181 0.670124 0.643648 0.110122
H107  H     H_    0.000373 0.685787 0.622232 0.095944
H108  H     H_    0.020844 0.286436 0.596239 0.100246
H109  H     H_    0.085054 0.818028 0.962118 0.172266
H110  H     H_    0.889928 0.285626 0.552751 0.123539
H111  H     H_    0.867209 0.328394 0.689404 0.116817
H112  H     H_    0.976444 0.370126 0.871679 0.127279
H113  H     H_    0.107089 0.375170 0.913933 0.122860
H114  H     H_    0.894383 0.624984 0.087893 0.122703
H115  H     H_    0.025500 0.630047 0.131760 0.127186
H116  H     H_    0.134034 0.671926 0.314397 0.116978
H117  H     H_    0.110213 0.714858 0.449805 0.123968
H118  H     H_    0.978852 0.714077 0.404656 0.100339
H119  H     H_    0.291413 0.882219 0.430577 0.232935
H120  H     H_    0.085456 0.200856 0.998786 0.172305
H121  H     H_    0.261738 0.947870 0.347367 0.225260
H122  H     H_    0.709528 0.116988 0.570771 0.232877
H123  H     H_    0.738329 0.051429 0.654031 0.224893
H124  H     H_    0.692929 0.876513 0.543115 0.243181
H125  H     H_    0.735561 0.939307 0.633522 0.227800
H126  H     H_    0.306779 0.123331 0.456533 0.243984
H127  H     H_    0.264370 0.060606 0.365860 0.227615
H128  H     H_    0.807069 0.376425 0.456830 0.243687
H129  H     H_    0.764472 0.439268 0.366504 0.227825
H130  H     H_    0.193086 0.623665 0.543520 0.243872
H131  H     H_    0.915076 0.798934 0.000894 0.172201
H132  H     H_    0.235627 0.560881 0.633955 0.227589
H133  H     H_    0.209353 0.382850 0.570508 0.232895
H134  H     H_    0.238289 0.448482 0.653601 0.224946
H135  H     H_    0.790654 0.617194 0.429454 0.232732
H136  H     H_    0.761667 0.551654 0.346122 0.225025
H137  H     H_    0.399935 0.578593 0.882712 0.121527
H138  H     H_    0.496196 0.558368 0.841486 0.118882
H139  H     H_    0.505389 0.628424 0.715976 0.115130
H140  H     H_    0.422940 0.720773 0.637980 0.117293
H141  H     H_    0.332269 0.745439 0.687933 0.108238
H142  H     H_    0.382564 0.989313 0.029139 0.143235
H143  H     H_    0.667797 0.255717 0.314089 0.108284
H144  H     H_    0.577235 0.281234 0.363891 0.117732
H145  H     H_    0.494602 0.373372 0.284336 0.115333
H146  H     H_    0.503393 0.442397 0.157270 0.119134
H147  H     H_    0.599543 0.421391 0.116108 0.122104
H148  H     H_    0.600972 0.560830 0.057770 0.111436
H149  H     H_    0.489612 0.531055 0.060271 0.104641
H150  H     H_    0.453687 0.593733 0.165280 0.124087
H151  H     H_    0.529067 0.687211 0.267900 0.133655
H152  H     H_    0.638971 0.719012 0.263009 0.116913
N1    N     N_R   0.433280 0.000000 0.657760 -0.206428
N2    N     N_3   0.235839 0.608644 0.624853 -0.577197
N3    N     N_3   0.246511 0.401144 0.651418 -0.577048
N4    N     N_3   0.753514 0.598992 0.348465 -0.577136
N5    N     N_3   0.244914 0.988853 0.610046 -0.607014
N6    N     N_3   0.754892 0.012857 0.389746 -0.607143
N7    N     N_3   0.745015 0.512107 0.610137 -0.607211
N8    N     N_3   0.255059 0.488669 0.389903 -0.607159
N9    N     N_R   0.566720 0.000000 0.342240 -0.206530
N10   N     N_R   0.933280 0.500000 0.657760 -0.206206
N11   N     N_R   0.066720 0.500000 0.342240 -0.206272
N12   N     N_3   0.253909 0.900477 0.349711 -0.577239
N13   N     N_3   0.746592 0.098749 0.651749 -0.576868
N14   N     N_3   0.735784 0.891548 0.624387 -0.577239
N15   N     N_3   0.264090 0.108351 0.375137 -0.577213
N16   N     N_3   0.764243 0.391503 0.375570 -0.577262
O1    O     O_R   0.600040 0.935040 0.546740 -0.597992
O2    O     O_R   0.444990 0.064930 0.346780 -0.578208
O3    O     O_R   0.444990 0.935070 0.346780 -0.570195
O4    O     O_R   0.555010 0.064930 0.653220 -0.569947
O5    O     O_R   0.055010 0.435070 0.653220 -0.570080
O6    O     O_R   0.944990 0.564930 0.346780 -0.569990
O7    O     O_R   0.944990 0.435070 0.346780 -0.578453
O8    O     O_R   0.055010 0.564930 0.653220 -0.578200
O9    O     O_R   0.399960 0.064960 0.453260 -0.597417
O10   O     O_R   0.399960 0.935040 0.453260 -0.610044
O11   O     O_R   0.600040 0.064960 0.546740 -0.610096
O12   O     O_R   0.100040 0.435040 0.546740 -0.610121
O13   O     O_R   0.899960 0.564960 0.453260 -0.610113
O14   O     O_R   0.899960 0.435040 0.453260 -0.597621
O15   O     O_R   0.100040 0.564960 0.546740 -0.597589
O16   O     O_R   0.555010 0.935070 0.653220 -0.578488

loop_
_geom_bond_atom_site_label_1
_geom_bond_atom_site_label_2
_ccdc_geom_bond_type
C150  N11   A    
C126  C127  A    
C77   H143  S    
C96   C102  A    
C190  C225  A    
C37   C206  S    
C19   C20   A    
C114  C115  A    
C45   H99   S    
C200  O7    A    
C25   H81   S    
C130  C174  S    
C158  C166  A    
C27   H83   S    
C29   H85   S    
C28   H84   S    
C181  C207  A    
C8    H35   S    
C35   C221  A    
H122  N13   S    
H121  N12   S    
C112  O2    A    
C106  C107  A    
C146  H74   S    
C20   H78   S    
C143  C144  A    
C73   C74   A    
C106  H16   S    
C37   C42   A    
C110  C111  A    
Cu2   O10   S    
H134  N3    S    
C151  C155  A    
C217  C226  A    
C7    C15   A    
C83   C88   A    
C170  H2    S    
C59   C60   A    
C148  H50   S    
C21   C22   A    
C149  H51   S    
C214  C231  A    
C104  C105  A    
Cu3   O15   S    
C7    C232  A    
C39   H93   S    
C165  C169  A    
C104  H14   S    
C67   H117  S    
C51   C52   A    
C183  C201  A    
C135  N9    A    
C103  C187  S    
C140  C141  A    
C1    O16   A    
C5    C12   A    
C24   C229  A    
C79   C160  A    
C1    C181  S    
C72   C73   A    
C212  C220  A    
C43   C44   A    
C37   C38   A    
Cu1   O1    S    
Cu4   O13   S    
C186  C195  A    
C177  C204  A    
C148  C149  A    
C99   H10   S    
C10   H57   S    
C186  C221  A    
C205  C214  A    
C56   C62   A    
C63   C210  S    
C76   C82   A    
C39   C40   A    
C170  C174  A    
C208  C217  A    
C152  C157  A    
C164  C165  A    
C177  C195  A    
C182  C199  A    
C216  C225  A    
C144  C145  A    
C139  C140  A    
C78   H144  S    
C171  H13   S    
C30   C36   A    
C130  C131  A    
H52   N5    S    
C100  H11   S    
C64   C65   A    
C161  C174  A    
C189  O13   A    
C30   C207  S    
C207  C216  A    
Cu3   O12   S    
C182  C208  A    
C4    C14   A    
C43   C209  S    
C112  O9    A    
C6    C16   A    
C143  C149  A    
C20   C21   A    
C98   C99   A    
C88   H152  S    
Cu2   N1    S    
C59   H110  S    
C50   C208  S    
C137  C142  A    
C179  C205  A    
C166  C172  A    
C41   H95   S    
C160  C173  A    
C164  C170  A    
C147  C148  A    
C3    C6    A    
C128  C129  A    
C97   C98   A    
C85   C86   A    
C220  C229  A    
C23   C29   A    
C137  C175  S    
H55   N6    S    
C38   C39   A    
Cu1   O3    S    
C78   C80   A    
Cu2   O4    S    
H135  N4    S    
C115  C116  A    
C146  N10   A    
C66   H116  S    
C60   H111  S    
C153  C158  A    
C182  C211  S    
C75   H141  S    
C168  C171  A    
C131  H36   S    
C31   C32   A    
C107  C108  A    
C211  O8    A    
C219  C228  A    
C89   C91   A    
Cu1   Cu2   S    
Cu4   O8    S    
C112  C180  S    
C66   C67   A    
C26   H82   S    
C166  C168  A    
C134  H39   S    
C213  C221  A    
C11   H61   S    
C215  C232  A    
C157  C165  A    
C91   C92   A    
C211  O15   A    
C153  H70   S    
C162  C175  A    
C167  O11   A    
C25   C26   A    
C210  C219  A    
C9    C230  A    
C83   C193  S    
C31   H86   S    
C117  C122  A    
C76   C192  S    
C113  C163  A    
C83   C84   A    
Cu3   Cu4   S    
C120  H27   S    
C144  H47   S    
C17   C18   A    
C12   C35   A    
C116  H23   S    
C7    C220  A    
C44   H97   S    
C124  H72   S    
H129  N16   S    
C80   H145  S    
C8    C222  A    
C120  C121  A    
C52   H104  S    
C54   C55   A    
C92   H4    S    
C85   H149  S    
C132  H37   S    
C113  C150  A    
H132  N2    S    
H126  N15   S    
C169  H142  S    
C79   C124  A    
C222  H1    S    
C183  C200  S    
C36   H91   S    
C33   H89   S    
C23   C204  S    
C32   H88   S    
C69   H118  S    
C17   C205  S    
C154  C159  A    
C93   H5    S    
C117  C118  A    
C97   H8    S    
C90   C135  A    
C118  H25   S    
C187  C223  A    
H125  N14   S    
H60   N8    S    
C56   C58   A    
C9    H46   S    
C34   C36   A    
C61   C62   A    
C114  H21   S    
C214  C223  A    
C213  C230  A    
C63   C64   A    
C147  H49   S    
H133  N3    S    
C70   C75   A    
C169  C173  A    
C5    C230  A    
C57   H120  S    
C68   H131  S    
C172  C176  A    
H128  N16   S    
C206  C215  A    
C87   C88   A    
C187  C196  A    
C41   C42   A    
C215  C224  A    
C113  N8    S    
C14   C46   A    
C77   C78   A    
C52   C53   A    
C26   C27   A    
C11   C232  A    
C28   C29   A    
C121  H28   S    
C30   C31   A    
C8    C231  A    
C181  C198  A    
C123  C125  A    
C119  H26   S    
C151  N1    A    
C51   H103  S    
C107  H17   S    
C18   C19   A    
C129  H34   S    
C109  C116  A    
C178  O12   A    
H59   N8    S    
Cu4   O14   S    
C167  O4    A    
C192  C227  A    
H53   N5    S    
C58   H108  S    
C2    C227  A    
C192  C201  A    
C70   C71   A    
C17   C22   A    
C35   H98   S    
C152  N9    A    
C108  H18   S    
C156  O10   A    
C55   H107  S    
C194  C229  A    
C143  C176  S    
C145  C147  A    
C40   H94   S    
C70   C191  S    
C179  C196  A    
C197  N15   S    
C130  C136  A    
C82   H147  S    
C127  H32   S    
C4    C231  A    
C96   C186  S    
C84   C85   A    
C68   C225  A    
C53   H105  S    
C3    C216  A    
C53   C54   A    
C10   C13   A    
C193  C202  A    
C60   C61   A    
C84   H148  S    
C73   H139  S    
H124  N14   S    
C81   H146  S    
Cu2   O9    S    
C5    C218  A    
C65   H115  S    
C110  H19   S    
C50   C51   A    
C101  N7    S    
C101  C162  A    
C121  C122  A    
C124  N1    A    
C98   H9    S    
C48   C49   A    
C167  C177  S    
C15   H64   S    
C21   H79   S    
C191  C226  A    
C22   H80   S    
C125  C126  A    
Cu3   O6    S    
C131  C132  A    
C157  C161  A    
C218  C227  A    
C44   C45   A    
C190  C198  A    
C154  H69   S    
C111  H20   S    
C200  O14   A    
C12   H62   S    
C24   H87   S    
C86   C87   A    
C141  H44   S    
C119  C120  A    
C184  C210  A    
C105  C106  A    
C123  C173  S    
C153  N10   A    
C32   C33   A    
C185  C203  A    
C199  N2    S    
Cu4   N10   S    
C58   C59   A    
C109  C110  A    
Cu1   O2    S    
C188  C197  A    
C89   C194  S    
C92   C93   A    
C111  C114  A    
C65   C66   A    
C2    H65   S    
C94   C95   A    
C138  C139  A    
C46   C223  A    
C71   C72   A    
C103  C104  A    
C86   H150  S    
Cu4   O5    S    
C57   C224  A    
C202  N4    S    
C49   H102  S    
C195  N13   S    
C89   C95   A    
C93   C94   A    
C198  N14   S    
Cu2   O16   S    
C125  H30   S    
C128  H33   S    
C139  H42   S    
C13   C228  A    
C81   C82   A    
C135  H71   S    
C18   H75   S    
C209  C218  A    
C79   N5    S    
C191  C199  A    
C56   C212  S    
C142  H45   S    
C156  C179  S    
C222  C226  A    
C201  N16   S    
C11   C24   A    
C159  C168  A    
C45   C47   A    
C118  C119  A    
C180  C197  A    
C178  C185  S    
C132  C133  A    
H58   N7    S    
C103  C108  A    
C16   C68   A    
C172  H24   S    
C74   H140  S    
C42   H96   S    
C64   H114  S    
C123  C129  A    
C15   C57   A    
C140  H43   S    
C136  H40   S    
C180  C206  A    
C163  C176  A    
C38   H92   S    
C109  C188  S    
C101  C146  A    
C184  C202  A    
C74   C75   A    
C90   C161  A    
Cu3   N11   S    
C154  N11   A    
C47   C48   A    
C63   C69   A    
H119  N12   S    
C102  H12   S    
C76   C77   A    
C105  H15   S    
C62   H113  S    
C72   H138  S    
C71   H137  S    
C43   C49   A    
C134  C136  A    
C171  C175  A    
C204  C213  A    
H54   N6    S    
C14   H63   S    
C67   C69   A    
H127  N15   S    
C99   C100  A    
C96   C97   A    
C100  C102  A    
C33   C34   A    
C185  C212  A    
C46   H109  S    
C19   H77   S    
Cu1   O11   S    
C188  C224  A    
C40   C41   A    
C196  N12   S    
C150  H73   S    
C138  H41   S    
C159  C163  A    
C126  H31   S    
H130  N2    S    
C91   H3    S    
C48   H101  S    
H123  N13   S    
C156  O3    A    
C87   H151  S    
C133  H38   S    
C155  C160  A    
Cu3   O7    S    
C193  C228  A    
C80   C81   A    
C115  H22   S    
C1    O1    A    
H136  N4    S    
C155  C164  A    
C183  C209  A    
C137  C138  A    
C34   H90   S    
C50   C55   A    
C61   H112  S    
C13   H76   S    
C189  O6    A    
C94   H6    S    
C3    C10   A    
C141  C142  A    
C2    C9    A    
C133  C134  A    
C47   H100  S    
C194  C203  A    
C90   N6    S    
C23   C25   A    
Cu1   N9    S    
H56   N7    S    
C203  N3    S    
C117  C190  S    
C158  C162  A    
C178  O5    A    
C6    C219  A    
C4    C217  A    
C152  H67   S    
C16   H66   S    
C27   C28   A    
C54   H106  S    
C184  C189  S    
C151  H68   S    
C145  H48   S    
C127  C128  A    
C122  H29   S    
C95   H7    S    
