data_mof_unit_53824.cif
_audit_creation_date              2012-12-10T17:41:00-0500
_audit_creation_method            fapswitch 2.2
_symmetry_space_group_name_H-M    P1
_symmetry_Int_Tables_number       1
_space_group_crystal_system       triclinic
_cell_length_a                    14.949942
_cell_length_b                    15.323271
_cell_length_c                    10.037707
_cell_angle_alpha                 88.197711
_cell_angle_beta                  93.419876
_cell_angle_gamma                 89.399713
_cell_volume                      2294.05188016

loop_
_atom_site_label
_atom_site_type_symbol
_atom_type_description
_atom_site_fract_x
_atom_site_fract_y
_atom_site_fract_z
_atom_type_partial_charge
Br1   Br    Br    0.193168 0.046893 0.461007 -0.370567
Br2   Br    Br    0.019490 0.252263 0.721506 -0.428407
Br3   Br    Br    0.349816 0.785660 0.206571 -0.399432
Br4   Br    Br    0.694870 0.546847 0.487262 -0.451437
Br5   Br    Br    0.850677 0.282184 0.209816 -0.424945
Br6   Br    Br    0.145785 0.023557 0.791292 -0.356390
Br7   Br    Br    0.651895 0.445170 0.793700 -0.394352
Br8   Br    Br    0.497426 0.265292 0.338377 -0.427948
Br9   Br    Br    0.508819 0.742959 0.718440 -0.417495
Br10  Br    Br    0.994022 0.767698 0.330443 -0.401441
C1    C     C_R   0.390776 0.872010 0.500145 1.005353
C2    C     C_R   0.749275 0.184445 0.385930 0.446575
C3    C     C_R   0.161816 0.229050 0.472694 0.452604
C4    C     C_R   0.231351 0.706071 0.381578 0.408468
C5    C     C_R   0.687801 0.815671 0.510344 -0.096119
C6    C     C_R   0.713118 0.159199 0.507568 -0.251132
C7    C     C_R   0.185995 0.314118 0.509377 -0.168836
C8    C     C_R   0.193161 0.684188 0.503742 -0.204178
C9    C     C_R   0.331520 0.013538 0.114346 0.445472
C10   C     C_R   0.831487 0.489157 0.115787 0.460527
C11   C     C_R   0.253821 0.025780 0.031272 -0.268368
C12   C     C_R   0.383759 0.123030 0.495837 1.004431
C13   C     C_R   0.755045 0.471030 0.034098 -0.261583
C14   C     C_R   0.256286 0.020853 0.896341 0.264649
C15   C     C_R   0.758663 0.468984 0.898962 0.267339
C16   C     C_R   0.337470 0.008498 0.840870 -0.199114
C17   C     C_R   0.838346 0.486700 0.842014 -0.191405
C18   C     C_R   0.419598 0.006347 0.918599 0.054634
C19   C     C_R   0.919774 0.494207 0.919312 0.037566
C20   C     C_R   0.418537 0.007681 0.062353 0.125003
C21   C     C_R   0.918450 0.494972 0.063030 0.123526
C22   C     C_R   0.576353 0.991021 0.078553 -0.006298
C23   C     C_R   0.889559 0.371869 0.500686 0.956346
C24   C     C_R   0.076667 0.503893 0.077807 -0.002131
C25   C     C_R   0.628188 0.111174 0.502676 0.878891
C26   C     C_R   0.620026 0.880971 0.503582 0.935781
C27   C     C_R   0.120505 0.620645 0.501440 0.899405
C28   C     C_R   0.119183 0.380267 0.503368 0.854389
C29   C     C_R   0.576186 0.990488 0.936623 -0.042352
C30   C     C_R   0.076585 0.504171 0.935692 -0.041711
C31   C     C_R   0.429456 0.311242 0.477665 0.085438
C32   C     C_R   0.381763 0.739610 0.735695 0.199247
C33   C     C_R   0.930889 0.809881 0.477169 0.051887
C34   C     C_R   0.883859 0.623124 0.495875 0.994176
C35   C     C_R   0.894113 0.241168 0.740125 0.171403
C36   C     C_R   0.454588 0.393997 0.523872 0.388842
C37   C     C_R   0.351247 0.706866 0.857777 0.362697
C38   C     C_R   0.958066 0.891018 0.527091 0.391694
C39   C     C_R   0.874111 0.201446 0.862891 0.374157
C40   C     C_R   0.893282 0.948467 0.573059 0.485789
C41   C     C_R   0.801177 0.145340 0.867137 0.482552
C42   C     C_R   0.389418 0.449695 0.572718 0.461501
C43   C     C_R   0.259645 0.689202 0.866402 0.448339
C44   C     C_R   0.803689 0.923743 0.568004 -0.276772
C45   C     C_R   0.228254 0.166373 0.473704 0.271307
C46   C     C_R   0.750109 0.130637 0.750333 -0.182963
C47   C     C_R   0.300564 0.423239 0.569575 -0.257179
C48   C     C_R   0.202395 0.696585 0.752385 -0.209053
C49   C     C_R   0.778039 0.839714 0.528398 -0.104711
C50   C     C_R   0.762413 0.177599 0.629112 -0.020677
C51   C     C_R   0.276066 0.338864 0.529110 -0.064621
C52   C     C_R   0.236420 0.711020 0.625723 -0.087201
C53   C     C_R   0.342617 0.279348 0.498075 -0.052034
C54   C     C_R   0.321066 0.748863 0.621290 -0.030569
C55   C     C_R   0.843601 0.779433 0.496861 -0.045899
C56   C     C_R   0.303449 0.760889 0.378991 0.249304
C57   C     C_R   0.833032 0.238283 0.625690 -0.005220
C58   C     C_R   0.317976 0.191180 0.484131 -0.217699
C59   C     C_R   0.342521 0.790083 0.499668 -0.185170
C60   C     C_R   0.818138 0.691440 0.484361 -0.151465
C61   C     C_R   0.844552 0.286428 0.503385 -0.242030
C62   C     C_R   0.728108 0.667182 0.477426 0.141868
C63   C     C_R   0.810714 0.250876 0.383070 0.273249
C64   C     C_R   0.662347 0.731794 0.474421 0.443658
H1    H     H_    0.332207 0.998906 0.736957 0.246276
H2    H     H_    0.139861 0.506468 0.135634 0.147403
H3    H     H_    0.189334 0.032988 0.074009 0.221720
H4    H     H_    0.690414 0.462694 0.076059 0.207793
H5    H     H_    0.581744 0.373506 0.507431 0.383898
H6    H     H_    0.461906 0.726876 0.964414 0.383997
H7    H     H_    0.084791 0.865224 0.514966 0.367218
H8    H     H_    0.965382 0.261541 0.969135 0.374163
H9    H     H_    0.977949 0.042459 0.606859 0.436229
H10   H     H_    0.825566 0.110569 0.054947 0.421880
H11   H     H_    0.473768 0.542571 0.615571 0.427064
H12   H     H_    0.832556 0.494857 0.737063 0.256933
H13   H     H_    0.273404 0.638960 0.045895 0.397274
H14   H     H_    0.568049 0.659638 0.393731 0.389282
H15   H     H_    0.730718 0.081102 0.286006 0.331967
H16   H     H_    0.034120 0.254746 0.427696 0.344575
H17   H     H_    0.225075 0.615129 0.259419 0.326298
H18   H     H_    0.262678 0.967424 0.253873 0.364652
H19   H     H_    0.760395 0.479343 0.269335 0.360737
H20   H     H_    0.638806 0.980613 0.890815 0.156351
H21   H     H_    0.139720 0.507332 0.888519 0.162165
H22   H     H_    0.754477 0.970608 0.596472 0.152499
H23   H     H_    0.707317 0.075497 0.756710 0.187049
H24   H     H_    0.251094 0.469593 0.599584 0.179875
H25   H     H_    0.131905 0.688688 0.765914 0.221331
H26   H     H_    0.639261 0.983249 0.136865 0.158811
N1    N     N_R   0.498810 0.000000 0.142780 -0.098878
N2    N     N_R   0.998810 0.500000 0.142780 -0.096586
N3    N     N_R   0.498740 0.000000 0.857170 -0.112293
N4    N     N_R   0.998740 0.500000 0.857170 -0.110880
O1    O     O_R   0.408390 0.908380 0.614690 -0.640837
O2    O     O_R   0.591620 0.908390 0.614640 -0.613479
O3    O     O_R   0.091620 0.591610 0.614640 -0.653104
O4    O     O_R   0.091620 0.408390 0.614640 -0.581524
O5    O     O_R   0.591610 0.091610 0.385310 -0.562571
O6    O     O_R   0.591610 0.908390 0.385310 -0.624813
O7    O     O_R   0.091610 0.591610 0.385310 -0.557586
O8    O     O_R   0.091610 0.408390 0.385310 -0.635498
O9    O     O_3   0.540429 0.423977 0.513869 -0.686033
O10   O     O_3   0.408974 0.688931 0.967982 -0.708086
O11   O     O_3   0.045966 0.917019 0.525891 -0.681971
O12   O     O_R   0.408390 0.091620 0.614690 -0.637288
O13   O     O_3   0.932571 0.205751 0.974092 -0.689745
O14   O     O_3   0.913713 0.030811 0.616894 -0.735260
O15   O     O_3   0.782411 0.096778 0.980237 -0.740435
O16   O     O_3   0.408573 0.532281 0.616983 -0.731496
O17   O     O_3   0.224010 0.660063 0.982831 -0.717653
O18   O     O_3   0.573123 0.715485 0.440266 -0.715071
O19   O     O_3   0.725784 0.145032 0.267602 -0.673920
O20   O     O_3   0.074934 0.203678 0.438621 -0.669110
O21   O     O_3   0.198668 0.674696 0.262156 -0.645286
O22   O     O_3   0.318353 0.001455 0.245189 -0.677180
O23   O     O_R   0.908390 0.408380 0.614690 -0.623716
O24   O     O_3   0.817757 0.505373 0.244775 -0.678100
O25   O     O_R   0.908390 0.591620 0.614690 -0.641654
O26   O     O_R   0.408370 0.908380 0.385360 -0.528197
O27   O     O_R   0.408370 0.091620 0.385360 -0.511907
O28   O     O_R   0.908370 0.408380 0.385360 -0.543774
O29   O     O_R   0.908370 0.591620 0.385360 -0.504343
O30   O     O_R   0.591620 0.091610 0.614640 -0.635964
Zn1   Zn    Zn3+2 0.500010 1.000000 0.653130 0.982448
Zn2   Zn    Zn3+2 0.000010 0.500000 0.653130 0.980581
Zn3   Zn    Zn3+2 0.499980 0.000000 0.346870 1.072090
Zn4   Zn    Zn3+2 0.999980 0.500000 0.346870 1.062518

loop_
_geom_bond_atom_site_label_1
_geom_bond_atom_site_label_2
_ccdc_geom_bond_type
C48   C52   A    
C37   O10   S    
C29   N3    A    
C12   O27   A    
C17   C19   A    
C4    C8    A    
C37   C43   A    
C45   C58   A    
O12   Zn1   S    
Br9   C32   S    
C24   N2    A    
C4    O21   S    
C24   C30   A    
H9    O14   S    
C9    C11   A    
C8    C27   S    
C14   C16   A    
C10   O24   S    
C6    C25   S    
N2    Zn4   S    
C56   C59   A    
O28   Zn4   S    
C55   C60   A    
C36   C42   A    
C23   O23   A    
O5    Zn3   S    
C41   C46   A    
C6    C50   A    
C22   C29   A    
C51   C53   A    
N3    Zn1   S    
C52   C54   A    
C7    C51   A    
C39   O13   S    
C2    C6    A    
C50   C57   A    
C39   C41   A    
C35   C57   A    
C41   O15   S    
C31   C36   A    
C34   C60   S    
N4    Zn2   S    
C33   C38   A    
C44   H22   S    
C25   O5    A    
O1    Zn1   S    
C38   C40   A    
O29   Zn4   S    
C2    C63   A    
Br5   C63   S    
H16   O20   S    
C46   H23   S    
C25   O30   A    
C44   C49   A    
Br2   C35   S    
C26   O2    A    
C21   N2    A    
O8    Zn4   S    
Br8   C31   S    
H14   O18   S    
C61   C63   A    
C3    O20   S    
N1    Zn3   S    
C8    C52   A    
H15   O19   S    
C34   O25   A    
C46   C50   A    
C19   N4    A    
C17   H12   S    
C29   H20   S    
C1    O1    A    
O3    Zn2   S    
O27   Zn3   S    
C30   N4    A    
O25   Zn2   S    
C10   C13   A    
C35   C39   A    
C33   C55   A    
Br6   C14   S    
H7    O11   S    
C16   H1    S    
C4    C56   A    
C40   C44   A    
C54   C59   A    
O23   Zn2   S    
C47   C51   A    
C12   C58   S    
C38   O11   S    
C42   O16   S    
C23   O28   A    
C62   C64   A    
O2    Zn1   S    
C64   O18   S    
H6    O10   S    
H5    O9    S    
C26   O6    A    
Br3   C56   S    
C31   C53   A    
C30   H21   S    
C28   O8    A    
C1    O26   A    
C32   C54   A    
C5    C26   S    
Br4   C62   S    
H13   O17   S    
C34   O29   A    
C53   C58   A    
H17   O21   S    
C36   O9    S    
Br10  C33   S    
C40   O14   S    
C5    C49   A    
O6    Zn3   S    
C48   H25   S    
H18   O22   S    
C43   C48   A    
C1    C59   S    
C27   O3    A    
O30   Zn1   S    
C15   C17   A    
C9    O22   S    
C16   C18   A    
Br7   C15   S    
O4    Zn2   S    
C3    C7    A    
C18   C20   A    
Br1   C45   S    
H19   O24   S    
C19   C21   A    
C43   O17   S    
C49   C55   A    
O26   Zn3   S    
C18   N3    A    
C2    O19   S    
H10   O15   S    
C47   H24   S    
C20   N1    A    
C12   O12   A    
C57   C61   A    
C32   C37   A    
C13   C15   A    
C13   H4    S    
C28   O4    A    
C27   O7    A    
C42   C47   A    
C23   C61   S    
H11   O16   S    
C22   H26   S    
C5    C64   A    
C7    C28   S    
C11   C14   A    
C11   H3    S    
C22   N1    A    
C60   C62   A    
H8    O13   S    
C9    C20   A    
O7    Zn4   S    
C24   H2    S    
C3    C45   A    
C10   C21   A    
