data_mof_unit_21059.cif
_audit_creation_date              2012-12-10T17:22:42-0500
_audit_creation_method            fapswitch 2.2
_symmetry_space_group_name_H-M    P1
_symmetry_Int_Tables_number       1
_space_group_crystal_system       triclinic
_cell_length_a                    10.624338
_cell_length_b                    10.862471
_cell_length_c                    9.588787
_cell_angle_alpha                 90.552504
_cell_angle_beta                  89.818795
_cell_angle_gamma                 92.646275
_cell_volume                      1105.37338886

loop_
_atom_site_label
_atom_site_type_symbol
_atom_type_description
_atom_site_fract_x
_atom_site_fract_y
_atom_site_fract_z
_atom_type_partial_charge
C1    C     C_R   0.510175 0.263203 0.500063 0.802106
C2    C     C_R   0.538433 0.066339 0.629389 0.096273
C3    C     C_R   0.522082 0.129526 0.502248 -0.130485
C4    C     C_R   0.259357 0.499779 0.500279 0.795970
C5    C     C_R   0.499675 0.062676 0.378712 -0.204306
C6    C     C_R   0.489105 0.935462 0.380718 -0.224161
C7    C     C_R   0.489298 0.872477 0.507562 -0.113584
C8    C     C_R   0.668417 0.663322 0.145101 -0.136756
C9    C     C_R   0.750922 0.742830 0.073312 -0.222724
C10   C     C_R   0.750898 0.742725 0.929632 -0.200812
C11   C     C_R   0.668195 0.663278 0.856930 -0.118394
C12   C     C_3   0.959867 0.502944 0.367332 -0.133908
C13   C     C_R   0.582580 0.580335 0.925737 0.177600
C14   C     C_R   0.582614 0.580327 0.075289 0.118533
C15   C     C_R   0.421324 0.422468 0.073994 0.499256
C16   C     C_R   0.493571 0.737656 0.501781 0.768582
C17   C     C_R   0.421864 0.423123 0.924949 -0.182322
C18   C     C_R   0.740602 0.500589 0.499736 0.750157
C19   C     C_3   0.039921 0.498174 0.632741 -0.130806
C20   C     C_3   0.952609 0.398243 0.562490 -0.175054
C21   C     C_3   0.877531 0.500798 0.499049 0.030758
C22   C     C_3   0.962534 0.600754 0.569173 -0.174066
C23   C     C_3   0.037217 0.400342 0.430898 -0.154371
C24   C     C_3   0.047204 0.602860 0.437591 -0.174706
C25   C     C_3   0.122318 0.500247 0.501015 0.017168
C26   C     C_R   0.588783 0.124463 0.751380 -0.164740
C27   C     C_R   0.577157 0.067475 0.880541 -0.154909
C28   C     C_R   0.515286 0.952560 0.890201 -0.141124
C29   C     C_R   0.476867 0.889387 0.769281 -0.169287
C30   C     C_R   0.500910 0.940431 0.635454 0.094843
Cu1   Cu    Cu3+1 0.499990 0.499990 0.640660 0.918608
Cu2   Cu    Cu3+1 0.500010 0.500010 0.359340 0.971019
H1    H     H_    0.910602 0.314628 0.613485 0.124020
H2    H     H_    0.075200 0.496205 0.741536 0.138626
H3    H     H_    0.928661 0.682604 0.625721 0.119157
H4    H     H_    0.089042 0.686525 0.386576 0.128314
H5    H     H_    0.924423 0.505113 0.258600 0.144622
H6    H     H_    0.070932 0.318422 0.374377 0.143069
H7    H     H_    0.489945 0.108637 0.279797 0.178847
H8    H     H_    0.612741 0.114176 0.973608 0.136628
H9    H     H_    0.290033 0.292077 0.079134 0.284692
H10   H     H_    0.639371 0.213036 0.748328 0.158580
H11   H     H_    0.499290 0.910998 0.991296 0.139380
H12   H     H_    0.424199 0.803321 0.784242 0.169437
H13   H     H_    0.478327 0.886482 0.282198 0.164635
H14   H     H_    0.676499 0.671223 0.255051 0.200202
H15   H     H_    0.815272 0.805157 0.129923 0.146762
H16   H     H_    0.814917 0.805238 0.873739 0.145012
H17   H     H_    0.675020 0.671941 0.747081 0.196642
H18   H     H_    0.358452 0.360652 0.867480 0.145298
N1    N     N_R   0.501210 0.501210 0.147910 -0.209269
N2    N     N_R   0.501250 0.501290 0.852040 -0.214939
O1    O     O_R   0.499990 0.319640 0.618810 -0.588547
O2    O     O_R   0.500000 0.319660 0.381240 -0.532323
O3    O     O_R   0.316850 0.499960 0.618770 -0.590284
O4    O     O_R   0.316860 0.499980 0.381190 -0.527609
O5    O     O_R   0.500000 0.680340 0.618760 -0.613363
O6    O     O_R   0.500010 0.680360 0.381190 -0.604351
O7    O     O_R   0.683140 0.500020 0.618810 -0.601782
O8    O     O_R   0.683150 0.500040 0.381230 -0.607831
O9    O     O_3   0.340954 0.342901 0.146556 -0.707985

loop_
_geom_bond_atom_site_label_1
_geom_bond_atom_site_label_2
_ccdc_geom_bond_type
C17   H18   S    
C1    O2    A    
C19   H2    S    
Cu2   N1    S    
C6    C7    A    
C11   H17   S    
C6    H13   S    
C15   N1    A    
C13   N2    A    
C9    C10   A    
Cu1   N2    S    
C28   H11   S    
C14   N1    A    
C20   C23   S    
H9    O9    S    
C27   H8    S    
C2    C30   A    
Cu1   O5    S    
C19   C20   S    
C23   C25   S    
C2    C3    A    
C15   O9    S    
C3    C5    A    
C2    C26   A    
C7    C30   A    
C16   O6    A    
C21   C22   S    
Cu1   O1    S    
C18   C21   S    
C1    O1    A    
C22   H3    S    
C11   C13   A    
C12   C23   S    
C26   C27   A    
C24   H4    S    
Cu2   O6    S    
C20   H1    S    
C17   N2    A    
Cu2   O2    S    
C7    C16   S    
C9    H15   S    
C8    H14   S    
C16   O5    A    
C5    H7    S    
C29   H12   S    
C10   H16   S    
C5    C6    A    
C19   C25   S    
C22   C24   S    
C10   C11   A    
Cu2   O8    S    
C29   C30   A    
C23   H6    S    
C4    C25   S    
C18   O7    A    
C27   C28   A    
C19   C22   S    
C24   C25   S    
C26   H10   S    
C18   O8    A    
C12   H5    S    
C15   C17   A    
C12   C24   S    
C28   C29   A    
C8    C14   A    
Cu1   O3    S    
C20   C21   S    
C13   C14   A    
C12   C21   S    
Cu2   O4    S    
C4    O4    A    
Cu1   Cu2   S    
C4    O3    A    
C8    C9    A    
C1    C3    S    
Cu1   O7    S    
