data_mof_unit_49355.cif
_audit_creation_date              2012-12-10T16:45:21-0500
_audit_creation_method            fapswitch 2.2
_symmetry_space_group_name_H-M    P1
_symmetry_Int_Tables_number       1
_space_group_crystal_system       triclinic
_cell_length_a                    7.419013
_cell_length_b                    8.696201
_cell_length_c                    15.829263
_cell_angle_alpha                 94.240929
_cell_angle_beta                  74.484339
_cell_angle_gamma                 103.245862
_cell_volume                      957.775874031

loop_
_atom_site_label
_atom_site_type_symbol
_atom_type_description
_atom_site_fract_x
_atom_site_fract_y
_atom_site_fract_z
_atom_type_partial_charge
C1    C     C_R   0.545159 0.800225 0.502603 0.886068
C2    C     C_R   0.454815 0.199775 0.497429 0.885677
C3    C     C_R   0.285795 0.380294 0.078509 -0.219233
C4    C     C_R   0.722909 0.590140 0.917385 -0.217142
C5    C     C_R   0.155421 0.339726 0.027889 -0.211838
C6    C     C_R   0.854261 0.627644 0.967627 -0.212684
C7    C     C_2   0.570584 0.968121 0.503893 -0.374527
C8    C     C_2   0.429354 0.031881 0.496183 -0.374980
C9    C     C_R   0.381854 0.485214 0.666593 0.801950
C10   C     C_R   0.618119 0.513778 0.333270 0.801992
C11   C     C_R   0.306876 0.461371 0.762388 -0.073226
C12   C     C_R   0.693071 0.531538 0.236909 -0.072876
C13   C     C_R   0.071055 0.341236 0.891353 -0.178507
C14   C     C_R   0.936336 0.630478 0.105028 -0.178532
C15   C     C_R   0.118510 0.378226 0.802371 0.149169
C16   C     C_R   0.886239 0.600802 0.195032 0.151592
C17   C     C_R   0.437876 0.511458 0.813646 -0.295064
C18   C     C_R   0.559809 0.486219 0.186318 -0.297576
C19   C     C_R   0.393788 0.470808 0.902357 0.078929
C20   C     C_R   0.609550 0.512522 0.095587 0.079585
C21   C     C_R   0.206531 0.384402 0.940665 0.104597
C22   C     C_R   0.800180 0.589960 0.055998 0.106741
C23   C     C_R   0.530727 0.511082 0.953548 0.070429
C24   C     C_R   0.474371 0.468150 0.043703 0.068171
Cu1   Cu    Cu3+1 0.322120 0.483240 0.490330 0.936383
Cu2   Cu    Cu3+1 0.677880 0.516760 0.509670 0.937121
H1    H     H_    0.012560 0.272458 0.057564 0.149876
H2    H     H_    0.000291 0.686913 0.936725 0.151005
H3    H     H_    0.414892 0.434586 0.220380 0.160094
H4    H     H_    0.575693 0.581030 0.781557 0.155698
H5    H     H_    0.927745 0.276299 0.922393 0.143755
H6    H     H_    0.082736 0.686913 0.072785 0.144139
H7    H     H_    0.233635 0.337268 0.144514 0.142927
H8    H     H_    0.779585 0.623137 0.849724 0.143436
H9    H     H_    0.706653 0.039605 0.511196 0.178451
H10   H     H_    0.293280 0.960398 0.488887 0.178283
H11   H     H_    0.003470 0.614309 0.569062 0.222557
H12   H     H_    0.996497 0.385630 0.430969 0.222096
N1    N     N_2   0.945180 0.542040 0.524240 -0.218271
N2    N     N_2   0.054820 0.457960 0.475760 -0.218256
O1    O     O_R   0.384450 0.714270 0.493720 -0.579833
O2    O     O_R   0.615550 0.285730 0.506280 -0.579860
O3    O     O_R   0.684880 0.742590 0.510050 -0.586860
O4    O     O_R   0.315120 0.257410 0.489950 -0.587211
O5    O     O_R   0.265540 0.477900 0.617090 -0.585512
O6    O     O_R   0.734460 0.522100 0.382910 -0.584758
O7    O     O_R   0.565970 0.506210 0.633420 -0.583764
O8    O     O_R   0.434030 0.493790 0.366580 -0.584932
C25   C     C_3   0.039942 0.648449 0.243840 -0.813171
H13   H     H_    0.058134 0.542911 0.273340 0.234968
H14   H     H_    0.181142 0.702064 0.199776 0.219791
H15   H     H_    0.001355 0.737215 0.295660 0.239895
C26   C     C_3   0.967767 0.323925 0.752386 -0.812673
H16   H     H_    0.938073 0.427507 0.725863 0.237761
H17   H     H_    0.016815 0.242478 0.698122 0.238696
H18   H     H_    0.830132 0.259657 0.794910 0.219455

loop_
_geom_bond_atom_site_label_1
_geom_bond_atom_site_label_2
_ccdc_geom_bond_type
C10   O6    A    
C19   C23   A    
C23   C24   A    
C9    O5    A    
C14   C16   A    
C1    O3    A    
C25   H15   S    
C14   C22   A    
C25   H14   S    
C13   C15   A    
C2    O4    A    
C13   C21   A    
C7    C8    D    
H11   N1    S    
C18   H3    S    
C1    C7    S    
C26   H16   S    
H12   N2    S    
C17   H4    S    
C9    C11   S    
Cu1   O8    S    
C3    C24   A    
C10   C12   S    
Cu2   O7    S    
C2    O2    A    
C15   C26   S    
Cu1   O4    S    
C1    O1    A    
C19   C21   A    
C20   C22   A    
Cu2   O3    S    
C9    O7    A    
C18   C20   A    
C26   H17   S    
Cu1   N2    S    
C10   O8    A    
C20   C24   A    
C4    H8    S    
Cu2   N1    S    
C3    H7    S    
Cu1   O1    S    
C6    C22   A    
Cu1   O5    S    
C7    H9    S    
C5    C21   A    
C16   C25   S    
Cu2   O2    S    
C4    C6    A    
C25   H13   S    
C8    H10   S    
C26   H18   S    
C12   C18   A    
N1    N2    D    
C4    C23   A    
Cu2   O6    S    
C11   C17   A    
C2    C8    S    
C17   C19   A    
Cu1   Cu2   S    
C5    H1    S    
C11   C15   A    
C13   H5    S    
C6    H2    S    
C12   C16   A    
C14   H6    S    
C3    C5    A    
