data_mof_unit_58559.cif
_audit_creation_date              2013-03-05T16:05:19-0500
_audit_creation_method            fapswitch 2.2
_symmetry_space_group_name_H-M    P1
_symmetry_Int_Tables_number       1
_space_group_crystal_system       triclinic
_cell_length_a                    27.16521
_cell_length_b                    7.225867
_cell_length_c                    22.784696
_cell_angle_alpha                 90.020119
_cell_angle_beta                  101.287373
_cell_angle_gamma                 90.0308
_cell_volume                      4385.94977318

loop_
_atom_site_label
_atom_site_type_symbol
_atom_site_description
_atom_site_fract_x
_atom_site_fract_y
_atom_site_fract_z
_atom_type_partial_charge
O1    O     O_R   0.707300 0.594030 0.176840 -0.580804
O2    O     O_R   0.292700 0.405970 0.823160 -0.580827
O3    O     O_R   0.792700 0.094030 0.323160 -0.580734
O4    O     O_R   0.207300 0.905970 0.676840 -0.580762
O5    O     O_R   0.697330 0.262360 0.295660 -0.582302
O6    O     O_R   0.302670 0.737640 0.704340 -0.582090
O7    O     O_R   0.802670 0.762360 0.204340 -0.582047
O8    O     O_R   0.197330 0.237640 0.795660 -0.582028
C1    C     C_R   0.685132 0.432171 0.311740 0.895646
C2    C     C_R   0.314871 0.567829 0.688270 0.895347
C3    C     C_R   0.814869 0.932198 0.188266 0.895179
C4    C     C_R   0.185130 0.067802 0.811732 0.895079
O9    O     O_R   0.701410 0.264250 0.175600 -0.587676
O10   O     O_R   0.298590 0.735750 0.824400 -0.587684
O11   O     O_R   0.798590 0.764250 0.324400 -0.587573
O12   O     O_R   0.201410 0.235750 0.675600 -0.587573
O13   O     O_R   0.796800 0.094950 0.202240 -0.581891
O14   O     O_R   0.203200 0.905050 0.797760 -0.581883
O15   O     O_R   0.703200 0.594950 0.297760 -0.582112
O16   O     O_R   0.296800 0.405050 0.702240 -0.581951
C5    C     C_R   0.689821 0.432410 0.153529 0.904069
C6    C     C_R   0.310179 0.567590 0.846471 0.904001
C7    C     C_R   0.810170 0.932547 0.346462 0.903879
C8    C     C_R   0.189830 0.067452 0.653538 0.903971
O17   O     O_3   0.781290 0.427390 0.258880 -0.279173
O18   O     O_3   0.218710 0.572610 0.741120 -0.279215
O19   O     O_3   0.718710 0.927390 0.241120 -0.279445
O20   O     O_3   0.281290 0.072610 0.758880 -0.279369
V1    V     V_3+5 0.744190 0.152150 0.248350 1.172710
V2    V     V_3+5 0.255810 0.847850 0.751650 1.172917
V3    V     V_3+5 0.755810 0.652150 0.251650 1.172733
V4    V     V_3+5 0.244190 0.347850 0.748350 1.172870
C9    C     C_R   0.154862 0.062121 0.595233 -0.090557
C10   C     C_R   0.845138 0.937880 0.404767 -0.090515
C11   C     C_R   0.345166 0.562962 0.904786 -0.091290
C12   C     C_R   0.654835 0.437039 0.095213 -0.091324
C13   C     C_R   0.139493 0.119316 0.488713 -0.170716
C14   C     C_R   0.860506 0.880694 0.511287 -0.170680
C15   C     C_R   0.360977 0.627619 0.010901 -0.171139
C16   C     C_R   0.639024 0.372384 0.989097 -0.171156
C17   C     C_R   0.172318 0.112241 0.543814 -0.155634
C18   C     C_R   0.827681 0.887767 0.456186 -0.155604
C19   C     C_R   0.328025 0.618178 0.955936 -0.154537
C20   C     C_R   0.671976 0.381820 0.044064 -0.154532
C21   C     C_R   0.103740 0.019822 0.591249 -0.244324
C22   C     C_R   0.896260 0.980176 0.408751 -0.244308
C23   C     C_R   0.396123 0.517837 0.908926 -0.244848
C24   C     C_R   0.603878 0.482171 0.091072 -0.244843
C25   C     C_R   0.069071 0.029196 0.535509 0.109917
C26   C     C_R   0.930929 0.970805 0.464491 0.109904
C27   C     C_R   0.430947 0.529756 0.964509 0.109773
C28   C     C_R   0.569055 0.470255 0.035488 0.109768
C29   C     C_R   0.088294 0.079509 0.484123 0.177367
C30   C     C_R   0.911705 0.920497 0.515877 0.177356
C31   C     C_R   0.412030 0.585343 0.015608 0.177459
C32   C     C_R   0.587972 0.414666 0.984389 0.177496
C33   C     C_R   0.016204 0.992801 0.528919 0.060594
C34   C     C_R   0.983795 0.007201 0.471081 0.060595
C35   C     C_R   0.483701 0.491182 0.971186 0.060624
C36   C     C_R   0.516301 0.508833 0.028811 0.060593
C37   C     C_R   0.005366 0.056904 0.421797 -0.194227
C38   C     C_R   0.994633 0.943100 0.578203 -0.194227
C39   C     C_R   0.495024 0.563829 0.077808 -0.194454
C40   C     C_R   0.504978 0.436188 0.922189 -0.194477
C41   C     C_R   0.056394 0.091886 0.428346 -0.228659
C42   C     C_R   0.943605 0.908121 0.571654 -0.228667
C43   C     C_R   0.444104 0.600777 0.071187 -0.228605
C44   C     C_R   0.555898 0.399237 0.928810 -0.228658
H1    H     H_    0.071066 0.130189 0.389070 0.139979
H2    H     H_    0.928934 0.869822 0.610930 0.139966
H3    H     H_    0.429665 0.643208 0.110234 0.140050
H4    H     H_    0.570337 0.356806 0.889763 0.140003
H5    H     H_    0.907663 0.015614 0.367477 0.102994
H6    H     H_    0.092337 0.984378 0.632523 0.102980
H7    H     H_    0.592677 0.521267 0.132156 0.103744
H8    H     H_    0.407324 0.478744 0.867841 0.103693
H9    H     H_    0.788496 0.853033 0.453561 0.112594
H10   H     H_    0.211503 0.146980 0.546440 0.112749
H11   H     H_    0.711008 0.344675 0.046822 0.112610
H12   H     H_    0.288992 0.655319 0.953178 0.112638
H13   H     H_    0.154129 0.158455 0.449511 0.124962
H14   H     H_    0.845870 0.841559 0.550490 0.124944
H15   H     H_    0.346579 0.670841 0.049875 0.124915
H16   H     H_    0.653422 0.329161 0.950123 0.124893
H17   H     H_    0.983765 0.070647 0.377086 0.134733
H18   H     H_    0.016235 0.929360 0.622915 0.134722
H19   H     H_    0.516790 0.580399 0.122333 0.134898
H20   H     H_    0.483212 0.419620 0.877664 0.134852
C45   C     C_R   0.842539 0.043284 0.096220 -0.157073
C46   C     C_R   0.157492 0.957022 0.903831 -0.157087
C47   C     C_R   0.657267 0.545083 0.403460 -0.157110
C48   C     C_R   0.342525 0.456738 0.596218 -0.157199
H21   H     H_    0.806507 0.110448 0.082170 0.115199
H22   H     H_    0.193553 0.890109 0.917928 0.115122
H23   H     H_    0.693136 0.613780 0.417253 0.115854
H24   H     H_    0.306478 0.389524 0.582148 0.115393
C49   C     C_R   0.878283 0.055480 0.059685 -0.036513
C50   C     C_R   0.121739 0.944794 0.940354 -0.036359
C51   C     C_R   0.621547 0.557164 0.440024 -0.037198
C52   C     C_R   0.378281 0.444505 0.559706 -0.036441
H25   H     H_    0.868541 0.129162 0.017663 0.128132
H26   H     H_    0.131496 0.871323 0.982413 0.128001
H27   H     H_    0.631198 0.632187 0.481828 0.128857
H28   H     H_    0.368539 0.370730 0.517677 0.128131
C53   C     C_R   0.926044 0.974417 0.077257 0.190180
C54   C     C_R   0.073946 0.025543 0.922718 0.190368
C55   C     C_R   0.573959 0.474247 0.422774 0.189240
C56   C     C_R   0.426056 0.525627 0.577314 0.190282
C57   C     C_R   0.935849 0.871455 0.130827 -0.073042
C58   C     C_R   0.064105 0.128212 0.869092 -0.073100
C59   C     C_R   0.564370 0.369409 0.369542 -0.072665
C60   C     C_R   0.435876 0.628699 0.630890 -0.072912
H29   H     H_    0.972033 0.806403 0.145707 0.127589
H30   H     H_    0.027893 0.193016 0.854170 0.127469
H31   H     H_    0.528341 0.302846 0.354884 0.128308
H32   H     H_    0.472075 0.693810 0.645782 0.127620
C61   C     C_R   0.899326 0.853650 0.166313 -0.155068
C62   C     C_R   0.100629 0.146026 0.833608 -0.155043
C63   C     C_R   0.600907 0.351592 0.334078 -0.155122
C64   C     C_R   0.399347 0.646510 0.666362 -0.154993
H33   H     H_    0.907938 0.774908 0.207493 0.121247
H34   H     H_    0.091992 0.224517 0.792380 0.121104
H35   H     H_    0.592455 0.271291 0.293177 0.122128
H36   H     H_    0.407967 0.725298 0.707558 0.121287
C65   C     C_R   0.852721 0.942189 0.149772 -0.111005
C66   C     C_R   0.147275 0.057812 0.850219 -0.110810
C67   C     C_R   0.647291 0.442113 0.350248 -0.112120
C68   C     C_R   0.352723 0.557899 0.649787 -0.111052
C69   C     C_R   0.992683 0.835558 0.028913 -0.234138
C70   C     C_R   0.007304 0.164374 0.971048 -0.234117
C71   C     C_R   0.507360 0.335298 0.471252 -0.234401
C72   C     C_R   0.492648 0.664488 0.528888 -0.234319
H37   H     H_    0.986378 0.705823 0.049886 0.227502
H38   H     H_    0.013606 0.294104 0.950067 0.227432
H39   H     H_    0.513690 0.205407 0.450388 0.227774
H40   H     H_    0.486327 0.794345 0.549794 0.227462
C73   C     C_R   0.026769 0.839749 0.989767 0.381840
C74   C     C_R   0.973231 0.160192 0.010209 0.381959
C75   C     C_R   0.473269 0.339616 0.510386 0.381813
C76   C     C_R   0.526679 0.660227 0.489683 0.382298
C77   C     C_R   0.035041 0.007461 0.960893 -0.151014
C78   C     C_R   0.964949 0.992476 0.039075 -0.150929
C79   C     C_R   0.464964 0.507488 0.539158 -0.151008
C80   C     C_R   0.535039 0.492319 0.460953 -0.150423
N1    N     N_R   0.050746 0.670400 0.978020 0.225085
O21   O     O_R   0.053063 0.624170 0.923414 -0.423183
O22   O     O_R   0.065528 0.552737 0.021079 -0.415112
N2    N     N_R   0.949282 0.329564 0.021984 0.225055
O23   O     O_R   0.934429 0.447139 0.978919 -0.415238
O24   O     O_R   0.947050 0.375879 0.076608 -0.423225
N3    N     N_R   0.449299 0.170262 0.522199 0.224961
O25   O     O_R   0.447025 0.124256 0.576827 -0.423355
O26   O     O_R   0.434414 0.052488 0.479156 -0.415187
N4    N     N_R   0.550488 0.829726 0.477711 0.224779
O27   O     O_R   0.565663 0.947209 0.520754 -0.415862
O28   O     O_R   0.552356 0.876063 0.422994 -0.423689

loop_
_geom_bond_atom_site_label_1
_geom_bond_atom_site_label_2
_geom_bond_distance
_ccdc_geom_bond_type
O17   V3    1.760868 S    
C51   H27   1.082403 S    
O1    C5    1.331042 A    
O19   V1    1.760073 S    
C9    C21   1.407280 A    
C16   H16   1.083968 S    
O3    C7    1.330807 A    
C10   C18   1.395057 A    
O1    V3    1.984422 S    
O15   V3    1.975987 S    
C58   C62   1.403059 A    
N1    O21   1.301515 A    
C57   C61   1.403069 A    
C33   C38   1.411018 A    
C5    C12   1.474984 S    
C45   C65   1.402739 A    
O7    C3    1.340688 A    
C6    C11   1.474980 S    
C38   H18   1.076172 S    
C35   C40   1.410964 A    
C1    C67   1.478112 S    
C47   C67   1.402688 A    
C36   C39   1.410963 A    
C40   C44   1.387890 A    
O2    V4    1.984423 S    
C73   N1    1.436026 S    
C3    C65   1.478078 S    
N2    O24   1.301526 A    
C23   H8    1.077058 S    
C14   C18   1.391316 A    
C71   H39   1.080894 S    
C54   C58   1.409883 A    
O4    C8    1.330807 A    
C25   C29   1.419554 A    
C72   H40   1.081070 S    
C44   H4    1.084385 S    
C60   H32   1.082700 S    
C4    C66   1.478049 S    
C48   H24   1.083544 S    
O13   V1    1.976162 S    
C59   C63   1.403074 A    
C62   H34   1.083231 S    
O3    V1    1.984976 S    
C70   C77   1.405635 A    
C61   H33   1.083243 S    
C73   C77   1.417774 A    
C28   C36   1.438622 A    
C75   C79   1.417646 A    
C1    O15   1.336667 A    
C52   H28   1.082377 S    
C15   C31   1.403715 A    
C72   C76   1.405987 A    
C2    O16   1.336640 A    
C16   C32   1.403718 A    
O2    C6    1.331041 A    
C43   H3    1.084386 S    
N3    O25   1.301512 A    
C10   C22   1.407280 A    
C11   C19   1.395175 A    
C58   H30   1.082702 S    
C16   C20   1.391204 A    
N4    O28   1.301542 A    
C57   H29   1.082700 S    
C13   C29   1.403819 A    
C34   C37   1.411016 A    
O11   C7    1.329583 A    
C11   C23   1.407425 A    
C35   C36   1.438414 A    
O12   C8    1.329583 A    
C14   H14   1.083961 S    
C45   H21   1.083531 S    
C24   H7    1.077057 S    
C13   H13   1.083961 S    
C70   H38   1.081089 S    
O10   V2    2.000536 S    
C2    C68   1.477907 S    
C48   C68   1.402713 A    
N1    O22   1.301305 A    
C46   H22   1.083532 S    
O5    V1    1.988525 S    
C39   C43   1.387887 A    
C52   C56   1.408586 A    
O7    V3    1.988280 S    
C38   C42   1.387911 A    
O8    V4    1.988282 S    
N2    O23   1.301296 A    
C74   C78   1.417772 A    
C74   N2    1.435966 S    
C53   C78   1.500229 S    
C60   C64   1.403032 A    
O18   V4    1.760868 S    
C15   C19   1.391202 A    
C69   C78   1.405667 A    
C19   H12   1.083742 S    
C32   C44   1.393954 A    
C47   H23   1.083560 S    
C56   C60   1.409851 A    
C45   C49   1.399978 A    
C21   H6    1.077041 S    
C26   C34   1.438513 A    
O5    C1    1.340624 A    
C31   C43   1.393953 A    
C14   C30   1.403819 A    
C21   C25   1.427023 A    
O8    C4    1.340680 A    
C7    C10   1.474637 S    
C46   C66   1.402743 A    
O9    C5    1.329410 A    
C26   C30   1.419552 A    
N4    O27   1.301232 A    
C37   H17   1.076172 S    
C69   H37   1.081059 S    
O6    V2    1.988525 S    
O14   V2    1.976156 S    
C12   C20   1.395175 A    
C27   C35   1.438623 A    
C70   C74   1.406091 A    
C17   H10   1.083713 S    
C29   C41   1.393937 A    
C48   C52   1.399894 A    
C54   C77   1.500125 S    
O16   V4    1.975990 S    
O9    V1    2.000534 S    
C53   C57   1.409914 A    
C3    O13   1.336743 A    
C39   H19   1.076171 S    
C55   C59   1.410058 A    
C20   H11   1.083741 S    
C76   C80   1.417777 A    
O6    C2    1.340583 A    
C25   C33   1.438513 A    
C23   C27   1.427258 A    
C64   C68   1.403034 A    
O11   V3    1.999558 S    
C30   C42   1.393940 A    
C63   H35   1.083313 S    
O12   V4    1.999559 S    
C51   C55   1.408807 A    
C22   C26   1.427024 A    
C8    C9    1.474636 S    
C50   C54   1.408636 A    
C9    C17   1.395060 A    
O10   C6    1.329409 A    
O20   V2    1.760075 S    
C49   C53   1.408670 A    
C50   H26   1.082378 S    
C33   C34   1.438253 A    
C42   H2    1.084411 S    
C72   C79   1.405527 A    
C41   H1    1.084414 S    
C22   H5    1.077040 S    
C75   N3    1.435951 S    
C46   C50   1.399975 A    
C12   C24   1.407424 A    
C27   C31   1.419536 A    
N3    O26   1.301278 A    
C13   C17   1.391316 A    
C49   H25   1.082385 S    
C71   C75   1.406041 A    
C64   H36   1.083246 S    
C15   H15   1.083968 S    
C37   C41   1.387911 A    
C24   C28   1.427256 A    
C69   C73   1.406107 A    
C18   H9    1.083714 S    
C4    O14   1.336740 A    
C59   H31   1.082674 S    
C62   C66   1.403033 A    
C47   C51   1.399896 A    
C55   C80   1.500558 S    
C61   C65   1.403030 A    
C40   H20   1.076172 S    
C56   C79   1.499944 S    
O4    V2    1.984976 S    
C71   C80   1.405739 A    
C28   C32   1.419535 A    
C76   N4    1.435707 S    
C63   C67   1.403034 A    
