data_mof_unit_26424.cif
_audit_creation_date              2012-12-11T16:17:53-0500
_audit_creation_method            fapswitch 2.2
_symmetry_space_group_name_H-M    P1
_symmetry_Int_Tables_number       1
_space_group_crystal_system       triclinic
_cell_length_a                    6.923307
_cell_length_b                    28.825501
_cell_length_c                    32.056644
_cell_angle_alpha                 101.205382
_cell_angle_beta                  89.602392
_cell_angle_gamma                 90.1662
_cell_volume                      6275.35908312

loop_
_atom_site_label
_atom_site_type_symbol
_atom_type_description
_atom_site_fract_x
_atom_site_fract_y
_atom_site_fract_z
_atom_type_partial_charge
O1    O     O_R   0.494350 0.453160 0.452490 -0.528978
O2    O     O_R   0.820990 0.455850 0.538220 -0.543610
O3    O     O_R   0.994300 0.546840 0.547510 -0.533430
C1    C     C_R   0.651588 0.445462 0.551312 0.790337
O4    O     O_R   0.823860 0.447580 0.452250 -0.531489
O5    O     O_R   0.997190 0.538510 0.460920 -0.546660
C2    C     C_R   0.655384 0.434678 0.436459 0.776133
O6    O     O_R   0.491450 0.461490 0.539080 -0.532116
O7    O     O_3   0.661790 0.529840 0.502950 -0.376389
V1    V     V_3+5 0.935470 0.494460 0.499450 1.445055
O8    O     O_R   0.327090 0.544150 0.461780 -0.533563
C3    C     C_R   0.158627 0.554233 0.448337 0.722051
O9    O     O_R   0.324210 0.552420 0.547750 -0.530338
C4    C     C_R   0.154765 0.565148 0.563708 0.823520
V2    V     V_3+5 0.435840 0.505540 0.500550 1.464070
O10   O     O_3   0.159650 0.470160 0.497050 -0.371349
C5    C     C_R   0.010794 0.600844 0.635378 0.337833
C6    C     C_R   0.012442 0.635336 0.673435 0.066950
C7    C     C_R   0.133865 0.675491 0.677264 -0.197818
C8    C     C_R   0.261984 0.679037 0.643396 0.352131
C9    C     C_R   0.264547 0.643834 0.605989 0.287347
C10   C     C_R   0.143231 0.603793 0.602185 -0.325953
N1    N     N_R   0.086374 0.704123 0.755077 -0.241294
N2    N     N_R   0.073339 0.738540 0.789419 -0.240978
C11   C     C_R   0.098508 0.784550 0.786430 0.550788
N3    N     N_R   0.138275 0.794489 0.747501 -0.246275
N4    N     N_R   0.151035 0.760051 0.713138 -0.240192
C12   C     C_R   0.124808 0.714032 0.716082 0.577185
C13   C     C_R   0.943871 0.819513 0.857320 0.340525
C14   C     C_R   0.931057 0.855269 0.894339 0.362303
C15   C     C_R   0.048150 0.896013 0.898525 -0.214682
C16   C     C_R   0.181413 0.899669 0.866211 -0.282358
H1    H     H_    0.273036 0.930673 0.869187 0.144862
C17   C     C_R   0.197475 0.864118 0.829567 0.153926
C18   C     C_R   0.080339 0.823168 0.824886 -0.130061
C19   C     C_R   0.234396 0.667854 0.291063 0.621743
N5    N     N_R   0.116785 0.676574 0.326077 -0.548554
C20   C     C_R   0.986569 0.712849 0.332061 0.623979
C21   C     C_R   0.967432 0.742349 0.301525 -0.124545
C22   C     C_R   0.090750 0.734093 0.265222 -0.105313
C23   C     C_R   0.228865 0.697183 0.260314 -0.034921
C24   C     C_R   0.830837 0.779884 0.305980 0.107006
C25   C     C_R   0.817268 0.807958 0.274915 0.501227
C26   C     C_R   0.943721 0.800799 0.239395 -0.181702
C27   C     C_R   0.078086 0.763187 0.234135 -0.150173
C28   C     C_R   0.202154 0.755296 0.198130 -0.046566
C29   C     C_R   0.344674 0.719486 0.194289 0.135993
C30   C     C_R   0.358609 0.690838 0.225263 0.144359
C31   C     C_R   0.941266 0.830808 0.209200 0.612253
N6    N     N_R   0.057763 0.821913 0.173924 -0.558219
C32   C     C_R   0.183725 0.784651 0.167535 0.622421
O11   O     O_2   0.354742 0.630430 0.286058 -0.493086
O12   O     O_2   0.877093 0.719956 0.367628 -0.531481
O13   O     O_2   0.826243 0.869255 0.215342 -0.495293
O14   O     O_2   0.289775 0.776039 0.131412 -0.493483
C33   C     C_R   0.880517 0.859038 0.121890 -0.082665
H2    H     H_    0.751051 0.840033 0.127719 0.159299
C34   C     C_R   0.875580 0.889017 0.092358 -0.272215
H3    H     H_    0.741535 0.892211 0.075984 0.201211
C35   C     C_R   0.041544 0.913991 0.083595 -0.162620
C36   C     C_R   0.213956 0.908542 0.105884 0.424193
C37   C     C_R   0.217595 0.877865 0.135069 -0.174545
H4    H     H_    0.350844 0.873340 0.151338 0.145897
C38   C     C_R   0.051610 0.853118 0.143479 0.302503
C39   C     C_R   0.281109 0.650796 0.386582 0.161270
C40   C     C_R   0.292003 0.620343 0.415752 -0.174349
H5    H     H_    0.410583 0.624264 0.438055 0.151846
C41   C     C_R   0.148998 0.585955 0.417027 -0.122484
C42   C     C_R   0.995255 0.582065 0.388165 -0.247205
H6    H     H_    0.884107 0.555567 0.388421 0.140766
C43   C     C_R   0.985084 0.611505 0.358076 0.216386
C44   C     C_R   0.127853 0.646177 0.357084 0.346342
C45   C     C_R   0.613319 0.224524 0.838843 0.692147
N7    N     N_R   0.581720 0.176896 0.825452 -0.547669
C46   C     C_R   0.551387 0.158419 0.783245 0.588665
C47   C     C_R   0.547282 0.187959 0.753128 -0.062830
C48   C     C_R   0.590047 0.236411 0.765899 -0.068243
C49   C     C_R   0.629119 0.255039 0.809099 -0.092187
C50   C     C_R   0.502359 0.169752 0.710495 -0.212582
C51   C     C_R   0.500582 0.198838 0.680262 0.455955
C52   C     C_R   0.543939 0.247605 0.692566 -0.117554
C53   C     C_R   0.594183 0.266007 0.735303 -0.135099
C54   C     C_R   0.648534 0.313889 0.747379 -0.157728
C55   C     C_R   0.683170 0.332948 0.790871 0.407841
C56   C     C_R   0.679288 0.303468 0.821264 0.120005
C57   C     C_R   0.539564 0.278601 0.663413 0.637341
N8    N     N_R   0.607701 0.323985 0.674695 -0.538791
C58   C     C_R   0.668828 0.341191 0.715374 0.651946
O15   O     O_2   0.624234 0.242391 0.880877 -0.486389
O16   O     O_2   0.525948 0.111398 0.770267 -0.524913
H7    H     H_    0.467006 0.132668 0.700218 0.182525
O17   O     O_2   0.466784 0.263726 0.624166 -0.488547
O18   O     O_2   0.752198 0.384286 0.724553 -0.491666
C59   C     C_R   0.515684 0.397667 0.650144 0.410868
C60   C     C_R   0.530021 0.427549 0.620252 0.056002
C61   C     C_R   0.639958 0.413813 0.582686 -0.217046
C62   C     C_R   0.736161 0.369702 0.575291 0.010500
C63   C     C_R   0.726222 0.340409 0.605569 0.476715
C64   C     C_R   0.616037 0.354096 0.643262 0.070442
C65   C     C_R   0.407939 0.117962 0.858329 -0.192947
H8    H     H_    0.290540 0.119770 0.836591 0.146859
C66   C     C_R   0.394139 0.087249 0.887404 0.168060
C67   C     C_R   0.548072 0.084875 0.915808 -0.090465
C68   C     C_R   0.714153 0.112426 0.913273 -0.305000
H9    H     H_    0.834331 0.110780 0.934418 0.166095
C69   C     C_R   0.727436 0.142729 0.883888 0.234545
C70   C     C_R   0.572619 0.145967 0.856245 0.344432
C71   C     C_R   0.506943 0.398924 0.366234 0.381282
C72   C     C_R   0.500650 0.363799 0.329175 -0.208954
H10   H     H_    0.398227 0.367541 0.304682 0.166432
C73   C     C_R   0.625756 0.324873 0.323239 -0.094731
C74   C     C_R   0.761593 0.321923 0.354967 -0.244281
H11   H     H_    0.860508 0.292421 0.349561 0.154448
C75   C     C_R   0.771769 0.356975 0.392872 0.383109
C76   C     C_R   0.645415 0.396297 0.397894 -0.223185
N9    N     N_R   0.722218 0.247598 0.278883 -0.287589
N10   N     N_R   0.706842 0.213961 0.243981 -0.288625
C77   C     C_R   0.581954 0.218654 0.212466 0.532867
N11   N     N_R   0.475984 0.258938 0.217344 -0.295513
N12   N     N_R   0.490858 0.292499 0.252176 -0.284863
C78   C     C_R   0.613715 0.287585 0.283863 0.575152
C79   C     C_R   0.398711 0.175623 0.146670 0.157337
C80   C     C_R   0.389913 0.138877 0.110369 0.209672
C81   C     C_R   0.542531 0.105869 0.100696 -0.102176
C82   C     C_R   0.703644 0.110882 0.127533 -0.236018
H12   H     H_    0.822058 0.085979 0.121205 0.135365
C83   C     C_R   0.714077 0.147480 0.163176 -0.150971
H13   H     H_    0.841996 0.149916 0.182743 0.156930
C84   C     C_R   0.563497 0.180494 0.173541 -0.047332
O19   O     O_R   0.699050 0.038480 0.960880 -0.546291
O20   O     O_R   0.366680 0.052470 0.047720 -0.518372
O21   O     O_R   0.193410 0.961530 0.039110 -0.509332
C85   C     C_R   0.534934 0.066020 0.063125 0.724804
O22   O     O_R   0.369510 0.044100 0.961740 -0.519619
O23   O     O_R   0.196260 0.953110 0.952520 -0.543818
C86   C     C_R   0.538412 0.053622 0.947743 0.727321
O24   O     O_R   0.696210 0.046900 0.047470 -0.547852
O25   O     O_3   0.528780 0.970170 0.997070 -0.354037
V3    V     V_3+5 0.255080 0.005530 0.000540 1.502192
O26   O     O_R   0.866350 0.947520 0.952280 -0.520156
C87   C     C_R   0.035748 0.934645 0.936600 0.761285
O27   O     O_R   0.863520 0.955880 0.038260 -0.541800
C88   C     C_R   0.032210 0.945826 0.051929 0.720700
V4    V     V_3+5 0.754720 0.994440 0.999470 1.480177
O28   O     O_3   0.030880 0.029830 0.002930 -0.366293
O29   O     O_3   0.889973 0.561969 0.632113 -0.554100
C89   C     C_3   0.708783 0.572950 0.616368 -0.120753
H14   H     H_    0.644548 0.539941 0.598407 0.177610
H15   H     H_    0.717282 0.598166 0.594050 0.141686
H16   H     H_    0.608292 0.586768 0.642897 0.103809
O30   O     O_3   0.684684 0.844566 0.281240 -0.506514
C90   C     C_3   0.507759 0.827076 0.262988 -0.093716
H17   H     H_    0.448331 0.798716 0.278486 0.119223
H18   H     H_    0.523498 0.813974 0.228136 0.120561
H19   H     H_    0.401352 0.856354 0.267755 0.165738
N13   N     N_3   0.480945 0.713245 0.159647 -0.594214
H20   H     H_    0.620470 0.719326 0.171770 0.220287
H21   H     H_    0.470934 0.678663 0.142334 0.243281
N14   N     N_3   0.509256 0.656072 0.221659 -0.583446
H22   H     H_    0.643391 0.672946 0.222431 0.227289
H23   H     H_    0.494967 0.632094 0.192880 0.241934
O31   O     O_3   0.383052 0.930655 0.097306 -0.551094
C91   C     C_3   0.414856 0.970139 0.130127 -0.214347
H24   H     H_    0.441371 0.959209 0.161018 0.146923
H25   H     H_    0.292206 0.995518 0.133098 0.117057
H26   H     H_    0.546026 0.988921 0.122137 0.149426
N15   N     N_3   0.424707 0.686916 0.388072 -0.633701
H27   H     H_    0.495835 0.681846 0.358715 0.267643
H28   H     H_    0.354791 0.719635 0.392724 0.241085
N16   N     N_3   0.891142 0.629419 0.708496 -0.601389
H29   H     H_    0.917743 0.596137 0.715617 0.275834
H30   H     H_    0.746851 0.631000 0.699827 0.223212
N17   N     N_3   0.830287 0.606018 0.328132 -0.609760
H31   H     H_    0.700151 0.609746 0.345169 0.259279
H32   H     H_    0.835445 0.571518 0.310428 0.245781
O32   O     O_3   0.452160 0.179155 0.638822 -0.532080
C92   C     C_3   0.618914 0.158200 0.617723 -0.113499
H33   H     H_    0.737184 0.184565 0.618074 0.150901
H34   H     H_    0.582381 0.144135 0.583993 0.172101
H35   H     H_    0.669514 0.127999 0.631738 0.112642
O33   O     O_3   0.725540 0.380436 0.804339 -0.535425
C93   C     C_3   0.550127 0.405742 0.811500 -0.119212
H36   H     H_    0.465604 0.402977 0.781723 0.167910
H37   H     H_    0.583893 0.443675 0.823094 0.172778
H38   H     H_    0.459940 0.393689 0.836216 0.096570
N18   N     N_3   0.733647 0.322771 0.864279 -0.569024
H39   H     H_    0.637783 0.349830 0.876987 0.246595
H40   H     H_    0.872259 0.337219 0.864006 0.253888
O34   O     O_3   0.417068 0.413603 0.687899 -0.530905
C94   C     C_3   0.233083 0.392323 0.685564 -0.199892
H41   H     H_    0.244264 0.353905 0.685481 0.125402
H42   H     H_    0.151071 0.398592 0.657432 0.115013
H43   H     H_    0.149429 0.408447 0.714334 0.206669
N19   N     N_3   0.435385 0.472652 0.628464 -0.651312
H44   H     H_    0.485618 0.492013 0.657366 0.268453
H45   H     H_    0.287060 0.467174 0.631450 0.249635
N20   N     N_3   0.841086 0.353058 0.536569 -0.604930
H46   H     H_    0.750348 0.354278 0.510867 0.240898
H47   H     H_    0.959281 0.375332 0.535200 0.244428
O35   O     O_3   0.812857 0.296375 0.596335 -0.512448
C95   C     C_3   0.996431 0.299410 0.615278 -0.141855
H48   H     H_    0.090188 0.325525 0.603364 0.130693
H49   H     H_    0.984520 0.307939 0.650518 0.102787
H50   H     H_    0.067289 0.264379 0.606575 0.202308
O36   O     O_3   0.380672 0.718135 0.645732 -0.522516
C96   C     C_3   0.558734 0.708444 0.663291 -0.122127
H51   H     H_    0.539562 0.700839 0.695809 0.112915
H52   H     H_    0.652299 0.740187 0.666096 0.174560
H53   H     H_    0.634999 0.678781 0.642317 0.125179
N21   N     N_3   0.226665 0.057569 0.887280 -0.648191
H54   H     H_    0.270966 0.022615 0.876573 0.213743
H55   H     H_    0.124854 0.064594 0.865399 0.225204
N22   N     N_3   0.899422 0.169872 0.881860 -0.624383
H56   H     H_    0.015186 0.146445 0.875908 0.220333
H57   H     H_    0.920896 0.191200 0.911797 0.262558
O37   O     O_3   0.392013 0.438723 0.369430 -0.555071
C97   C     C_3   0.199098 0.426511 0.376849 -0.140116
H58   H     H_    0.110782 0.459211 0.382609 0.138920
H59   H     H_    0.186889 0.410519 0.405675 0.172873
H60   H     H_    0.137385 0.402325 0.348821 0.122843
O38   O     O_3   0.905737 0.355921 0.425097 -0.563385
C98   C     C_3   0.972846 0.310155 0.426699 -0.255734
H61   H     H_    0.083193 0.298614 0.401519 0.144561
H62   H     H_    0.852275 0.284210 0.424861 0.155389
H63   H     H_    0.045228 0.311472 0.457663 0.185989
N23   N     N_3   0.235318 0.206542 0.155636 -0.675585
H64   H     H_    0.276089 0.240604 0.152456 0.269500
H65   H     H_    0.185624 0.206588 0.186514 0.255647
N24   N     N_3   0.226491 0.135880 0.082676 -0.642489
H66   H     H_    0.216101 0.167580 0.071595 0.247968
H67   H     H_    0.101946 0.132041 0.100289 0.245839
O39   O     O_3   0.392325 0.648250 0.573626 -0.546935
C99   C     C_3   0.297087 0.671287 0.544667 -0.144271
H68   H     H_    0.248925 0.707350 0.560254 0.166747
H69   H     H_    0.172320 0.650153 0.529595 0.089119
H70   H     H_    0.400091 0.675260 0.518931 0.153882
O40   O     O_3   0.828168 0.779785 0.854052 -0.529852
C100  C     C_3   0.650322 0.789001 0.836143 -0.125322
H71   H     H_    0.559971 0.756614 0.832142 0.174831
H72   H     H_    0.670691 0.797844 0.804093 0.121009
H73   H     H_    0.570075 0.817674 0.857488 0.150351
O41   O     O_3   0.798265 0.850712 0.925726 -0.544950
C101  C     C_3   0.889473 0.828370 0.955703 -0.147184
H74   H     H_    0.783306 0.824890 0.980996 0.159075
H75   H     H_    0.012717 0.849753 0.971233 0.093607
H76   H     H_    0.938874 0.792160 0.940890 0.164114
N25   N     N_3   0.335644 0.869640 0.797399 -0.625192
H77   H     H_    0.300080 0.900211 0.786153 0.252474
H78   H     H_    0.471573 0.875065 0.811524 0.218125
N26   N     N_3   0.701814 0.791155 0.341726 -0.608722
H79   H     H_    0.781558 0.800712 0.369647 0.282539
H80   H     H_    0.612445 0.762145 0.342872 0.253101

loop_
_geom_bond_atom_site_label_1
_geom_bond_atom_site_label_2
_ccdc_geom_bond_type
C26   C31   A    
N19   H45   S    
N8    C58   A    
C46   C47   A    
C85   O24   A    
C94   H41   S    
C73   C78   S    
C60   C61   A    
N6    C38   S    
C45   N7    A    
C40   C41   A    
C89   H14   S    
C47   C50   A    
C1    O6    A    
N14   H23   S    
C68   C69   A    
C62   C63   A    
C80   C81   A    
N15   H28   S    
O36   C96   S    
C71   C72   A    
C97   H60   S    
O23   V3    S    
C3    C41   S    
C100  H73   S    
N3    N4    A    
O38   C98   S    
C81   C85   S    
C59   C64   A    
C71   C76   A    
C19   N5    A    
C89   H15   S    
N5    C20   A    
C17   C18   A    
C42   H6    S    
C72   C73   A    
C35   C88   S    
O5    C3    A    
C20   C21   A    
C63   C64   A    
C96   H52   S    
N16   H29   S    
N26   H80   S    
C31   O13   S    
C79   N23   S    
C56   N18   S    
O40   C100  S    
C33   H2    S    
C42   C43   A    
C6    C7    A    
C95   H48   S    
C2    C76   S    
N20   H47   S    
C77   N11   A    
C74   H11   S    
C37   C38   A    
C46   O16   S    
O1    C2    A    
N7    C70   S    
C1    C61   S    
O8    V2    S    
C55   C56   A    
V3    O28   S    
C7    C8    A    
O35   C95   S    
C101  H75   S    
C101  H74   S    
C45   C49   A    
C33   C38   A    
O1    V2    S    
O37   C97   S    
O19   V4    S    
C99   H68   S    
C79   C84   A    
C50   H7    S    
C52   C57   A    
C94   H43   S    
C48   C49   A    
C101  H76   S    
O21   C88   A    
C6    N16   S    
C54   C58   A    
N18   H39   S    
N26   H79   S    
N17   H31   S    
C9    C10   A    
C95   H49   S    
N14   H22   S    
C19   C23   A    
N20   H46   S    
O19   C86   A    
C8    O36   S    
C13   O40   S    
C68   H9    S    
N24   H66   S    
C52   C53   A    
C21   C24   A    
N8    C64   S    
C47   C48   A    
N25   H78   S    
C77   C84   S    
C22   C27   A    
C30   N14   S    
C100  H72   S    
N7    C46   A    
O29   C89   S    
O23   C87   A    
C66   C67   A    
C29   C30   A    
C62   N20   S    
C91   H26   S    
N2    C11   A    
C51   O32   S    
N9    C78   A    
O22   V3    S    
O4    C2    A    
C96   H51   S    
C41   C42   A    
O22   C86   A    
C98   H63   S    
C92   H34   S    
C11   N3    A    
O33   C93   S    
C9    O39   S    
C28   C32   A    
C53   C54   A    
C36   O31   S    
C35   C36   A    
O21   V3    S    
C93   H38   S    
C16   C17   A    
C15   C87   S    
O2    C1    A    
C67   C86   S    
C83   C84   A    
C13   C14   A    
C54   C55   A    
C80   N24   S    
C90   H19   S    
N22   H56   S    
O30   C90   S    
C92   H35   S    
C61   C62   A    
C89   H16   S    
C37   H4    S    
C65   C66   A    
C5    C6    A    
C59   C60   A    
N6    C32   A    
C28   C29   A    
C69   C70   A    
O26   C87   A    
N11   N12   A    
C98   H62   S    
C7    C12   S    
C99   H69   S    
C71   O37   S    
N17   H32   S    
C11   C18   S    
C74   C75   A    
C49   C56   A    
O32   C92   S    
C97   H58   S    
O24   V4    S    
C90   H18   S    
N21   H54   S    
C60   N19   S    
N21   H55   S    
O9    V2    S    
C25   C26   A    
C14   O41   S    
C82   H12   S    
C95   H50   S    
O27   V4    S    
C27   C28   A    
N1    C12   A    
C24   C25   A    
N18   H40   S    
C83   H13   S    
O2    V1    S    
N15   H27   S    
C25   O30   S    
N12   C78   A    
O31   C91   S    
O7    V1    S    
O34   C94   S    
C69   N22   S    
C39   N15   S    
C58   O18   S    
C22   C23   A    
C65   C70   A    
C94   H42   S    
C73   C74   A    
O41   C101  S    
C57   N8    A    
C15   C16   A    
C66   N21   S    
C26   C27   A    
O26   V4    S    
C17   N25   S    
C51   C52   A    
O20   C85   A    
C19   O11   S    
O5    V1    S    
C97   H59   S    
N25   H77   S    
C75   C76   A    
O3    C4    A    
O6    V2    S    
C39   C44   A    
C13   C18   A    
N23   H65   S    
C5    C10   A    
C63   O35   S    
V4    O28   S    
C16   H1    S    
C4    C10   S    
N13   H21   S    
C5    O29   S    
C34   H3    S    
N22   H57   S    
C45   O15   S    
C43   C44   A    
N24   H67   S    
O3    V1    S    
C57   O17   S    
N10   C77   A    
N19   H44   S    
C96   H53   S    
C14   C15   A    
C20   O12   S    
N16   H30   S    
C48   C53   A    
O25   V4    S    
V2    O10   S    
C100  H71   S    
C65   H8    S    
C23   C30   A    
C33   C34   A    
N9    N10   A    
C40   H5    S    
C32   O14   S    
C39   C40   A    
C75   O38   S    
O7    V2    S    
C36   C37   A    
C99   H70   S    
C93   H37   S    
C59   O34   S    
C91   H24   S    
O20   V3    S    
O25   V3    S    
C92   H33   S    
N1    N2    A    
C50   C51   A    
C21   C22   A    
N23   H64   S    
C43   N17   S    
O4    V1    S    
N13   H20   S    
C8    C9    A    
C24   N26   S    
C31   N6    A    
C29   N13   S    
N5    C44   S    
C72   H10   S    
C67   C68   A    
C82   C83   A    
O27   C88   A    
C91   H25   S    
V1    O10   S    
C90   H17   S    
C79   C80   A    
O9    C4    A    
C34   C35   A    
C98   H61   S    
C93   H36   S    
O8    C3    A    
O39   C99   S    
C81   C82   A    
N4    C12   A    
C55   O33   S    
