data_mof_unit_10103.cif
_audit_creation_date              2012-12-10T19:50:31-0500
_audit_creation_method            fapswitch 2.2
_symmetry_space_group_name_H-M    P1
_symmetry_Int_Tables_number       1
_space_group_crystal_system       triclinic
_cell_length_a                    18.306207
_cell_length_b                    18.278308
_cell_length_c                    18.274233
_cell_angle_alpha                 119.692562
_cell_angle_beta                  90.469106
_cell_angle_gamma                 119.864252
_cell_volume                      4334.85102354

loop_
_atom_site_label
_atom_site_type_symbol
_atom_type_description
_atom_site_fract_x
_atom_site_fract_y
_atom_site_fract_z
_atom_type_partial_charge
C1    C     C_R   0.639855 0.779980 0.642677 0.491912
C2    C     C_R   0.256396 0.943458 0.161637 -0.116360
C3    C     C_R   0.199351 0.890381 0.194775 0.010239
C4    C     C_R   0.362727 0.220308 0.359975 0.520448
C5    C     C_R   0.204640 0.948256 0.282359 -0.030298
C6    C     C_3   0.161592 0.940704 0.349514 -0.287326
C7    C     C_3   0.222369 0.060210 0.409213 0.023000
C8    C     C_R   0.787187 0.580672 0.340328 -0.002677
C9    C     C_R   0.695035 0.504469 0.303272 0.054478
C10   C     C_R   0.656020 0.435118 0.209539 -0.152137
C11   C     C_R   0.709870 0.436078 0.155897 -0.147077
C12   C     C_3   0.799776 0.599691 0.832214 0.252532
C13   C     C_R   0.803618 0.506006 0.195224 0.025952
C14   C     C_R   0.840471 0.582877 0.287314 -0.034583
C15   C     C_3   0.917710 0.621401 0.358109 -0.058464
C16   C     C_R   0.362786 0.502143 0.642552 0.515555
C17   C     C_3   0.858121 0.617384 0.416419 -0.109742
C18   C     C_R   0.786353 0.946710 0.717998 0.029675
C19   C     C_R   0.695777 0.891739 0.708270 -0.003552
C20   C     C_R   0.662683 0.947504 0.763692 -0.014042
C21   C     C_R   0.717507 0.055984 0.813344 -0.119775
C22   C     C_R   0.804576 0.108484 0.811526 -0.000969
C23   C     C_3   0.696796 0.528961 0.795497 -0.000456
C24   C     C_R   0.839879 0.052771 0.769161 0.028319
C25   C     C_3   0.890055 0.055689 0.705493 -0.263310
C26   C     C_3   0.830980 0.938460 0.649002 -0.264022
C27   C     C_R   0.242442 0.519869 0.330941 -0.050472
C28   C     C_R   0.639939 0.500002 0.359867 0.498694
C29   C     C_R   0.304155 0.498979 0.302007 0.059221
C30   C     C_R   0.304679 0.466319 0.213991 0.235142
C31   C     C_R   0.247670 0.462836 0.159886 -0.128385
C32   C     C_R   0.193522 0.495444 0.194200 -0.036405
C33   C     C_R   0.186643 0.516128 0.276847 -0.044749
C34   C     C_3   0.698982 0.436594 0.771256 0.208009
C35   C     C_3   0.189328 0.603544 0.354571 0.206964
C36   C     C_3   0.252823 0.608865 0.415166 0.161642
C37   C     C_R   0.273579 0.558518 0.721190 -0.024418
C38   C     C_R   0.311600 0.504506 0.702966 -0.004372
C39   C     C_R   0.294590 0.449787 0.743162 -0.014531
C40   C     C_R   0.360290 0.501258 0.358731 0.533892
C41   C     C_R   0.235585 0.446714 0.792452 -0.130847
C42   C     C_R   0.197362 0.501005 0.806911 -0.001863
C43   C     C_R   0.219462 0.556916 0.770656 0.063539
C44   C     C_3   0.208393 0.630324 0.766776 0.162248
C45   C     C_3   0.699821 0.409757 0.676890 -0.196501
C46   C     C_3   0.269675 0.631689 0.709099 -0.224194
C47   C     C_R   0.859934 0.500454 0.139991 0.487438
C48   C     C_R   0.139902 0.500089 0.860352 0.513166
C49   C     C_R   0.139768 0.779478 0.139720 0.500414
C50   C     C_R   0.859954 0.219970 0.860253 0.501626
C51   C     C_R   0.141105 0.499850 0.140874 0.502288
C52   C     C_R   0.641558 0.500439 0.641932 0.557689
C53   C     C_R   0.858537 0.501798 0.860305 0.507419
C54   C     C_3   0.801261 0.574236 0.738693 0.293528
C55   C     C_3   0.804009 0.481472 0.713969 -0.210742
C56   C     C_3   0.698660 0.503556 0.701974 0.019432
C57   C     C_3   0.802106 0.507072 0.808123 0.008086
C58   C     C_2   0.169857 0.106488 0.426752 0.299386
C59   C     C_2   0.292752 0.106089 0.491815 0.226157
C60   C     C_2   0.995558 0.729159 0.393434 0.221493
C61   C     C_2   0.832442 0.537495 0.435071 0.212272
C62   C     C_2   0.573339 0.896117 0.772638 0.231436
C63   C     C_3   0.918057 0.643537 0.690760 0.013573
C64   C     C_3   0.972681 0.729672 0.677921 -0.257203
C65   C     C_3   0.039316 0.717407 0.632421 -0.490898
C66   C     C_3   0.441356 0.527590 0.197571 0.017531
C67   C     C_R   0.257868 0.052248 0.333866 0.026709
C68   C     C_3   0.505241 0.498668 0.163878 -0.245698
C69   C     C_3   0.595576 0.592134 0.184747 -0.489894
C70   C     C_3   0.048206 0.480849 0.352182 0.010479
C71   C     C_3   0.978640 0.403209 0.257501 -0.237027
C72   C     C_3   0.906889 0.301889 0.243673 -0.462067
C73   C     C_3   0.365842 0.766685 0.545878 0.026251
C74   C     C_3   0.321641 0.824334 0.569654 -0.288989
C75   C     C_3   0.365075 0.914935 0.668122 -0.467896
C76   C     C_3   0.889984 0.724062 0.984901 0.007144
C77   C     C_3   0.825113 0.674531 0.024939 -0.295915
C78   C     C_R   0.312960 0.108837 0.303568 0.002154
C79   C     C_3   0.875957 0.696237 0.107822 -0.451810
C80   C     C_2   0.340769 0.401517 0.741564 0.287308
C81   C     C_3   0.216414 0.780839 0.860582 0.039377
C82   C     C_3   0.262397 0.844303 0.823144 -0.278158
C83   C     C_3   0.240556 0.922389 0.848338 -0.461555
C84   C     C_2   0.638455 0.555580 0.843147 0.248529
C85   C     C_3   0.558360 0.298864 0.738297 0.015521
C86   C     C_3   0.502731 0.239797 0.776083 -0.263055
C87   C     C_3   0.403466 0.166447 0.720364 -0.455253
C88   C     C_2   0.380669 0.103452 0.180576 0.250841
C89   C     C_R   0.315245 0.052456 0.215727 -0.021988
H1    H     H_    0.848185 0.461226 0.681407 0.105386
H2    H     H_    0.785435 0.902818 0.583044 0.131199
H3    H     H_    0.868251 0.904873 0.646687 0.149174
H4    H     H_    0.250087 0.440720 0.093359 0.156976
H5    H     H_    0.222301 0.672614 0.352932 0.179749
H6    H     H_    0.225979 0.587642 0.461312 0.095136
H7    H     H_    0.222519 0.405225 0.822708 0.185332
H8    H     H_    0.137545 0.593352 0.730819 0.080500
H9    H     H_    0.234703 0.595394 0.638336 0.085879
H10   H     H_    0.335935 0.707151 0.741601 0.172282
H11   H     H_    0.657918 0.332009 0.612717 0.116770
H12   H     H_    0.177703 0.904123 0.374397 0.172765
H13   H     H_    0.256964 0.899880 0.094716 0.174998
H14   H     H_    0.088919 0.905626 0.324947 0.124469
H15   H     H_    0.127499 0.096921 0.467098 0.113348
H16   H     H_    0.330545 0.074111 0.486774 0.084027
H17   H     H_    0.985279 0.788812 0.411841 0.088611
H18   H     H_    0.818510 0.550464 0.496248 0.131310
H19   H     H_    0.539965 0.819479 0.757576 0.142397
H20   H     H_    0.886302 0.567870 0.624779 0.123290
H21   H     H_    0.964177 0.651234 0.738545 0.131695
H22   H     H_    0.927059 0.728605 0.636306 0.170033
H23   H     H_    0.584510 0.376797 0.177671 0.144051
H24   H     H_    0.009547 0.805453 0.744199 0.177499
H25   H     H_    0.083680 0.714606 0.671154 0.136928
H26   H     H_    0.081106 0.783775 0.628170 0.168480
H27   H     H_    0.003439 0.645263 0.563616 0.166154
H28   H     H_    0.474104 0.590007 0.270779 0.129066
H29   H     H_    0.427849 0.556587 0.161734 0.125899
H30   H     H_    0.515758 0.465559 0.196478 0.196604
H31   H     H_    0.474882 0.439123 0.090336 0.174072
H32   H     H_    0.586701 0.626726 0.152787 0.153468
H33   H     H_    0.639673 0.567826 0.158315 0.152866
H34   H     H_    0.678206 0.378679 0.084218 0.152550
H35   H     H_    0.628508 0.650993 0.258247 0.146636
H36   H     H_    0.012258 0.488992 0.401261 0.165435
H37   H     H_    0.083396 0.449984 0.362478 0.102373
H38   H     H_    0.946056 0.435583 0.245734 0.187885
H39   H     H_    0.011261 0.386276 0.206516 0.160659
H40   H     H_    0.937746 0.266555 0.252886 0.149634
H41   H     H_    0.857936 0.247335 0.174677 0.159323
H42   H     H_    0.870673 0.315264 0.291893 0.195341
H43   H     H_    0.439667 0.823945 0.572344 0.182590
H44   H     H_    0.351492 0.726254 0.579253 0.135005
H45   H     H_    0.936528 0.566866 0.337834 0.203402
H46   H     H_    0.328058 0.853891 0.527866 0.184899
H47   H     H_    0.249293 0.770534 0.555749 0.176094
H48   H     H_    0.365349 0.888658 0.711275 0.177918
H49   H     H_    0.326831 0.949342 0.685042 0.143500
H50   H     H_    0.435081 0.974970 0.681564 0.173721
H51   H     H_    0.931290 0.808975 0.035553 0.166577
H52   H     H_    0.938760 0.704447 0.974144 0.162139
H53   H     H_    0.784677 0.706204 0.043640 0.167164
H54   H     H_    0.778658 0.589722 0.975629 0.168612
H55   H     H_    0.915261 0.663029 0.089977 0.151556
H56   H     H_    0.880564 0.693871 0.477143 0.077510
H57   H     H_    0.827734 0.660349 0.135791 0.145269
H58   H     H_    0.922029 0.780674 0.159841 0.144531
H59   H     H_    0.407676 0.431945 0.738031 0.180731
H60   H     H_    0.231207 0.834691 0.933041 0.188875
H61   H     H_    0.142197 0.731513 0.829159 0.108227
H62   H     H_    0.336117 0.886372 0.850185 0.214384
H63   H     H_    0.239978 0.791715 0.749078 0.133598
H64   H     H_    0.167090 0.882878 0.824901 0.146604
H65   H     H_    0.271220 0.963695 0.816794 0.149103
H66   H     H_    0.267760 0.979880 0.922091 0.204777
H67   H     H_    0.692304 0.099539 0.853265 0.184778
H68   H     H_    0.637223 0.560901 0.904835 0.101425
H69   H     H_    0.551250 0.242606 0.669496 0.139863
H70   H     H_    0.531982 0.340989 0.735212 0.160723
H71   H     H_    0.526352 0.194724 0.777120 0.181414
H72   H     H_    0.511745 0.295600 0.845943 0.176251
H73   H     H_    0.378265 0.210233 0.719588 0.230920
H74   H     H_    0.365098 0.125816 0.750258 0.145916
H75   H     H_    0.392388 0.108221 0.650653 0.151059
H76   H     H_    0.441372 0.180534 0.225555 0.135662
H77   H     H_    0.878866 0.088258 0.672432 0.135010
H78   H     H_    0.961363 0.089610 0.735635 0.158632
O1    O     O_3   0.500000 0.500000 0.500000 -0.458089
O2    O     O_R   0.945260 0.268310 0.884540 -0.535126
O3    O     O_R   0.117230 0.560570 0.177940 -0.523127
O4    O     O_R   0.676910 0.731570 0.616180 -0.528906
O5    O     O_R   0.821960 0.439250 0.882690 -0.491774
O6    O     O_R   0.117230 0.439140 0.056500 -0.548306
O7    O     O_R   0.943400 0.560680 0.882690 -0.577513
O8    O     O_R   0.115380 0.731510 0.054650 -0.560199
O9    O     O_R   0.823040 0.268340 0.883770 -0.543749
O10   O     O_R   0.945260 0.560610 0.176860 -0.528742
O11   O     O_R   0.116150 0.439180 0.884540 -0.555605
O12   O     O_R   0.384580 0.439270 0.616180 -0.524840
O13   O     O_R   0.384580 0.268400 0.445300 -0.503861
O14   O     O_R   0.383810 0.560730 0.615410 -0.553490
O15   O     O_R   0.554700 0.439300 0.323100 -0.565075
O16   O     O_R   0.382730 0.560770 0.443450 -0.534479
O17   O     O_R   0.678000 0.560660 0.617260 -0.506811
O18   O     O_R   0.382730 0.439340 0.322020 -0.496254
O19   O     O_R   0.556550 0.439230 0.617260 -0.534094
O20   O     O_2   0.174448 0.154801 0.396815 -0.501365
O21   O     O_2   0.308787 0.179643 0.564553 -0.481062
O22   O     O_2   0.071051 0.750301 0.401672 -0.486463
O23   O     O_R   0.676910 0.560700 0.445300 -0.560068
O24   O     O_2   0.823103 0.456550 0.380937 -0.544069
O25   O     O_2   0.536598 0.940104 0.799238 -0.544310
O26   O     O_3   0.851776 0.652141 0.724655 -0.510544
O27   O     O_3   0.361266 0.439189 0.180704 -0.537879
O28   O     O_3   0.106411 0.580147 0.369855 -0.555884
O29   O     O_3   0.340997 0.699054 0.452175 -0.580397
O30   O     O_3   0.845751 0.704064 0.906879 -0.535650
O31   O     O_2   0.305285 0.328456 0.747286 -0.504127
O32   O     O_3   0.250926 0.724250 0.852912 -0.534625
O33   O     O_2   0.592307 0.571348 0.813201 -0.519469
O34   O     O_R   0.554700 0.731600 0.615410 -0.569420
O35   O     O_3   0.648822 0.367069 0.793867 -0.550085
O36   O     O_2   0.368503 0.058650 0.100385 -0.526684
O37   O     O_R   0.383810 0.268430 0.323100 -0.552613
O38   O     O_3   0.999960 0.499910 0.999960 -0.451507
O39   O     O_R   0.823040 0.439210 0.054650 -0.549546
O40   O     O_R   0.115380 0.560640 0.883770 -0.517960
O41   O     O_R   0.116150 0.731480 0.176860 -0.527114
Zn1   Zn    Zn3+2 0.457170 0.413230 0.543930 1.002355
Zn2   Zn    Zn3+2 0.456070 0.586770 0.542830 0.931891
Zn3   Zn    Zn3+2 0.456070 0.413270 0.369320 0.956747
Zn4   Zn    Zn3+2 0.630690 0.586730 0.543930 0.946915
Zn5   Zn    Zn3+2 0.042790 0.586680 0.956030 0.917530
Zn6   Zn    Zn3+2 0.043880 0.586640 0.130630 0.957917
Zn7   Zn    Zn3+2 0.043880 0.413140 0.957130 0.934879
Zn8   Zn    Zn3+2 0.869270 0.413190 0.956030 0.944929

loop_
_geom_bond_atom_site_label_1
_geom_bond_atom_site_label_2
_ccdc_geom_bond_type
C8    C9    A    
C66   C68   S    
C46   H10   S    
C37   C43   A    
C42   C43   A    
C27   C29   A    
C41   C42   A    
O1    Zn4   S    
C87   H74   S    
C35   C36   S    
C18   C26   S    
C5    C67   A    
C1    O34   A    
C48   O11   A    
C81   C82   S    
C3    C49   S    
C23   C56   S    
C39   C41   A    
C15   H45   S    
C30   O27   S    
C85   C86   S    
C27   C33   A    
O16   Zn2   S    
C12   C23   S    
C29   C30   A    
O11   Zn7   S    
C18   C24   A    
O8    Zn5   S    
C21   C22   A    
O6    Zn7   S    
C34   O35   S    
C55   H1    S    
C76   O30   S    
C68   H30   S    
C60   O22   D    
C30   C31   A    
C4    O37   A    
C41   H7    S    
C62   H19   S    
C2    H13   S    
C26   H3    S    
C81   H61   S    
O40   Zn5   S    
C42   C48   S    
O37   Zn3   S    
C50   O9    A    
C18   C19   A    
C65   H25   S    
C6    H12   S    
C51   O6    A    
O23   Zn4   S    
C77   H53   S    
C28   O15   A    
C53   O5    A    
C17   C61   S    
C79   H55   S    
O38   Zn8   S    
C70   O28   S    
C66   H28   S    
C74   H47   S    
C68   H31   S    
C34   C57   S    
C8    C14   A    
C12   O30   S    
O9    Zn8   S    
C10   H23   S    
C70   C71   S    
C9    C10   A    
C7    C58   S    
C82   H62   S    
C16   O12   A    
C35   O28   S    
C22   C50   S    
C40   O16   A    
C76   H52   S    
C70   H37   S    
C76   H51   S    
C87   H75   S    
C46   H9    S    
C73   H43   S    
O38   Zn5   S    
C54   O26   S    
C13   C14   A    
C65   H26   S    
O1    Zn3   S    
C71   H38   S    
C67   C78   A    
C52   O19   A    
C36   O29   S    
C4    O13   A    
O1    Zn1   S    
C7    C59   S    
C66   O27   S    
C44   C46   S    
C53   O7    A    
O17   Zn4   S    
C79   H57   S    
C77   C79   S    
C78   C89   A    
C38   C39   A    
O2    Zn7   S    
C54   C56   S    
C1    C19   S    
C74   C75   S    
O1    Zn2   S    
C72   H40   S    
C24   C25   S    
C45   C56   S    
C23   C84   S    
C83   H65   S    
C53   C57   S    
C16   O14   A    
C68   C69   S    
C64   H22   S    
C62   O25   D    
C40   O18   A    
C69   H35   S    
C26   H2    S    
C31   H4    S    
C75   H49   S    
C25   H78   S    
C32   C33   A    
O14   Zn2   S    
C63   H20   S    
C2    C89   A    
C17   H56   S    
C43   C44   S    
C77   H54   S    
C32   C51   S    
C4    C78   S    
C37   C38   A    
C44   H8    S    
C31   C32   A    
C49   O41   A    
C69   H32   S    
C23   C34   S    
C80   O31   D    
C74   H46   S    
C20   C21   A    
C63   O26   S    
C59   O21   D    
C86   H72   S    
C59   H16   S    
C6    H14   S    
C76   C77   S    
O38   Zn7   S    
C34   C45   S    
C85   O35   S    
O3    Zn6   S    
C12   C57   S    
C70   H36   S    
C73   H44   S    
O38   Zn6   S    
C82   C83   S    
C55   C57   S    
C75   H48   S    
C25   H77   S    
C65   H27   S    
C22   C24   A    
C71   H39   S    
O19   Zn1   S    
C58   H15   S    
C85   H69   S    
C73   C74   S    
O34   Zn2   S    
C49   O8    A    
C60   H17   S    
C72   H42   S    
C13   C47   S    
C35   H5    S    
O39   Zn8   S    
C15   C17   S    
C54   C55   S    
O41   Zn6   S    
C64   H24   S    
C47   O39   A    
C58   O20   D    
C86   C87   S    
O10   Zn6   S    
C51   O3    A    
C11   H34   S    
C52   O17   A    
C3    C5    A    
C45   H11   S    
C28   O23   A    
C81   O32   S    
C79   H58   S    
C84   H68   S    
C72   H41   S    
C6    C7    S    
C83   H64   S    
C27   C36   S    
O12   Zn1   S    
C8    C17   S    
O7    Zn5   S    
C39   C80   S    
C19   C20   A    
C2    C3    A    
C25   C26   S    
C71   C72   S    
C47   O10   A    
C75   H50   S    
C64   C65   S    
O4    Zn4   S    
C11   C13   A    
C36   H6    S    
O18   Zn3   S    
C5    C6    S    
C69   H33   S    
C63   H21   S    
C81   H60   S    
C48   O40   A    
O15   Zn3   S    
C33   C35   S    
C21   H67   S    
C1    O4    A    
C50   O2    A    
C84   O33   D    
C88   O36   D    
C20   C62   S    
O13   Zn1   S    
C61   H18   S    
C12   C54   S    
C10   C11   A    
C7    C67   S    
C63   C64   S    
C80   H59   S    
C87   H73   S    
C83   H66   S    
C88   C89   S    
C45   C55   S    
C44   O32   S    
C88   H76   S    
C66   H29   S    
C73   O29   S    
C61   O24   D    
C14   C15   S    
C85   H70   S    
C29   C40   S    
C37   C46   S    
O5    Zn8   S    
C86   H71   S    
C15   C60   S    
C82   H63   S    
C52   C56   S    
C9    C28   S    
C16   C38   S    
