data_mof_unit_28454.cif
_audit_creation_date              2012-12-10T18:26:20-0500
_audit_creation_method            fapswitch 2.2
_symmetry_space_group_name_H-M    P1
_symmetry_Int_Tables_number       1
_space_group_crystal_system       triclinic
_cell_length_a                    14.958169
_cell_length_b                    14.005955
_cell_length_c                    23.418954
_cell_angle_alpha                 90.010163
_cell_angle_beta                  90.062745
_cell_angle_gamma                 90.229583
_cell_volume                      4906.30905774

loop_
_atom_site_label
_atom_site_type_symbol
_atom_type_description
_atom_site_fract_x
_atom_site_fract_y
_atom_site_fract_z
_atom_type_partial_charge
C1    C     C_R   0.326717 0.499936 0.500131 0.893447
C2    C     C_R   0.673337 0.500085 0.500076 0.892051
C3    C     C_R   0.523203 0.414164 0.238553 -0.105061
C4    C     C_R   0.515419 0.582235 0.762756 -0.100147
C5    C     C_R   0.523844 0.415516 0.297791 -0.215961
C6    C     C_R   0.516026 0.583539 0.703479 -0.224010
C7    C     C_R   0.500267 0.499132 0.327121 -0.040748
C8    C     C_R   0.497986 0.499431 0.672935 -0.041116
C9    C     C_R   0.475820 0.581199 0.296641 -0.231210
C10   C     C_R   0.478482 0.414436 0.702260 -0.221626
C11   C     C_R   0.474256 0.579185 0.237364 -0.103337
C12   C     C_R   0.477291 0.413611 0.761498 -0.107669
C13   C     C_R   0.498286 0.495921 0.208476 0.326848
C14   C     C_R   0.496018 0.497395 0.791625 0.325800
C15   C     C_R   0.814488 0.570693 0.469992 -0.220090
C16   C     C_R   0.185825 0.431384 0.532275 -0.245046
C17   C     C_R   0.768915 0.500127 0.500256 -0.088718
C18   C     C_R   0.231241 0.500191 0.500564 -0.078943
C19   C     C_R   0.814143 0.429605 0.530623 -0.215653
C20   C     C_R   0.186001 0.570274 0.469953 -0.205700
C21   C     C_R   0.906667 0.430246 0.531891 0.086794
C22   C     C_R   0.093542 0.570758 0.469719 0.080334
C23   C     C_R   0.500185 0.499909 0.389268 0.872987
C24   C     C_R   0.499565 0.499946 0.610753 0.876268
C25   C     C_R   0.953573 0.500755 0.500815 -0.003901
C26   C     C_R   0.046658 0.500677 0.501162 -0.005244
C27   C     C_R   0.907261 0.571102 0.469244 0.019793
C28   C     C_R   0.093028 0.430924 0.533160 0.031970
C29   C     C_R   0.952673 0.361942 0.563942 -0.341587
C30   C     C_R   0.047630 0.639913 0.438364 -0.324152
C31   C     C_R   0.045815 0.363026 0.565734 0.457092
C32   C     C_R   0.954432 0.639632 0.437171 0.463355
C33   C     C_R   0.559023 0.798194 0.466154 -0.004093
C34   C     C_R   0.438469 0.201775 0.531909 -0.012096
C35   C     C_R   0.440688 0.797670 0.533497 -0.008354
C36   C     C_R   0.560557 0.202368 0.467466 -0.004031
C37   C     C_R   0.438703 0.898449 0.534209 -0.094421
C38   C     C_R   0.561938 0.101592 0.466384 -0.099747
C39   C     C_R   0.560414 0.899078 0.464899 -0.101347
C40   C     C_R   0.436302 0.100898 0.532469 -0.095261
C41   C     C_R   0.499647 0.949419 0.499662 -0.064065
C42   C     C_R   0.499559 0.050553 0.499715 -0.058789
C43   C     C_R   0.377096 0.948803 0.568307 0.357755
C44   C     C_R   0.623726 0.051321 0.432483 0.330708
C45   C     C_R   0.619851 0.950327 0.429277 0.385042
C46   C     C_R   0.371455 0.049741 0.563882 0.352096
C47   C     C_R   0.576329 0.499944 0.880433 0.500164
C48   C     C_R   0.417840 0.490254 0.119724 0.500321
C49   C     C_R   0.416516 0.491352 0.880627 0.499282
C50   C     C_R   0.577660 0.498649 0.119468 0.499215
C51   C     C_R   0.415115 0.490482 0.940253 -0.013764
C52   C     C_R   0.579071 0.498535 0.059856 -0.013719
C53   C     C_R   0.496920 0.494656 0.970067 -0.022617
C54   C     C_R   0.497256 0.494327 0.030056 -0.022593
C55   C     C_R   0.578392 0.499350 0.940036 -0.014732
C56   C     C_R   0.415774 0.490015 0.060104 -0.014792
C57   C     C_R   0.334316 0.485917 0.970574 -0.163549
C58   C     C_R   0.659877 0.502924 0.029544 -0.163803
C59   C     C_R   0.334642 0.485703 0.030020 -0.162646
C60   C     C_R   0.659539 0.503338 0.970112 -0.162373
H1    H     H_    0.270689 0.482647 0.948519 0.190791
H2    H     H_    0.723507 0.506195 0.051596 0.190744
H3    H     H_    0.604904 0.757433 0.440180 0.168713
H4    H     H_    0.391302 0.242483 0.556960 0.164359
H5    H     H_    0.394702 0.756490 0.559359 0.174150
H6    H     H_    0.607372 0.243573 0.442220 0.164272
H7    H     H_    0.271258 0.482284 0.052260 0.191209
H8    H     H_    0.722922 0.506907 0.947876 0.191477
H9    H     H_    0.541743 0.349777 0.215939 0.138555
H10   H     H_    0.530328 0.646700 0.786455 0.133400
H11   H     H_    0.543291 0.351550 0.320566 0.164019
H12   H     H_    0.531550 0.649738 0.681669 0.162931
H13   H     H_    0.456827 0.646144 0.318539 0.161218
H14   H     H_    0.463818 0.348864 0.679503 0.162410
H15   H     H_    0.454352 0.641897 0.213646 0.131667
H16   H     H_    0.462399 0.347991 0.784082 0.137974
H17   H     H_    0.777197 0.623855 0.446280 0.193467
H18   H     H_    0.223348 0.379989 0.557102 0.176932
H19   H     H_    0.777158 0.375674 0.554155 0.151614
H20   H     H_    0.222938 0.623316 0.445670 0.150988
H21   H     H_    0.916529 0.307907 0.587821 0.163175
H22   H     H_    0.083881 0.693955 0.414551 0.162413
N1    N     N_R   0.496266 0.496127 0.852325 -0.358841
N2    N     N_R   0.497902 0.494647 0.147790 -0.358967
N3    N     N_R   0.500000 0.750030 0.500000 -0.127434
N4    N     N_R   0.500000 0.249970 0.500000 -0.124490
O1    O     O_R   0.367850 0.580280 0.500010 -0.623751
O2    O     O_R   0.632150 0.419720 0.499990 -0.630407
O3    O     O_R   0.632150 0.580280 0.499990 -0.619506
O4    O     O_R   0.367850 0.419720 0.500010 -0.628795
O5    O     O_R   0.499970 0.580290 0.416160 -0.631454
O6    O     O_R   0.500030 0.419710 0.583840 -0.625055
O7    O     O_R   0.500030 0.580290 0.583840 -0.625183
O8    O     O_R   0.499970 0.419710 0.416160 -0.619667
O9    O     O_2   0.653461 0.503845 0.850637 -0.559720
O10   O     O_2   0.340779 0.485826 0.149564 -0.560353
O11   O     O_2   0.339080 0.488109 0.851023 -0.565114
O12   O     O_2   0.655056 0.503393 0.149054 -0.565110
Zn1   Zn    Zn3+2 0.500000 0.607200 0.500000 0.944054
Zn2   Zn    Zn3+2 0.500000 0.392800 0.500000 0.942437
O13   O     O_3   0.090464 0.294306 0.596926 -0.633272
C61   C     C_3   0.099609 0.326955 0.653655 0.074661
H23   H     H_    0.033196 0.329637 0.675031 0.156633
H24   H     H_    0.131399 0.399096 0.655302 0.147282
C62   C     C_3   0.159112 0.258361 0.686512 -0.793956
H25   H     H_    0.225833 0.254165 0.665883 0.269424
H26   H     H_    0.167675 0.283896 0.731083 0.219830
H27   H     H_    0.128291 0.186110 0.687319 0.249986
O14   O     O_3   0.909368 0.708730 0.406495 -0.602166
C63   C     C_3   0.908681 0.682001 0.348356 0.083280
H28   H     H_    0.885185 0.606870 0.342567 0.137183
H29   H     H_    0.976641 0.690084 0.329597 0.148722
C64   C     C_3   0.844913 0.746592 0.315998 -0.778998
H30   H     H_    0.866218 0.822273 0.320532 0.259857
H31   H     H_    0.844564 0.727267 0.270012 0.209185
H32   H     H_    0.776253 0.737955 0.333245 0.260922
O15   O     O_3   0.317473 0.898459 0.602317 -0.660915
C65   C     C_3   0.338522 0.912128 0.660746 0.117618
H33   H     H_    0.276890 0.897459 0.685726 0.171967
H34   H     H_    0.358584 0.986885 0.671103 0.163198
C66   C     C_3   0.411293 0.842448 0.680155 -0.408610
H35   H     H_    0.389487 0.767974 0.671184 0.237175
H36   H     H_    0.474031 0.856661 0.656214 0.218541
C67   C     C_3   0.430329 0.852926 0.743858 -0.924771
H37   H     H_    0.450751 0.927390 0.753944 0.264263
H38   H     H_    0.485589 0.804566 0.756191 0.261707
H39   H     H_    0.370005 0.833952 0.769108 0.271493
O16   O     O_3   0.684561 0.101220 0.399439 -0.660465
C68   C     C_3   0.764655 0.112691 0.430682 0.089291
H40   H     H_    0.803648 0.045211 0.429057 0.187255
H41   H     H_    0.752126 0.131986 0.476277 0.123624
C69   C     C_3   0.819273 0.193280 0.403687 -0.328590
H42   H     H_    0.831392 0.176948 0.357893 0.235455
H43   H     H_    0.781031 0.261054 0.406423 0.223718
C70   C     C_3   0.908824 0.206218 0.433883 -0.959613
H44   H     H_    0.898411 0.220865 0.479982 0.271795
H45   H     H_    0.945712 0.267264 0.414752 0.273631
H46   H     H_    0.949522 0.140619 0.429050 0.272074
O17   O     O_3   0.677805 0.901245 0.393764 -0.643554
C71   C     C_3   0.651422 0.912602 0.336003 0.117516
H47   H     H_    0.711587 0.902550 0.309000 0.170181
H48   H     H_    0.626105 0.985413 0.325929 0.168917
C72   C     C_3   0.581221 0.837714 0.319150 -0.423255
H49   H     H_    0.607027 0.764983 0.328249 0.233076
H50   H     H_    0.519399 0.848719 0.344522 0.219331
C73   C     C_3   0.557968 0.845200 0.255880 -0.920920
H51   H     H_    0.534644 0.918359 0.245454 0.264054
H52   H     H_    0.503486 0.794228 0.245526 0.261148
H53   H     H_    0.617249 0.827921 0.229342 0.271422
O18   O     O_3   0.304028 0.098965 0.591630 -0.672856
C74   C     C_3   0.221872 0.085280 0.562445 0.110887
H54   H     H_    0.167374 0.105136 0.592250 0.201006
H55   H     H_    0.209472 0.009379 0.550517 0.164318
C75   C     C_3   0.215793 0.149179 0.509360 -0.354766
H56   H     H_    0.229068 0.224311 0.521630 0.249034
H57   H     H_    0.266782 0.127355 0.477532 0.208154
C76   C     C_3   0.123851 0.142385 0.481533 -0.915703
H58   H     H_    0.110974 0.068337 0.466561 0.255711
H59   H     H_    0.121021 0.191334 0.444287 0.269417
H60   H     H_    0.070944 0.163139 0.512275 0.294736

loop_
_geom_bond_atom_site_label_1
_geom_bond_atom_site_label_2
_ccdc_geom_bond_type
C16   C28   A    
C70   H46   S    
C58   H2    S    
C1    O4    A    
C8    C24   S    
C72   C73   S    
C35   N3    A    
C41   C42   A    
C71   C72   S    
C48   C56   A    
O16   C68   S    
C65   H34   S    
C4    H10   S    
C50   N2    A    
C70   H44   S    
C39   C41   A    
C53   C54   A    
C40   C46   A    
C62   H26   S    
C13   N2    S    
C1    C18   S    
C33   C39   A    
O3    Zn1   S    
C34   C40   A    
C31   O13   S    
C67   H38   S    
C35   C37   A    
C71   H48   S    
C73   H51   S    
O1    Zn1   S    
C10   C12   A    
C36   H6    S    
C57   C59   A    
C11   C13   A    
C35   H5    S    
C58   C60   A    
C72   H49   S    
C72   H50   S    
C45   O17   S    
C61   C62   S    
C15   C17   A    
C34   N4    A    
C74   C75   S    
C1    O1    A    
C33   N3    A    
C65   H33   S    
C66   C67   S    
C64   H30   S    
C59   H7    S    
C48   O10   S    
C63   H28   S    
C76   H58   S    
C69   H42   S    
C49   C51   A    
C50   C52   A    
C74   H54   S    
C2    O2    A    
C51   C57   A    
C47   N1    A    
N4    Zn2   S    
O7    Zn1   S    
C75   H57   S    
C3    C13   A    
C39   C45   A    
C64   H32   S    
C3    H9    S    
C40   C42   A    
C76   H59   S    
C55   C60   A    
C2    C17   S    
C29   C31   A    
C9    H13   S    
C14   N1    S    
C24   O6    A    
O4    Zn2   S    
C52   C54   A    
C73   H52   S    
C53   C55   A    
C62   H27   S    
C54   C56   A    
C50   O12   S    
C32   O14   S    
C20   H20   S    
O13   C61   S    
C71   H47   S    
C75   C76   S    
C4    C6    A    
C5    C7    A    
C6    C8    A    
C36   N4    A    
C25   C26   A    
C21   C29   A    
C48   N2    A    
C51   C53   A    
C65   C66   S    
C37   C43   A    
C2    O3    A    
C6    H12   S    
C38   C44   A    
N3    Zn1   S    
C73   H53   S    
C15   C27   A    
C24   O7    A    
O8    Zn2   S    
C33   H3    S    
C34   H4    S    
C75   H56   S    
C16   C18   A    
C61   H24   S    
C9    C11   A    
C63   C64   S    
C66   H35   S    
O2    Zn2   S    
C52   C58   A    
C43   O15   S    
C67   H39   S    
C69   H43   S    
C46   O18   S    
C12   C14   A    
C29   H21   S    
C76   H60   S    
C12   H16   S    
C23   O5    A    
C44   C45   A    
O6    Zn2   S    
C47   C55   A    
C68   H40   S    
C70   H45   S    
C21   C25   A    
C44   O16   S    
C30   H22   S    
C22   C30   A    
C19   C21   A    
C27   C32   A    
C28   C31   A    
C20   C22   A    
C3    C5    A    
C18   C20   A    
O17   C71   S    
C56   C59   A    
C57   H1    S    
C25   C27   A    
C62   H25   S    
C26   C28   A    
C23   O8    A    
C68   C69   S    
C36   C38   A    
C5    H11   S    
C4    C14   A    
C11   H15   S    
O15   C65   S    
C30   C32   A    
C10   H14   S    
C49   N1    A    
C15   H17   S    
C69   C70   S    
C7    C23   S    
C68   H41   S    
C17   C19   A    
C16   H18   S    
C74   H55   S    
C37   C41   A    
C61   H23   S    
C43   C46   A    
C63   H29   S    
C66   H36   S    
C49   O11   S    
C38   C42   A    
C7    C9    A    
C60   H8    S    
C8    C10   A    
C22   C26   A    
C47   O9    S    
O18   C74   S    
O5    Zn1   S    
O14   C63   S    
C19   H19   S    
C67   H37   S    
C64   H31   S    
