data_mof_unit_35134.cif
_audit_creation_date              2012-12-11T15:47:04-0500
_audit_creation_method            fapswitch 2.2
_symmetry_space_group_name_H-M    P1
_symmetry_Int_Tables_number       1
_space_group_crystal_system       triclinic
_cell_length_a                    20.176567
_cell_length_b                    7.257686
_cell_length_c                    13.524886
_cell_angle_alpha                 89.999324
_cell_angle_beta                  102.983564
_cell_angle_gamma                 90.000605
_cell_volume                      1929.88636589

loop_
_atom_site_label
_atom_site_type_symbol
_atom_type_description
_atom_site_fract_x
_atom_site_fract_y
_atom_site_fract_z
_atom_type_partial_charge
O1    O     O_R   0.449560 0.506810 0.599700 -0.535083
O2    O     O_R   0.550440 0.006810 0.400300 -0.535082
O3    O     O_R   0.587960 0.180060 0.595760 -0.545350
O4    O     O_R   0.412040 0.680060 0.404240 -0.545351
C1    C     C_R   0.614882 0.344202 0.617643 0.684474
C2    C     C_R   0.385118 0.844202 0.382357 0.684472
O5    O     O_R   0.452380 0.177430 0.611700 -0.537702
O6    O     O_R   0.547620 0.677430 0.388300 -0.537701
O7    O     O_R   0.413900 0.001890 0.416350 -0.540848
O8    O     O_R   0.586100 0.501890 0.583650 -0.540850
C3    C     C_R   0.436553 0.345597 0.637934 0.687505
C4    C     C_R   0.563449 0.845599 0.362068 0.687510
O9    O     O_3   0.487530 0.337490 0.435890 -0.377409
O10   O     O_3   0.512470 0.837490 0.564110 -0.377410
V1    V     V_3+5 0.502310 0.064660 0.511890 1.429046
V2    V     V_3+5 0.497690 0.564660 0.488110 1.429042
C5    C     C_R   0.608572 0.847032 0.107795 -0.115534
C6    C     C_R   0.391426 0.346859 0.892208 -0.115532
H1    H     H_    0.515372 0.842005 0.158975 0.120909
H2    H     H_    0.484627 0.341799 0.841031 0.120912
H3    H     H_    0.581613 0.842446 0.028966 0.167728
H4    H     H_    0.418385 0.342189 0.971038 0.167727
C7    C     C_R   0.602933 0.852645 0.283934 -0.024382
C8    C     C_R   0.397069 0.352627 0.716070 -0.024389
C9    C     C_R   0.930739 0.868555 0.317121 -0.271415
C10   C     C_R   0.069263 0.368618 0.682879 -0.271394
C11   C     C_R   0.894932 0.868208 0.394535 0.490047
C12   C     C_R   0.105071 0.368269 0.605468 0.490076
C13   C     C_R   0.823966 0.868365 0.369390 -0.204237
C14   C     C_R   0.176037 0.368400 0.630613 -0.204300
C15   C     C_R   0.786852 0.860163 0.267127 0.002670
C16   C     C_R   0.213149 0.360167 0.732877 0.002686
C17   C     C_R   0.824022 0.856485 0.189382 0.025253
C18   C     C_R   0.175979 0.356458 0.810620 0.025249
C19   C     C_R   0.714195 0.856956 0.239748 0.033951
C20   C     C_R   0.285806 0.356942 0.760256 0.033952
C21   C     C_R   0.680222 0.851104 0.135243 0.100319
C22   C     C_R   0.319777 0.350994 0.864760 0.100313
C23   C     C_R   0.717732 0.848404 0.059357 0.327878
C24   C     C_R   0.282267 0.348257 0.940645 0.327881
C25   C     C_R   0.788886 0.850827 0.087013 -0.260071
C26   C     C_R   0.211113 0.350728 0.912988 -0.260077
C27   C     C_R   0.673812 0.857857 0.312875 -0.188177
C28   C     C_R   0.326190 0.357911 0.687130 -0.188174
C29   C     C_R   0.570376 0.847124 0.181623 -0.199760
C30   C     C_R   0.429623 0.346983 0.818381 -0.199758
C31   C     C_R   0.896054 0.861446 0.215490 -0.101019
C32   C     C_R   0.103946 0.361458 0.784511 -0.101027
H5    H     H_    0.695452 0.859790 0.393245 0.093184
H6    H     H_    0.304552 0.359950 0.606760 0.093184
H7    H     H_    0.985728 0.877851 0.335850 0.109296
H8    H     H_    0.014275 0.377938 0.664145 0.109300
H9    H     H_    0.799797 0.875137 0.432561 0.130354
H10   H     H_    0.200205 0.375164 0.567441 0.130343
H11   H     H_    0.816630 0.848488 0.027175 0.108034
H12   H     H_    0.183368 0.348362 0.972825 0.108042
C33   C     C_R   0.217744 0.023280 0.222464 -0.149685
C34   C     C_R   0.782254 0.523280 0.777540 -0.149645
H13   H     H_    0.194024 0.156233 0.203053 0.116928
H14   H     H_    0.805974 0.656234 0.796956 0.116933
C35   C     C_R   0.282926 0.018824 0.285868 -0.144171
C36   C     C_R   0.717073 0.518825 0.714137 -0.144175
H15   H     H_    0.307079 0.147968 0.313374 0.120685
H16   H     H_    0.692918 0.647969 0.686635 0.120685
C37   C     C_R   0.316219 0.850178 0.313466 -0.039928
C38   C     C_R   0.683781 0.350178 0.686534 -0.039930
C39   C     C_R   0.282565 0.686116 0.275361 -0.140712
C40   C     C_R   0.717436 0.186116 0.724634 -0.140700
H17   H     H_    0.306433 0.553283 0.294606 0.122056
H18   H     H_    0.693570 0.053282 0.705385 0.122054
C41   C     C_R   0.217383 0.690534 0.211962 -0.144449
C42   C     C_R   0.782618 0.190533 0.788032 -0.144462
H19   H     H_    0.193373 0.561307 0.184289 0.115240
H20   H     H_    0.806630 0.061305 0.815701 0.115236
C43   C     C_R   0.183881 0.859145 0.184843 -0.035178
C44   C     C_R   0.816119 0.359145 0.815156 -0.035178
O11   O     O_R   0.913920 0.203370 0.916260 -0.538905
O12   O     O_R   0.086080 0.703370 0.083740 -0.538904
O13   O     O_R   0.047620 0.535540 0.888290 -0.539296
O14   O     O_R   0.952380 0.035540 0.111710 -0.539299
C45   C     C_R   0.063780 0.368414 0.862253 0.709200
C46   C     C_R   0.936220 0.868411 0.137747 0.709195
O15   O     O_R   0.912040 0.532780 0.904220 -0.546778
O16   O     O_R   0.087960 0.032780 0.095780 -0.546782
O17   O     O_R   0.949550 0.708160 0.099720 -0.534427
O18   O     O_R   0.050450 0.208160 0.900280 -0.534427
C47   C     C_R   0.885389 0.364945 0.883133 0.675790
C48   C     C_R   0.114611 0.864946 0.116867 0.675781
O19   O     O_3   0.012480 0.375300 0.064060 -0.378382
O20   O     O_3   0.987520 0.875300 0.935940 -0.378377
V3    V     V_3+5 0.997690 0.648180 0.988110 1.415631
V4    V     V_3+5 0.002310 0.148180 0.011890 1.415613
O21   O     O_3   0.683854 0.843007 0.958359 -0.652766
H21   H     H_    0.717438 0.841766 0.914892 0.282974
O22   O     O_3   0.316143 0.342780 0.041643 -0.652765
H22   H     H_    0.282559 0.341532 0.085111 0.282977
O23   O     O_3   0.927720 0.885545 0.495695 -0.570933
C49   C     C_3   0.971331 0.733910 0.525559 -0.232744
H23   H     H_    0.017998 0.745829 0.495388 0.165260
H24   H     H_    0.945164 0.600320 0.502589 0.149767
H25   H     H_    0.987630 0.733874 0.609544 0.165281
O24   O     O_3   0.072277 0.385645 0.504316 -0.570925
C50   C     C_3   0.028770 0.233825 0.474410 -0.233030
H26   H     H_    0.982147 0.245256 0.504728 0.165457
H27   H     H_    0.055067 0.100343 0.497198 0.149572
H28   H     H_    0.012379 0.234028 0.390433 0.165328

loop_
_geom_bond_atom_site_label_1
_geom_bond_atom_site_label_2
_ccdc_geom_bond_type
C34   C36   A    
O15   C47   A    
O11   V4    S    
O4    V2    S    
O21   H21   S    
C7    C29   A    
C11   C13   A    
C38   C40   A    
O22   H22   S    
O1    C3    A    
C42   C44   A    
O2    C4    A    
C2    O7    A    
O23   C49   S    
O17   V3    S    
C34   C44   A    
C23   C25   A    
O5    C3    A    
C14   H10   S    
C4    C7    S    
C16   C20   A    
C22   C24   A    
C5    C29   A    
C33   H13   S    
C34   H14   S    
C3    C8    S    
C7    C27   A    
C32   C45   S    
C31   C46   S    
C35   H15   S    
C23   O21   S    
C36   H16   S    
C26   H12   S    
C2    C37   S    
C25   H11   S    
C37   C39   A    
C18   C26   A    
C15   C17   A    
C14   C16   A    
C19   C27   A    
C9    C31   A    
O13   V3    S    
C45   O18   A    
C10   C32   A    
C24   C26   A    
O6    V2    S    
C13   C15   A    
C6    C30   A    
O12   C48   A    
C36   C38   A    
C42   H20   S    
C41   H19   S    
C27   H5    S    
C5    H3    S    
C40   C42   A    
C39   H17   S    
C16   C18   A    
O14   V4    S    
C9    H7    S    
C10   H8    S    
O6    C4    A    
C50   H27   S    
O1    V2    S    
C5    C21   A    
O19   V4    S    
O2    V1    S    
C44   C47   S    
C12   O24   S    
O4    C2    A    
C49   H24   S    
C17   C31   A    
C15   C19   A    
C20   C28   A    
C18   C32   A    
C24   O22   S    
C20   C22   A    
C46   O17   A    
O3    V1    S    
O13   C45   A    
C28   H6    S    
C11   O23   S    
C19   C21   A    
C6    H4    S    
O16   C48   A    
C1    C38   S    
O3    C1    A    
H1    C29   S    
C33   C35   A    
O12   V3    S    
C9    C11   A    
C49   H25   S    
O15   V3    S    
C10   C12   A    
C8    C30   A    
C33   C43   A    
C12   C14   A    
C6    C22   A    
C17   C25   A    
C1    O8    A    
C21   C23   A    
O8    V2    S    
C41   C43   A    
O20   V3    S    
C13   H9    S    
C8    C28   A    
O5    V1    S    
O14   C46   A    
C50   H28   S    
C39   C41   A    
O7    V1    S    
O24   C50   S    
C35   C37   A    
C43   C48   S    
O11   C47   A    
C40   H18   S    
C49   H23   S    
O9    V2    S    
C50   H26   S    
O10   V1    S    
O18   V4    S    
O16   V4    S    
H2    C30   S    
