data_mof_unit_7837.cif
_audit_creation_date              2012-12-11T14:39:40-0500
_audit_creation_method            fapswitch 2.2
_symmetry_space_group_name_H-M    P1
_symmetry_Int_Tables_number       1
_space_group_crystal_system       triclinic
_cell_length_a                    7.244879
_cell_length_b                    13.63147
_cell_length_c                    16.743902
_cell_angle_alpha                 90.000383
_cell_angle_beta                  96.501344
_cell_angle_gamma                 90.001804
_cell_volume                      1642.96617373

loop_
_atom_site_label
_atom_site_type_symbol
_atom_type_description
_atom_site_fract_x
_atom_site_fract_y
_atom_site_fract_z
_atom_type_partial_charge
O1    O     O_R   0.525340 0.338340 0.164530 -0.547971
O2    O     O_R   0.474660 0.661660 0.835470 -0.547973
O3    O     O_R   0.974660 0.838340 0.835470 -0.547978
O4    O     O_R   0.025340 0.161660 0.164530 -0.547974
O5    O     O_R   0.253520 0.352000 0.336710 -0.537359
O6    O     O_R   0.746480 0.648000 0.663290 -0.537371
O7    O     O_R   0.246480 0.852000 0.663290 -0.537370
O8    O     O_R   0.753520 0.148000 0.336710 -0.537376
O9    O     O_R   0.083330 0.168380 0.337300 -0.508991
O10   O     O_R   0.916670 0.831620 0.662700 -0.508985
O11   O     O_R   0.416670 0.668380 0.662700 -0.508996
O12   O     O_R   0.583330 0.331620 0.337300 -0.509005
C1    C     C_R   0.431171 0.372130 0.361628 0.844456
C2    C     C_R   0.568828 0.627868 0.638373 0.844474
C3    C     C_R   0.068830 0.872138 0.638377 0.844479
C4    C     C_R   0.931171 0.127863 0.361623 0.844480
O13   O     O_R   0.195840 0.349670 0.165140 -0.547294
O14   O     O_R   0.804160 0.650330 0.834860 -0.547296
O15   O     O_R   0.304160 0.849670 0.834860 -0.547293
O16   O     O_R   0.695840 0.150330 0.165140 -0.547306
C5    C     C_R   0.356926 0.369940 0.136423 0.731375
C6    C     C_R   0.643074 0.630060 0.863576 0.731363
C7    C     C_R   0.143074 0.869947 0.863572 0.731337
C8    C     C_R   0.856927 0.130050 0.136430 0.731357
O17   O     O_3   0.387830 0.193120 0.250910 -0.381757
O18   O     O_3   0.612170 0.806880 0.749090 -0.381742
O19   O     O_3   0.112170 0.693120 0.749090 -0.381742
O20   O     O_3   0.887830 0.306880 0.250910 -0.381735
V1    V     V_3+5 0.113010 0.264540 0.250910 1.413307
V2    V     V_3+5 0.886990 0.735460 0.749090 1.413325
V3    V     V_3+5 0.386990 0.764540 0.749090 1.413305
V4    V     V_3+5 0.613010 0.235460 0.250910 1.413278
H1    H     H_    0.991577 0.774978 0.276657 0.139727
H2    H     H_    0.008342 0.224996 0.723348 0.139728
H3    H     H_    0.508451 0.274995 0.723351 0.139721
H4    H     H_    0.491577 0.725000 0.276654 0.139720
C9    C     C_R   0.940745 0.208269 0.521477 0.460394
C10   C     C_R   0.059209 0.791721 0.478525 0.460419
C11   C     C_R   0.559211 0.708274 0.478520 0.460434
C12   C     C_R   0.440764 0.291727 0.521482 0.460394
C13   C     C_R   0.950018 0.246707 0.599221 -0.240966
C14   C     C_R   0.049870 0.753270 0.400782 -0.240945
C15   C     C_R   0.549877 0.746716 0.400777 -0.240936
C16   C     C_R   0.450110 0.253283 0.599225 -0.240928
C17   C     C_R   0.000187 0.189661 0.665035 -0.163177
C18   C     C_R   0.999755 0.810321 0.334967 -0.163181
C19   C     C_R   0.499773 0.689661 0.334964 -0.163134
C20   C     C_R   0.500240 0.310335 0.665039 -0.163140
C21   C     C_R   0.035940 0.089877 0.657747 0.138082
C22   C     C_R   0.964131 0.910124 0.342248 0.138088
C23   C     C_R   0.464162 0.589867 0.342255 0.138049
C24   C     C_R   0.535856 0.410129 0.657749 0.138049
C25   C     C_R   0.016520 0.042984 0.579609 -0.044582
C26   C     C_R   0.983510 0.957014 0.420386 -0.044599
C27   C     C_R   0.483520 0.542979 0.420390 -0.044553
C28   C     C_R   0.516483 0.457019 0.579612 -0.044559
C29   C     C_R   0.972638 0.104207 0.510235 -0.054103
C30   C     C_R   0.027358 0.895788 0.489762 -0.054124
C31   C     C_R   0.527356 0.604209 0.489762 -0.054141
C32   C     C_R   0.472633 0.395790 0.510240 -0.054140
C33   C     C_R   0.038863 0.938860 0.568449 -0.160204
C34   C     C_R   0.961150 0.061138 0.431548 -0.160202
C35   C     C_R   0.461153 0.438856 0.431552 -0.160195
C36   C     C_R   0.538845 0.561142 0.568449 -0.160212
H5    H     H_    0.915673 0.322390 0.610009 0.134086
H6    H     H_    0.084150 0.677577 0.389994 0.134055
H7    H     H_    0.584145 0.822409 0.389988 0.134056
H8    H     H_    0.415835 0.177592 0.610013 0.134071
H9    H     H_    0.138260 0.065272 0.056839 0.156937
H10   H     H_    0.861742 0.934723 0.943164 0.156936
H11   H     H_    0.361739 0.565273 0.943164 0.156938
H12   H     H_    0.638260 0.434726 0.056836 0.156940
C37   C     C_2   0.149897 0.939840 0.931867 -0.326000
C38   C     C_2   0.850105 0.060156 0.068136 -0.326006
C39   C     C_2   0.350105 0.439835 0.068131 -0.325999
C40   C     C_2   0.649895 0.560165 0.931869 -0.325995
C41   C     C_2   0.996057 0.965326 0.965783 -0.133278
C42   C     C_2   0.003945 0.034669 0.034220 -0.133280
C43   C     C_2   0.503945 0.465326 0.034217 -0.133283
C44   C     C_2   0.496055 0.534673 0.965782 -0.133283
H13   H     H_    0.716363 0.029338 0.044917 0.126683
H14   H     H_    0.283638 0.970658 0.955085 0.126685
H15   H     H_    0.783637 0.529349 0.955087 0.126684
H16   H     H_    0.216363 0.470651 0.044912 0.126684
O21   O     O_3   0.875260 0.268324 0.456907 -0.549011
C45   C     C_3   0.946408 0.365084 0.463051 -0.161578
H17   H     H_    0.092775 0.367979 0.490543 0.121572
H18   H     H_    0.858456 0.412316 0.497161 0.105749
H19   H     H_    0.941075 0.396671 0.401858 0.169558
O22   O     O_3   0.124708 0.731670 0.543095 -0.549010
C46   C     C_3   0.053573 0.634908 0.536961 -0.161584
H20   H     H_    0.141523 0.587675 0.502851 0.105755
H21   H     H_    0.907202 0.632008 0.509476 0.121558
H22   H     H_    0.058925 0.603327 0.598156 0.169564
O23   O     O_3   0.624689 0.768334 0.543085 -0.549022
C47   C     C_3   0.553550 0.865089 0.536945 -0.161636
H23   H     H_    0.407199 0.867977 0.509451 0.121578
H24   H     H_    0.641500 0.912325 0.502843 0.105761
H25   H     H_    0.558877 0.896674 0.598134 0.169562
O24   O     O_3   0.375243 0.231672 0.456917 -0.549020
C48   C     C_3   0.446410 0.134919 0.463043 -0.161612
H26   H     H_    0.358496 0.087675 0.497158 0.105757
H27   H     H_    0.592782 0.132036 0.490519 0.121577
H28   H     H_    0.441047 0.103341 0.401848 0.169567
C49   C     C_3   0.092935 0.040018 0.736721 -0.792286
H29   H     H_    0.231388 0.005837 0.736381 0.204660
H30   H     H_    0.107790 0.091331 0.788654 0.196592
H31   H     H_    0.982428 0.988123 0.748804 0.205405
C50   C     C_3   0.907351 0.960012 0.263261 -0.792272
H32   H     H_    0.768900 0.994209 0.263548 0.204625
H33   H     H_    0.017939 0.011900 0.251240 0.205452
H34   H     H_    0.892600 0.908719 0.211312 0.196598
C51   C     C_3   0.407388 0.539987 0.263292 -0.792369
H35   H     H_    0.268911 0.505857 0.263580 0.204652
H36   H     H_    0.392777 0.591260 0.211334 0.196616
H37   H     H_    0.517870 0.488044 0.251307 0.205467
C52   C     C_3   0.592651 0.460003 0.736713 -0.792406
H38   H     H_    0.731113 0.494145 0.736421 0.204658
H39   H     H_    0.482162 0.511930 0.748714 0.205466
H40   H     H_    0.607304 0.408725 0.788664 0.196621

loop_
_geom_bond_atom_site_label_1
_geom_bond_atom_site_label_2
_ccdc_geom_bond_type
O1    C5    A    
C48   H26   S    
C12   C32   A    
C27   C31   A    
O13   V1    S    
O3    C7    A    
O23   C47   S    
C6    C40   S    
O15   V3    S    
C29   C34   A    
C41   C42   S    
C49   H30   S    
C31   C36   A    
C22   C26   A    
C32   C35   A    
H10   C41   S    
C9    O21   S    
O20   V1    S    
O9    C4    A    
C10   C14   A    
H12   C43   S    
O10   C3    A    
C50   H33   S    
O16   V4    S    
O4    C8    A    
O11   C2    A    
C45   H18   S    
C39   H16   S    
O6    C2    A    
C47   H25   S    
H4    C19   S    
C14   C18   A    
C10   C30   A    
C25   C33   A    
O16   C8    A    
C47   H24   S    
O2    C6    A    
C28   C36   A    
O14   V2    S    
C12   C16   A    
O5    C1    A    
O4    V1    S    
O9    V1    S    
C51   H37   S    
C24   C52   S    
O17   V4    S    
O7    C3    A    
O11   V3    S    
O18   V3    S    
C48   H27   S    
O12   V4    S    
O19   V2    S    
H1    C18   S    
H9    C42   S    
C4    C34   S    
C7    C37   S    
H3    C20   S    
C40   H15   S    
H11   C44   S    
O5    V1    S    
C11   C15   A    
C49   H31   S    
O7    V3    S    
O8    V4    S    
C50   H34   S    
C46   H20   S    
C25   C29   A    
C45   H17   S    
C19   C23   A    
C26   C34   A    
O21   C45   S    
O1    V4    S    
O13   C5    A    
C28   C32   A    
C27   C35   A    
O2    V3    S    
O3    V2    S    
O15   C7    A    
C46   H21   S    
O10   V2    S    
C1    C35   S    
C17   C21   A    
C11   C31   A    
C47   H23   S    
C3    C33   S    
H2    C17   S    
C23   C51   S    
C11   O23   S    
C2    C36   S    
C15   H7    S    
O6    V2    S    
C48   H28   S    
C16   H8    S    
C38   H13   S    
C37   H14   S    
C51   H35   S    
C26   C30   A    
C10   O22   S    
C37   C41   D    
O14   C6    A    
C21   C49   S    
C40   C44   D    
C45   H19   S    
C12   O24   S    
C13   H5    S    
C49   H29   S    
C18   C22   A    
C52   H39   S    
C52   H38   S    
C46   H22   S    
C8    C38   S    
O22   C46   S    
C15   C19   A    
C30   C33   A    
C21   C25   A    
O24   C48   S    
C52   H40   S    
C23   C27   A    
C22   C50   S    
C9    C13   A    
C43   C44   S    
C16   C20   A    
C20   C24   A    
O12   C1    A    
O8    C4    A    
C5    C39   S    
C38   C42   D    
C14   H6    S    
C13   C17   A    
C50   H32   S    
C39   C43   D    
C9    C29   A    
C24   C28   A    
C51   H36   S    
