data_mof_unit_58799.cif
_audit_creation_date              2012-12-11T14:08:31-0500
_audit_creation_method            fapswitch 2.2
_symmetry_space_group_name_H-M    P1
_symmetry_Int_Tables_number       1
_space_group_crystal_system       triclinic
_cell_length_a                    10.940599
_cell_length_b                    10.947649
_cell_length_c                    18.685164
_cell_angle_alpha                 90.625206
_cell_angle_beta                  90.084038
_cell_angle_gamma                 60.414971
_cell_volume                      1946.07739327

loop_
_atom_site_label
_atom_site_type_symbol
_atom_type_description
_atom_site_fract_x
_atom_site_fract_y
_atom_site_fract_z
_atom_type_partial_charge
C1    C     C_R   0.236657 0.645671 0.608822 0.545342
C2    C     C_2   0.782115 0.154698 0.706970 -0.179913
C3    C     C_2   0.181297 0.663326 0.681410 -0.122583
C4    C     C_R   0.654038 0.622933 0.601077 0.539892
C5    C     C_2   0.194403 0.662288 0.839376 -0.120513
C6    C     C_2   0.190364 0.562047 0.799323 -0.178371
C7    C     C_2   0.219054 0.549792 0.722298 -0.177221
C8    C     C_2   0.643187 0.643862 0.315928 -0.116008
C9    C     C_2   0.631668 0.664789 0.158586 -0.109066
C10   C     C_2   0.702138 0.544394 0.193931 -0.166174
C11   C     C_2   0.680535 0.535036 0.270253 -0.161182
C12   C     C_3   0.668854 0.554643 0.800373 -0.254219
C13   C     C_2   0.633108 0.196260 0.318644 -0.104625
C14   C     C_2   0.637571 0.202322 0.164115 -0.110641
C15   C     C_2   0.522963 0.230895 0.201161 -0.166309
C16   C     C_R   0.628200 0.227772 0.601911 0.547476
C17   C     C_2   0.517581 0.257884 0.277131 -0.151640
C18   C     C_2   0.120797 0.678445 0.345010 0.133970
C19   C     C_2   0.121066 0.690203 0.189043 -0.063138
C20   C     C_2   0.046221 0.801131 0.233146 -0.129066
C21   C     C_2   0.078441 0.796310 0.308412 -0.132338
C22   C     C_R   0.703486 0.101700 0.897482 0.545551
C23   C     C_3   0.700407 0.675425 0.812128 0.054921
C24   C     C_R   0.724392 0.688701 0.888134 0.543507
C25   C     C_R   0.119214 0.706091 0.907479 0.548340
C26   C     C_R   0.673261 0.114254 0.101339 0.553956
C27   C     C_R   0.692196 0.688592 0.094584 0.554272
C28   C     C_R   0.216679 0.650107 0.403910 0.558677
C29   C     C_R   0.089687 0.712240 0.114356 0.541173
C30   C     C_R   0.639110 0.619002 0.391699 0.543276
C31   C     C_R   0.614272 0.233115 0.393491 0.549635
C32   C     C_3   0.575832 0.813802 0.782353 -0.231602
C33   C     C_3   0.556209 0.797165 0.702259 -0.242934
C34   C     C_3   0.670061 0.649099 0.676319 0.059304
C35   C     C_3   0.836088 0.644218 0.770219 -0.220107
C36   C     C_3   0.948320 0.603848 0.327215 -0.290397
C37   C     C_3   0.816540 0.633079 0.689696 -0.248021
C38   C     C_3   0.653978 0.536943 0.720041 -0.213442
C39   C     C_2   0.675679 0.155991 0.670379 -0.122877
C40   C     C_2   0.689267 0.165930 0.827720 -0.121601
C41   C     C_2   0.800766 0.121917 0.783791 -0.176765
Cr1   Cr    Cr6+3 0.393010 0.398050 0.501480 1.009802
Cr2   Cr    Cr6+3 0.398820 0.707980 0.501630 1.015749
Cr3   Cr    Cr6+3 0.708140 0.393940 0.496850 1.007658
Cr4   Cr    Cr6+3 0.937950 0.938450 0.008940 1.016307
Cr5   Cr    Cr6+3 0.626180 0.937030 0.994750 1.015352
Cr6   Cr    Cr6+3 0.937790 0.625760 0.001410 1.017880
H1    H     H_    0.596875 0.902764 0.790133 0.142420
H2    H     H_    0.271942 0.444609 0.699129 0.157688
H3    H     H_    0.233000 0.728055 0.816798 0.102898
H4    H     H_    0.476904 0.840576 0.811558 0.124038
H5    H     H_    0.126024 0.768606 0.704421 0.104255
H6    H     H_    0.788790 0.452706 0.168652 0.151309
H7    H     H_    0.712376 0.430864 0.290521 0.154248
H8    H     H_    0.539715 0.753759 0.182253 0.112035
H9    H     H_    0.611047 0.749320 0.297862 0.092959
H10   H     H_    0.438582 0.218183 0.178143 0.156966
H11   H     H_    0.413570 0.323715 0.299903 0.155373
H12   H     H_    0.736122 0.429692 0.703554 0.142935
H13   H     H_    0.717738 0.222528 0.186612 0.097026
H14   H     H_    0.738219 0.130173 0.297262 0.080738
H15   H     H_    0.968175 0.902644 0.212553 0.141163
H16   H     H_    0.449035 0.811817 0.693764 0.145341
H17   H     H_    0.087934 0.883762 0.330082 0.124591
H18   H     H_    0.202640 0.588455 0.207189 0.120525
H19   H     H_    0.563997 0.879721 0.671611 0.115128
H20   H     H_    0.862945 0.728569 0.780673 0.126039
H21   H     H_    0.826585 0.716357 0.661054 0.114981
H22   H     H_    0.755010 0.454869 0.822232 0.135883
H23   H     H_    0.926282 0.543311 0.788150 0.135939
H24   H     H_    0.569961 0.578014 0.828609 0.113904
H25   H     H_    0.549926 0.545180 0.709430 0.125047
H26   H     H_    0.162362 0.469795 0.335561 0.259536
H27   H     H_    0.937543 0.515296 0.305001 0.163088
H28   H     H_    0.917200 0.619126 0.384607 0.154363
H29   H     H_    0.877829 0.700194 0.297048 0.162450
H30   H     H_    0.901291 0.529729 0.669405 0.138969
H31   H     H_    0.906982 0.057499 0.803618 0.152131
H32   H     H_    0.854216 0.181893 0.681215 0.145654
H33   H     H_    0.583535 0.231525 0.807450 0.108265
H34   H     H_    0.609511 0.120530 0.695771 0.103358
H35   H     H_    0.159202 0.490891 0.822362 0.147724
N1    N     N_2   0.092542 0.570740 0.320007 -0.538481
O1    O     O_R   0.507110 0.256280 0.580300 -0.520975
O2    O     O_R   0.837080 0.593860 0.915300 -0.529468
O3    O     O_R   0.064770 0.636080 0.932550 -0.500840
O4    O     O_R   0.280830 0.527190 0.577940 -0.500191
O5    O     O_R   0.068250 0.829200 0.092940 -0.517944
O6    O     O_R   0.799650 0.057040 0.080330 -0.508813
O7    O     O_R   0.586130 0.079760 0.077080 -0.511408
O8    O     O_R   0.627700 0.809630 0.066580 -0.496457
O9    O     O_R   0.816140 0.597180 0.075920 -0.509512
O10   O     O_R   0.045360 0.639170 0.081440 -0.491019
O11   O     O_3   0.833980 0.833750 0.001700 -0.249973
O12   O     O_R   0.524640 0.695370 0.425100 -0.488299
O13   O     O_R   0.261360 0.738990 0.584270 -0.520815
O14   O     O_R   0.532590 0.694780 0.574370 -0.507928
O15   O     O_R   0.744470 0.503750 0.577000 -0.529950
O16   O     O_R   0.698520 0.277230 0.571620 -0.498270
O17   O     O_R   0.498530 0.256920 0.419280 -0.516751
O18   O     O_R   0.272880 0.527780 0.428680 -0.511769
O19   O     O_R   0.252780 0.739630 0.423250 -0.527295
O20   O     O_R   0.735890 0.504390 0.415980 -0.523544
O21   O     O_R   0.690560 0.277820 0.422350 -0.502283
O22   O     O_3   0.499990 0.499990 0.499980 -0.248852
O23   O     O_R   0.089190 0.825870 0.932320 -0.519243
O24   O     O_R   0.819070 0.053960 0.931440 -0.496374
O25   O     O_R   0.607070 0.076440 0.916460 -0.522690
O26   O     O_R   0.647110 0.806550 0.917690 -0.511108

loop_
_geom_bond_atom_site_label_1
_geom_bond_atom_site_label_2
_ccdc_geom_bond_type
C1    O4    A    
C12   H22   S    
C6    H35   S    
C4    O15   A    
C34   C37   S    
C32   H1    S    
Cr6   O9    S    
C19   C20   D    
C8    H9    S    
Cr3   O21   S    
Cr3   O22   S    
C26   O6    A    
C12   C23   S    
Cr6   O2    S    
C35   C37   S    
C3    C7    D    
C8    C11   D    
C5    C6    D    
Cr3   O16   S    
C36   N1    S    
C22   O24   A    
C18   C21   D    
C37   H21   S    
C16   O1    A    
Cr2   O22   S    
C10   H6    S    
C29   O5    A    
C2    H32   S    
C36   H29   S    
Cr3   O15   S    
C2    C39   D    
C35   H23   S    
C21   H17   S    
Cr5   O25   S    
C30   O20   A    
C25   O23   A    
Cr2   O12   S    
C23   C24   S    
C40   H33   S    
C27   O8    A    
C9    H8    S    
Cr4   O6    S    
C9    C10   D    
C17   H11   S    
C4    O14   A    
C20   H15   S    
C15   H10   S    
Cr4   O11   S    
C28   O18   A    
Cr3   O20   S    
C33   H19   S    
C18   N1    S    
C4    C34   S    
C38   H25   S    
Cr6   O3    S    
Cr4   O5    S    
C18   C28   S    
C7    H2    S    
C41   H31   S    
Cr5   O8    S    
C37   H30   S    
C32   C33   S    
C1    C3    S    
C32   H4    S    
C30   O12   A    
C36   H28   S    
Cr1   O17   S    
Cr2   O13   S    
Cr5   O11   S    
C35   H20   S    
C33   H16   S    
C22   C40   S    
C33   C34   S    
Cr6   O10   S    
Cr1   O1    S    
C27   O9    A    
C31   O17   A    
C14   C26   S    
C39   H34   S    
C11   H7    S    
C36   H27   S    
C5    C25   S    
C40   C41   D    
C12   H24   S    
C23   C35   S    
C5    H3    S    
C19   C29   S    
Cr1   O18   S    
Cr4   O23   S    
C9    C27   S    
C24   O2    A    
C15   C17   S    
C34   C38   S    
C13   C31   S    
C24   O26   A    
Cr2   O14   S    
C3    H5    S    
C16   O16   A    
C6    C7    S    
Cr5   O7    S    
C26   O7    A    
C14   H13   S    
C13   C17   D    
C8    C30   S    
C31   O21   A    
Cr2   O19   S    
C23   C32   S    
C29   O10   A    
C1    O13   A    
C22   O25   A    
C25   O3    A    
Cr6   O11   S    
C19   H18   S    
C12   C38   S    
Cr1   O22   S    
C10   C11   S    
C16   C39   S    
C38   H12   S    
C28   O19   A    
C13   H14   S    
C20   C21   S    
Cr5   O26   S    
C14   C15   D    
Cr1   O4    S    
C2    C41   S    
H26   N1    S    
Cr4   O24   S    
