data_mof_unit_10014.cif
_audit_creation_date              2012-12-10T19:31:18-0500
_audit_creation_method            fapswitch 2.2
_symmetry_space_group_name_H-M    P1
_symmetry_Int_Tables_number       1
_space_group_crystal_system       triclinic
_cell_length_a                    19.212531
_cell_length_b                    15.736783
_cell_length_c                    14.921173
_cell_angle_alpha                 90.22625
_cell_angle_beta                  90.042122
_cell_angle_gamma                 90.336269
_cell_volume                      4511.20447715

loop_
_atom_site_label
_atom_site_type_symbol
_atom_type_description
_atom_site_fract_x
_atom_site_fract_y
_atom_site_fract_z
_atom_type_partial_charge
C1    C     C_R   0.499998 0.337540 0.499842 0.885323
C2    C     C_3   0.496544 0.971623 0.415373 0.373437
C3    C     C_3   0.498669 0.082979 0.499197 -0.097015
C4    C     C_3   0.501317 0.917021 0.500802 -0.097005
C5    C     C_1   0.499034 0.173723 0.499327 0.112407
C6    C     C_1   0.500954 0.826277 0.500672 0.112385
C7    C     C_3   0.524921 0.426032 0.969850 0.379721
C8    C     C_3   0.475080 0.573957 0.030150 0.379723
C9    C     C_3   0.565099 0.489910 0.029757 0.382683
C10   C     C_3   0.434901 0.510079 0.970243 0.382673
C11   C     C_3   0.459134 0.434922 0.029016 -0.046524
C12   C     C_R   0.500001 0.662460 0.500158 0.885378
C13   C     C_3   0.540866 0.565067 0.970985 -0.046528
C14   C     C_3   0.499548 0.499192 0.089774 -0.167517
C15   C     C_3   0.500453 0.500797 0.910226 -0.167540
C16   C     C_R   0.365147 0.501934 0.499905 0.909528
C17   C     C_R   0.634854 0.498072 0.500094 0.909456
C18   C     C_1   0.499855 0.499704 0.189834 0.223137
C19   C     C_1   0.500145 0.500291 0.810166 0.223126
C20   C     C_R   0.253527 0.487635 0.578423 -0.272470
C21   C     C_R   0.746468 0.512396 0.421571 -0.272437
C22   C     C_R   0.181436 0.490874 0.581487 0.180536
C23   C     C_3   0.560159 0.974126 0.539369 -0.054163
C24   C     C_R   0.818559 0.509176 0.418502 0.180528
C25   C     C_R   0.144654 0.512969 0.503220 0.006780
C26   C     C_R   0.855348 0.487094 0.496768 0.006776
C27   C     C_R   0.180063 0.535602 0.423762 0.061621
C28   C     C_R   0.819946 0.464461 0.576230 0.061640
C29   C     C_R   0.253095 0.535926 0.423361 0.470017
C30   C     C_R   0.746913 0.464121 0.576639 0.469956
C31   C     C_R   0.289467 0.508151 0.499962 -0.243455
C32   C     C_R   0.710534 0.491875 0.500035 -0.243460
C33   C     C_R   0.930440 0.493488 0.497808 0.316194
C34   C     C_3   0.439827 0.025873 0.460630 -0.054167
C35   C     C_R   0.069562 0.506576 0.502170 0.316200
C36   C     C_3   0.585824 0.636815 0.934072 -0.897908
C37   C     C_3   0.414175 0.363176 0.065928 -0.897919
C38   C     C_3   0.146414 0.469951 0.669379 -0.876596
C39   C     C_3   0.853574 0.530099 0.330605 -0.876601
C40   C     C_3   0.140058 0.556876 0.339298 -0.865444
C41   C     C_3   0.859958 0.443196 0.660692 -0.865390
C42   C     C_3   0.303818 0.646906 0.350949 0.071790
C43   C     C_3   0.345832 0.672154 0.268795 -0.709428
C44   C     C_3   0.696203 0.353153 0.649085 0.071951
C45   C     C_3   0.555041 0.028324 0.453711 0.371605
C46   C     C_3   0.654399 0.327866 0.731402 -0.709699
C47   C     C_3   0.656634 0.007650 0.373009 0.127391
C48   C     C_3   0.694649 0.044022 0.292309 -0.845266
C49   C     C_3   0.343357 0.992357 0.627000 0.127388
C50   C     C_3   0.305360 0.955993 0.707717 -0.845278
C51   C     C_3   0.625849 0.939112 0.582386 -0.898204
C52   C     C_3   0.374136 0.060884 0.417611 -0.898206
C53   C     C_3   0.486608 0.992373 0.262109 0.126066
C54   C     C_3   0.516111 0.957188 0.175065 -0.850743
C55   C     C_3   0.513368 0.007617 0.737889 0.126057
C56   C     C_3   0.444945 0.971676 0.546287 0.371587
C57   C     C_3   0.483886 0.042816 0.824940 -0.850744
C58   C     C_3   0.683638 0.475015 0.004352 0.133861
C59   C     C_3   0.745871 0.427410 0.041618 -0.847578
C60   C     C_3   0.316362 0.524979 0.995646 0.133855
C61   C     C_3   0.254130 0.572582 0.958374 -0.847558
C62   C     C_3   0.566398 0.289744 0.994532 0.136496
C63   C     C_3   0.622813 0.230984 0.959420 -0.869197
C64   C     C_3   0.433592 0.710241 0.005470 0.136446
C65   C     C_3   0.377184 0.769003 0.040596 -0.869250
C66   C     C_1   0.499513 0.248851 0.499520 -0.177927
C67   C     C_1   0.500480 0.751149 0.500480 -0.177943
C68   C     C_3   0.503441 0.028376 0.584626 0.373428
H1    H     H_    0.281672 0.468233 0.637891 0.202836
H2    H     H_    0.155680 0.402262 0.686088 0.243702
H3    H     H_    0.168808 0.510436 0.723444 0.237585
H4    H     H_    0.910471 0.518967 0.331240 0.244595
H5    H     H_    0.831188 0.489598 0.276547 0.237588
H6    H     H_    0.844291 0.597782 0.313885 0.243699
H7    H     H_    0.109687 0.615817 0.349946 0.239794
H8    H     H_    0.174292 0.567077 0.280463 0.267981
H9    H     H_    0.103971 0.503902 0.322043 0.240805
H10   H     H_    0.890332 0.384258 0.650044 0.239788
H11   H     H_    0.896043 0.496174 0.677939 0.240793
H12   H     H_    0.718318 0.531788 0.362103 0.202840
H13   H     H_    0.825730 0.432993 0.719531 0.267995
H14   H     H_    0.335186 0.662922 0.411648 0.136779
H15   H     H_    0.254981 0.684710 0.351703 0.141951
H16   H     H_    0.315844 0.657418 0.206952 0.239984
H17   H     H_    0.357430 0.741348 0.270925 0.208708
H18   H     H_    0.395661 0.636807 0.267261 0.278464
H19   H     H_    0.745039 0.315350 0.648112 0.141861
H20   H     H_    0.664686 0.337168 0.588506 0.136926
H21   H     H_    0.604534 0.363133 0.733109 0.278475
H22   H     H_    0.642874 0.258653 0.729338 0.208680
H23   H     H_    0.609425 0.673444 0.990165 0.258684
H24   H     H_    0.684512 0.342669 0.793129 0.239895
H25   H     H_    0.631343 0.946869 0.351949 0.168905
H26   H     H_    0.695814 0.994477 0.425790 0.157522
H27   H     H_    0.723208 0.102825 0.311813 0.264180
H28   H     H_    0.732443 0.996875 0.266274 0.208904
H29   H     H_    0.656847 0.059392 0.238506 0.253471
H30   H     H_    0.304167 0.005529 0.574232 0.157523
H31   H     H_    0.368652 0.053139 0.648046 0.168899
H32   H     H_    0.343174 0.940618 0.761504 0.253476
H33   H     H_    0.267579 0.003147 0.733769 0.208906
H34   H     H_    0.627332 0.610348 0.890789 0.238863
H35   H     H_    0.276789 0.897194 0.688227 0.264176
H36   H     H_    0.659919 0.992364 0.604527 0.256854
H37   H     H_    0.611874 0.899023 0.640682 0.233204
H38   H     H_    0.654038 0.898671 0.533592 0.233812
H39   H     H_    0.340067 0.007631 0.395472 0.256851
H40   H     H_    0.345946 0.101325 0.466405 0.233817
H41   H     H_    0.388110 0.100971 0.359314 0.233202
H42   H     H_    0.513378 0.053938 0.276608 0.165308
H43   H     H_    0.430211 0.003914 0.251925 0.155261
H44   H     H_    0.489039 0.897062 0.156761 0.265731
H45   H     H_    0.553729 0.679417 0.892125 0.229288
H46   H     H_    0.508785 0.003903 0.120315 0.203329
H47   H     H_    0.572559 0.944427 0.182890 0.257268
H48   H     H_    0.569761 0.996046 0.748064 0.155263
H49   H     H_    0.486574 0.946067 0.723394 0.165318
H50   H     H_    0.427447 0.055635 0.817116 0.257293
H51   H     H_    0.491179 0.996080 0.879679 0.203324
H52   H     H_    0.510999 0.102910 0.843258 0.265716
H53   H     H_    0.700831 0.540856 0.989276 0.159911
H54   H     H_    0.667087 0.442911 0.941101 0.167931
H55   H     H_    0.730376 0.361637 0.059841 0.257027
H56   H     H_    0.390569 0.326552 0.009835 0.258683
H57   H     H_    0.787767 0.424685 0.990470 0.209245
H58   H     H_    0.766126 0.460421 0.102284 0.260801
H59   H     H_    0.332913 0.557089 0.058893 0.167923
H60   H     H_    0.299169 0.459140 0.010728 0.159913
H61   H     H_    0.233881 0.539572 0.897703 0.260802
H62   H     H_    0.212230 0.575303 0.009515 0.209256
H63   H     H_    0.269624 0.638357 0.940156 0.257021
H64   H     H_    0.518798 0.250945 0.005854 0.156419
H65   H     H_    0.584563 0.316909 0.059622 0.166776
H66   H     H_    0.671543 0.267441 0.947571 0.253101
H67   H     H_    0.446268 0.320570 0.107870 0.229286
H68   H     H_    0.633227 0.180295 0.009146 0.211937
H69   H     H_    0.605899 0.201104 0.895435 0.263510
H70   H     H_    0.415415 0.683072 0.940388 0.166794
H71   H     H_    0.481190 0.749040 0.994129 0.156426
H72   H     H_    0.394116 0.798900 0.104564 0.263509
H73   H     H_    0.366751 0.819679 0.990861 0.211954
H74   H     H_    0.328461 0.732543 0.052478 0.253086
H75   H     H_    0.372669 0.389644 0.109215 0.238864
H76   H     H_    0.089519 0.481106 0.668742 0.244593
N1    N     N_R   0.038515 0.429371 0.508522 -0.169115
N2    N     N_R   0.961486 0.570694 0.491455 -0.169117
N3    N     N_R   0.969676 0.422883 0.506460 -0.177246
N4    N     N_R   0.030328 0.577181 0.493517 -0.177246
N5    N     N_1   0.500020 0.500000 0.268010 -0.101593
N6    N     N_1   0.499980 0.500000 0.731990 -0.101518
O1    O     O_R   0.500000 0.376780 0.574460 -0.610377
O2    O     O_3   0.711265 0.441056 0.653486 -0.598760
O3    O     O_3   0.608850 0.068331 0.404882 -0.605855
O4    O     O_3   0.391133 0.931672 0.595114 -0.605862
O5    O     O_3   0.495496 0.931713 0.330445 -0.601958
O6    O     O_3   0.504492 0.068283 0.669555 -0.601927
O7    O     O_3   0.630776 0.476871 0.069831 -0.607413
O8    O     O_3   0.369225 0.523117 0.930167 -0.607425
O9    O     O_3   0.552469 0.352183 0.929495 -0.612987
O10   O     O_3   0.447534 0.647807 0.070507 -0.612973
O11   O     O_R   0.500000 0.623220 0.425540 -0.610444
O12   O     O_R   0.500010 0.376780 0.425520 -0.612519
O13   O     O_R   0.499990 0.623220 0.574480 -0.612525
O14   O     O_R   0.398130 0.499990 0.574490 -0.622239
O15   O     O_R   0.601870 0.500010 0.425510 -0.622223
O16   O     O_R   0.398140 0.499990 0.425550 -0.566906
O17   O     O_R   0.601860 0.500010 0.574450 -0.566903
O18   O     O_3   0.288752 0.559006 0.346525 -0.598773
Zn1   Zn    Zn3+2 0.499990 0.500000 0.599450 0.997575
Zn2   Zn    Zn3+2 0.500010 0.500000 0.400550 0.997511

loop_
_geom_bond_atom_site_label_1
_geom_bond_atom_site_label_2
_ccdc_geom_bond_type
C53   H42   S    
C38   H2    S    
C34   C56   S    
C8    C13   S    
C23   C45   S    
C48   H27   S    
C27   C29   A    
C14   C18   S    
C3    C68   S    
C42   H14   S    
C24   C39   S    
O17   Zn1   S    
C46   H21   S    
C64   H70   S    
C53   C54   S    
C16   O14   A    
C16   C31   S    
C15   C19   S    
C48   H29   S    
C44   O2    S    
C29   O18   S    
C60   O8    S    
C10   C15   S    
C11   C14   S    
N6    Zn1   S    
C46   H24   S    
C55   H48   S    
C22   C38   S    
C28   C41   S    
C19   N6    T    
C36   H34   S    
C35   N1    A    
C39   H6    S    
C11   C37   S    
C9    C13   S    
C34   C52   S    
C33   N3    A    
C12   O11   A    
C65   H72   S    
C30   O2    S    
C52   H39   S    
C16   O16   A    
C22   C25   A    
C39   H4    S    
C37   H67   S    
C44   H19   S    
C48   H28   S    
C10   O8    S    
C61   H61   S    
C57   H51   S    
C53   H43   S    
C7    C15   S    
C49   H30   S    
C50   H35   S    
C4    C56   S    
C43   H16   S    
C63   H69   S    
O14   Zn1   S    
C36   H45   S    
N1    N3    A    
C44   C46   S    
C7    C11   S    
N2    N4    A    
C2    C45   S    
C59   H55   S    
C55   O6    S    
C12   C67   S    
C58   H54   S    
N5    Zn2   S    
C43   H17   S    
C63   H66   S    
C62   H64   S    
C49   O4    S    
C60   H60   S    
C13   C36   S    
C4    C6    S    
C17   O17   A    
C41   H10   S    
C4    C23   S    
C47   O3    S    
C3    C34   S    
C3    C5    S    
C58   C59   S    
C56   C68   S    
C3    C45   S    
C40   H8    S    
C60   C61   S    
C59   H58   S    
C33   N2    A    
C23   C68   S    
C2    C4    S    
C9    C14   S    
C62   C63   S    
C49   H31   S    
C37   H56   S    
C65   H73   S    
C26   C33   S    
C23   C51   S    
C47   C48   S    
O12   Zn2   S    
C9    O7    S    
C27   C40   S    
C51   H37   S    
C41   H13   S    
C54   H47   S    
C64   O10   S    
C1    C66   S    
C47   H25   S    
C54   H44   S    
C2    O5    S    
C61   H62   S    
C25   C35   S    
C57   H52   S    
O11   Zn2   S    
C36   H23   S    
C56   O4    S    
C6    C67   T    
C20   C22   A    
C1    O12   A    
O16   Zn2   S    
C13   C15   S    
C20   H1    S    
C42   O18   S    
C45   O3    S    
C42   C43   S    
C8    O10   S    
C62   H65   S    
C55   H49   S    
O15   Zn2   S    
C7    C9    S    
C38   H3    S    
C58   H53   S    
C8    C14   S    
C37   H75   S    
C62   O9    S    
C43   H18   S    
C38   H76   S    
C60   H59   S    
C42   H15   S    
C24   C26   A    
C5    C66   T    
C68   O6    S    
C58   O7    S    
C41   H11   S    
C53   O5    S    
C46   H22   S    
C25   C27   A    
C26   C28   A    
O1    Zn1   S    
C40   H7    S    
C63   H68   S    
C18   N5    T    
C55   C57   S    
C51   H36   S    
C29   C31   A    
C17   O15   A    
C59   H57   S    
C64   C65   S    
C12   O13   A    
C30   C32   A    
C65   H74   S    
C2    C34   S    
C52   H41   S    
C51   H38   S    
C54   H46   S    
C21   H12   S    
C28   C30   A    
C47   H26   S    
C1    O1    A    
C35   N4    A    
C39   H5    S    
O13   Zn1   S    
C50   H32   S    
C10   C11   S    
C61   H63   S    
C21   C32   A    
C7    O9    S    
C52   H40   S    
C50   H33   S    
C8    C10   S    
C49   C50   S    
C21   C24   A    
C17   C32   S    
C40   H9    S    
C44   H20   S    
C20   C31   A    
C57   H50   S    
C64   H71   S    
