data_mof_unit_34486.cif
_audit_creation_date              2012-12-10T16:48:44-0500
_audit_creation_method            fapswitch 2.2
_symmetry_space_group_name_H-M    P1
_symmetry_Int_Tables_number       1
_space_group_crystal_system       triclinic
_cell_length_a                    7.940407
_cell_length_b                    8.618849
_cell_length_c                    10.82247
_cell_angle_alpha                 91.387113
_cell_angle_beta                  98.584971
_cell_angle_gamma                 92.552772
_cell_volume                      731.276740994

loop_
_atom_site_label
_atom_site_type_symbol
_atom_type_description
_atom_site_fract_x
_atom_site_fract_y
_atom_site_fract_z
_atom_type_partial_charge
C1    C     C_R   0.543160 0.793436 0.497688 0.854783
C2    C     C_2   0.432661 0.044229 0.499908 0.321752
C3    C     C_R   0.457019 0.206587 0.502949 0.844136
C4    C     C_R   0.570946 0.492249 0.734509 0.914535
C5    C     C_R   0.428783 0.506073 0.265335 0.913762
C6    C     C_2   0.610840 0.487903 0.867940 -0.266343
C7    C     C_2   0.388019 0.503605 0.131548 -0.288242
C8    C     C_2   0.481942 0.483804 0.933262 -0.165614
C9    C     C_2   0.516061 0.495982 0.065843 -0.122171
C10   C     C_2   0.567761 0.955819 0.502154 0.285457
F1    F     F_    0.732114 0.014118 0.512675 -0.605916
F2    F     F_    0.268404 0.985932 0.490653 -0.577533
H1    H     H_    0.648685 0.499302 0.109567 0.253388
H2    H     H_    0.349378 0.475569 0.889165 0.234226
H3    H     H_    0.255852 0.503625 0.086973 0.201405
H4    H     H_    0.743122 0.493181 0.912756 0.204710
H5    H     H_    0.794091 0.176699 0.309033 0.397201
H6    H     H_    0.205405 0.749486 0.823970 0.362597
N1    N     N_2   0.940600 0.458860 0.467170 0.103799
N2    N     N_2   0.059400 0.541140 0.532830 0.132982
O1    O     O_R   0.391630 0.738350 0.508060 -0.558043
O2    O     O_2   0.107065 0.277421 0.323229 -0.257851
O3    O     O_3   0.785192 0.274640 0.263039 -0.522664
O4    O     O_2   0.893797 0.723227 0.676146 -0.239966
O5    O     O_2   0.018649 0.486723 0.766391 -0.338640
O6    O     O_3   0.215476 0.725771 0.735416 -0.495762
O7    O     O_R   0.608370 0.261650 0.491940 -0.595876
O8    O     O_R   0.674540 0.711990 0.487010 -0.551709
O9    O     O_R   0.325460 0.288010 0.512990 -0.549132
O10   O     O_R   0.411370 0.508250 0.688780 -0.590718
O11   O     O_R   0.588630 0.491750 0.311220 -0.590030
O12   O     O_R   0.694270 0.481880 0.667740 -0.554294
O13   O     O_R   0.305730 0.518120 0.332260 -0.558166
O14   O     O_2   0.981672 0.513160 0.233519 -0.301247
S1    S     S_3+6 0.961943 0.382926 0.320869 0.169993
S2    S     S_3+6 0.038369 0.617114 0.679098 0.177566
Zn1   Zn    Zn3+2 0.311100 0.517600 0.514050 1.189780
Zn2   Zn    Zn3+2 0.688900 0.482400 0.485950 1.167844

loop_
_geom_bond_atom_site_label_1
_geom_bond_atom_site_label_2
_ccdc_geom_bond_type
C1    O8    A    
C8    H2    S    
C1    O1    A    
O2    S1    D    
N1    Zn2   S    
O12   Zn2   S    
C5    C7    S    
N1    N2    D    
H6    O6    S    
O11   Zn2   S    
O8    Zn2   S    
O4    S2    D    
C2    F2    S    
C3    O7    A    
C2    C3    S    
N1    S1    S    
N2    Zn1   S    
C3    O9    A    
C4    O12   A    
H5    O3    S    
O6    S2    S    
O3    S1    S    
C4    O10   A    
C10   F1    S    
O7    Zn2   S    
C6    H4    S    
N2    S2    S    
O1    Zn1   S    
C4    C6    S    
O14   S1    D    
O9    Zn1   S    
C7    C9    D    
C9    H1    S    
C6    C8    D    
C7    H3    S    
O5    S2    D    
O13   Zn1   S    
C1    C10   S    
O10   Zn1   S    
C5    O13   A    
C8    C9    S    
C5    O11   A    
C2    C10   D    
