data_mof_unit_47741.cif
_audit_creation_date              2012-12-11T15:15:48-0500
_audit_creation_method            fapswitch 2.2
_symmetry_space_group_name_H-M    P1
_symmetry_Int_Tables_number       1
_space_group_crystal_system       triclinic
_cell_length_a                    18.863726
_cell_length_b                    18.852667
_cell_length_c                    20.368183
_cell_angle_alpha                 106.942141
_cell_angle_beta                  106.457893
_cell_angle_gamma                 110.8291
_cell_volume                      5838.45485228

loop_
_atom_site_label
_atom_site_type_symbol
_atom_type_description
_atom_site_fract_x
_atom_site_fract_y
_atom_site_fract_z
_atom_type_partial_charge
C1    C     C_R   0.088693 0.088789 0.355823 -0.155624
C2    C     C_R   0.242730 0.069083 0.548860 -0.112291
C3    C     C_R   0.148989 0.225832 0.705304 0.005458
C4    C     C_R   0.757368 0.927510 0.497095 -0.130489
C5    C     C_R   0.999596 0.764226 0.430910 -0.153979
C6    C     C_R   0.225871 0.274350 0.708709 -0.011242
C7    C     C_R   0.948794 0.710102 0.451133 0.085677
C8    C     C_R   0.250643 0.997220 0.542852 0.098703
C9    C     C_R   0.012132 0.973917 0.725104 -0.149074
C10   C     C_R   0.856760 0.566487 0.434539 -0.259575
C11   C     C_R   0.919456 0.618722 0.420824 0.117984
C12   C     C_R   0.750530 0.997569 0.534793 0.076943
C13   C     C_R   0.958710 0.584392 0.381803 -0.226395
C14   C     C_R   0.942958 0.501368 0.363766 -0.066544
C15   C     C_R   0.889640 0.453850 0.388934 0.035722
C16   C     C_R   0.838019 0.808951 0.281163 -0.013676
C17   C     C_R   0.842502 0.484390 0.419814 0.181230
C18   C     C_R   0.986354 0.467781 0.328964 0.512571
C19   C     C_R   0.987167 0.395247 0.331907 -0.215783
C20   C     C_R   0.942860 0.354031 0.365795 0.039835
C21   C     C_R   0.889801 0.379919 0.390206 -0.008116
C22   C     C_R   0.842239 0.335953 0.421479 -0.001525
C23   C     C_R   0.756327 0.786034 0.273728 -0.001929
C24   C     C_R   0.785224 0.360070 0.440248 -0.174515
C25   C     C_R   0.786597 0.434651 0.440724 -0.207858
C26   C     C_R   0.957058 0.292359 0.381626 -0.271935
C27   C     C_R   0.922007 0.258475 0.424610 0.031286
C28   C     C_R   0.949015 0.196224 0.520604 -0.053901
C29   C     C_R   0.857324 0.272991 0.437293 0.439198
C30   C     C_R   0.332911 0.921026 0.574199 0.442119
C31   C     C_R   0.328097 0.996834 0.586074 -0.074462
C32   C     C_R   0.402786 0.074024 0.626237 -0.285713
C33   C     C_R   0.478161 0.076028 0.631113 0.155758
C34   C     C_R   0.962275 0.218651 0.464038 0.083276
C35   C     C_R   0.480523 0.999647 0.603612 -0.014548
C36   C     C_R   0.409484 0.922155 0.580140 0.034911
C37   C     C_R   0.547957 0.152805 0.653546 -0.226457
C38   C     C_R   0.616058 0.153117 0.639914 -0.117356
C39   C     C_R   0.616565 0.076812 0.606846 0.043216
C40   C     C_R   0.760724 0.808536 0.346351 -0.157780
C41   C     C_R   0.551420 0.000436 0.593906 -0.014543
C42   C     C_R   0.553392 0.924065 0.564674 0.150278
C43   C     C_R   0.486890 0.848297 0.549980 -0.221510
C44   C     C_R   0.415027 0.847157 0.557087 -0.111156
C45   C     C_R   0.228931 0.229015 0.644026 -0.084427
C46   C     C_R   0.677013 0.074875 0.580766 0.426091
C47   C     C_R   0.681253 0.998721 0.553998 -0.053646
C48   C     C_R   0.620182 0.924350 0.547905 -0.292158
C49   C     C_R   0.283319 0.363049 0.762272 -0.042790
C50   C     C_R   0.312739 0.382152 0.839124 -0.275906
C51   C     C_R   0.369768 0.464013 0.894501 -0.002296
C52   C     C_R   0.025074 0.200317 0.454260 -0.106592
C53   C     C_R   0.395827 0.529861 0.871728 -0.021112
C54   C     C_R   0.362721 0.511757 0.793492 -0.202597
C55   C     C_R   0.307902 0.426664 0.738173 0.525986
C56   C     C_R   0.921814 0.756335 0.494841 -0.129923
C57   C     C_R   0.597538 0.654605 0.070778 -0.149943
C58   C     C_R   0.662754 0.681774 0.140080 -0.080358
C59   C     C_R   0.629984 0.790255 0.198283 -0.167358
C60   C     C_R   0.562955 0.761771 0.128700 -0.169675
C61   C     C_R   0.547630 0.695129 0.063958 0.192708
C62   C     C_2   0.469244 0.612478 0.926966 -0.234041
C63   C     C_2   0.471950 0.658555 0.992343 -0.225018
C64   C     C_R   0.828274 0.066983 0.563403 -0.102100
C65   C     C_R   0.680916 0.751098 0.203560 0.149603
C66   C     C_R   0.116096 0.030539 0.242262 0.136017
C67   C     C_R   0.175130 0.929030 0.484253 -0.152006
C68   C     C_R   0.134441 0.966571 0.209692 -0.171568
C69   C     C_R   0.167349 0.969024 0.156736 -0.153712
C70   C     C_R   0.181355 0.034992 0.134887 0.217448
C71   C     C_R   0.170524 0.102750 0.172679 -0.169282
C72   C     C_R   0.137941 0.100510 0.225985 -0.166395
C73   C     C_R   0.172904 0.012328 0.909389 -0.147632
C74   C     C_R   0.137216 0.018236 0.842540 -0.204761
C75   C     C_R   0.005101 0.897513 0.805970 -0.144894
C76   C     C_R   0.024051 0.949998 0.293455 -0.071857
C77   C     C_R   0.040900 0.891191 0.872541 -0.178756
C78   C     C_R   0.028301 0.049129 0.718298 0.562612
C79   C     C_R   0.123686 0.950917 0.926307 0.218321
C80   C     C_2   0.193512 0.028761 0.065411 -0.216539
C81   C     C_2   0.151584 0.954413 0.002970 -0.215598
C82   C     C_R   0.051928 0.963433 0.792329 0.151906
C83   C     C_R   0.072262 0.023457 0.291294 0.045272
C84   C     C_2   0.103579 0.263051 0.739344 0.637173
C85   C     C_2   0.863151 0.784123 0.219876 0.466537
C86   C     C_2   0.383525 0.582465 0.771103 0.521891
C87   C     C_2   0.402342 0.476502 0.974925 0.512221
C88   C     C_R   0.959317 0.909207 0.652701 -0.201779
H1    H     H_    0.137134 0.153476 0.379371 0.103302
H2    H     H_    0.025433 0.373109 0.310304 0.159030
H3    H     H_    0.002256 0.277629 0.366509 0.140190
H4    H     H_    0.742578 0.324902 0.458785 0.146646
H5    H     H_    0.747171 0.455618 0.461323 0.130700
H6    H     H_    0.401878 0.133402 0.643803 0.140961
H7    H     H_    0.546947 0.211998 0.675559 0.133975
H8    H     H_    0.666699 0.212917 0.652695 0.179973
H9    H     H_    0.622541 0.865803 0.527696 0.142076
H10   H     H_    0.488401 0.789280 0.528883 0.137775
H11   H     H_    0.362423 0.786994 0.540612 0.188066
H12   H     H_    0.871785 0.731379 0.510867 0.087143
H13   H     H_    0.292105 0.331495 0.855796 0.187722
H14   H     H_    0.699528 0.648941 0.143982 0.117940
H15   H     H_    0.643169 0.843704 0.247484 0.131581
H16   H     H_    0.413615 0.650628 0.996400 0.141685
H17   H     H_    0.584534 0.599628 0.023254 0.122976
H18   H     H_    0.907500 0.203544 0.545624 0.163129
H19   H     H_    0.527447 0.624073 0.921344 0.150691
H20   H     H_    0.523414 0.791725 0.125252 0.127877
H21   H     H_    0.121910 0.913651 0.223728 0.115903
H22   H     H_    0.175746 0.066760 0.830886 0.145759
H23   H     H_    0.159027 0.863307 0.462211 0.149109
H24   H     H_    0.939786 0.853329 0.766916 0.120066
H25   H     H_    0.119280 0.896586 0.007200 0.136829
H26   H     H_    0.181499 0.154550 0.157000 0.122695
H27   H     H_    0.237834 0.057383 0.948851 0.128018
H28   H     H_    0.125522 0.151172 0.251268 0.120236
H29   H     H_    0.708612 0.798870 0.361158 0.111429
H30   H     H_    0.218838 0.087046 0.059770 0.138363
H31   H     H_    0.178235 0.917510 0.130540 0.119987
H32   H     H_    0.002108 0.842953 0.884340 0.121690
H33   H     H_    0.051407 0.208484 0.414866 0.100912
H34   H     H_    0.936142 0.842513 0.636386 0.136216
H35   H     H_    0.851548 0.128974 0.607608 0.181586
H36   H     H_    0.016299 0.889234 0.260985 0.082616
H37   H     H_    0.272648 0.253925 0.621668 0.130298
H38   H     H_    0.080253 0.124372 0.825137 0.312034
H39   H     H_    0.137823 0.325189 0.787014 -0.016835
H40   H     H_    0.005681 0.536332 0.274653 0.309234
H41   H     H_    0.806068 0.265199 0.506502 0.318975
H42   H     H_    0.225803 0.859257 0.573098 0.319379
H43   H     H_    0.728815 0.127486 0.526724 0.338600
H44   H     H_    0.911197 0.764495 0.228659 -0.016231
H45   H     H_    0.288320 0.133433 0.588042 0.091570
H46   H     H_    0.441877 0.641132 0.806960 0.029693
H47   H     H_    0.321328 0.441346 0.651453 0.333945
H48   H     H_    0.421984 0.535072 0.021768 0.020098
H49   H     H_    0.019932 0.747359 0.386931 0.092653
H50   H     H_    0.823356 0.590968 0.461653 0.116348
H51   H     H_    0.007541 0.624496 0.371853 0.138692
H52   H     H_    0.713771 0.862129 0.478017 0.091460
N1    N     N_R   0.052580 0.056040 0.395500 -0.040440
N2    N     N_R   0.890210 0.849400 0.355780 -0.075532
N3    N     N_R   0.997110 0.161140 0.539580 -0.049279
N4    N     N_R   0.841950 0.845400 0.395490 -0.041962
N5    N     N_R   0.045360 0.165140 0.499870 -0.045821
N6    N     N_R   0.877490 0.041510 0.539580 -0.045904
N7    N     N_R   0.009820 0.969030 0.355780 -0.051868
N8    N     N_R   0.158050 0.154600 0.604510 -0.067475
N9    N     N_R   0.954640 0.834860 0.500130 -0.037585
N10   N     N_R   0.122510 0.958490 0.460420 -0.049419
N11   N     N_R   0.990180 0.030970 0.644220 -0.061490
N12   N     N_R   0.947420 0.943960 0.604500 -0.069520
N13   N     N_R   0.165270 0.045500 0.500140 -0.045687
N14   N     N_R   0.109790 0.150600 0.644220 -0.050819
N15   N     N_R   0.002890 0.838860 0.460420 -0.044167
N16   N     N_R   0.834730 0.954500 0.499860 -0.044274
Ni1   Ni    Ni4+2 0.104370 0.104380 0.500010 0.220373
Ni2   Ni    Ni4+2 0.895630 0.895620 0.499990 0.204007
Ni3   Ni    Ni4+2 0.006300 0.904810 0.408930 0.195232
Ni4   Ni    Ni4+2 0.993700 0.095190 0.591070 0.298007
O1    O     O_3   0.072580 0.129076 0.776751 -0.776454
O2    O     O_2   0.405906 0.419311 0.989933 -0.580980
O3    O     O_2   0.026966 0.225465 0.713079 -0.589468
O4    O     O_3   0.031796 0.505598 0.295150 -0.745352
O5    O     O_3   0.811379 0.226421 0.465751 -0.787149
O6    O     O_3   0.264149 0.845828 0.553424 -0.769338
O7    O     O_3   0.726118 0.146147 0.576342 -0.780798
O8    O     O_2   0.831148 0.785693 0.159536 -0.569276
O9    O     O_2   0.334027 0.577628 0.714120 -0.553513
O10   O     O_3   0.277435 0.403683 0.660946 -0.744069

loop_
_geom_bond_atom_site_label_1
_geom_bond_atom_site_label_2
_ccdc_geom_bond_type
C32   H6    S    
C25   H5    S    
C52   N5    A    
C22   C29   A    
C27   C29   A    
C45   N8    A    
C41   C42   A    
C14   C18   A    
C57   H17   S    
C35   C36   A    
C43   H10   S    
N2    Ni3   S    
C77   H32   S    
N7    Ni3   S    
N8    Ni1   S    
N3    Ni4   S    
C39   C41   A    
C53   C54   A    
C7    C11   S    
C48   H9    S    
C75   H24   S    
C62   C63   D    
C13   H51   S    
C6    C45   A    
C85   H44   S    
C30   C31   A    
C12   C64   A    
C44   H11   S    
N6    Ni4   S    
C66   C68   A    
C10   C17   A    
C23   C40   A    
C86   O9    D    
H40   O4    S    
C37   H7    S    
C15   C17   A    
C18   C19   A    
C73   C74   A    
H47   O10   S    
C29   O5    S    
C61   C63   S    
C81   H25   S    
C66   C83   S    
C54   C55   A    
C18   O4    S    
C86   H46   S    
C66   C72   A    
C47   C48   A    
C76   N7    A    
C28   H18   S    
C68   C69   A    
N10   N13   A    
N11   N12   A    
C70   C71   A    
C58   H14   S    
C4    C12   A    
H38   O1    S    
N9    Ni2   S    
C55   O10   S    
C60   H20   S    
C9    C82   S    
C68   H21   S    
C3    C6    A    
C84   H39   S    
C40   H29   S    
C28   C34   A    
C59   C60   A    
C13   C14   A    
C67   N10   A    
C88   N12   A    
N8    N14   A    
C7    C56   A    
C74   C82   A    
C12   C47   S    
C24   H4    S    
C76   C83   A    
C78   N11   A    
N12   Ni2   S    
C77   C79   A    
C27   C34   S    
C80   H30   S    
C2    H45   S    
N10   Ni3   S    
C70   C80   S    
C76   H36   S    
C78   O1    S    
C24   C25   A    
C30   O6    S    
C88   H34   S    
C46   O7    S    
C51   C87   S    
C54   C86   S    
C80   C81   D    
C62   H19   S    
C26   H3    S    
C49   C55   A    
N15   Ni3   S    
C69   H31   S    
C3    N14   A    
C33   C37   A    
C71   H26   S    
C60   C61   A    
C51   C53   A    
C16   N2    A    
C43   C44   A    
N14   Ni4   S    
C37   C38   A    
C45   H37   S    
C4    H52   S    
N5    Ni1   S    
C52   H33   S    
H42   O6    S    
C58   C65   A    
C31   C32   A    
C50   C51   A    
C73   C79   A    
C28   N3    A    
C42   C48   A    
C5    H49   S    
C75   C77   A    
C84   O3    D    
C50   H13   S    
C39   C46   A    
N1    Ni1   S    
C4    N16   A    
C2    N13   A    
C40   N4    A    
C26   C27   A    
C16   C85   S    
C22   C24   A    
C36   C44   A    
C1    C83   A    
C42   C43   A    
C56   H12   S    
N4    Ni2   S    
C5    C7    A    
C67   H23   S    
N3    N5    A    
C46   C47   A    
C1    H1    S    
C64   N6    A    
C85   O8    D    
C34   C52   A    
C87   H48   S    
C2    C8    A    
C63   H16   S    
C74   H22   S    
C75   C82   A    
C57   C61   A    
H41   O5    S    
C16   C23   A    
C64   H35   S    
C72   H28   S    
C79   C81   S    
C73   H27   S    
C30   C36   A    
C59   H15   S    
C32   C33   A    
C23   C65   S    
C19   C20   A    
N16   Ni2   S    
N9    N15   A    
C17   C25   A    
C71   C72   A    
C9    C88   A    
C19   H2    S    
C5    N15   A    
N11   Ni4   S    
C11   C13   A    
C57   C58   A    
C38   C39   A    
C20   C26   A    
C33   C35   A    
N2    N4    A    
C9    C78   A    
C6    C49   S    
N13   Ni1   S    
C69   C70   A    
C35   C41   A    
C53   C62   S    
C1    N1    A    
C10   C11   A    
N1    N7    A    
H43   O7    S    
C15   C21   A    
C87   O2    D    
N6    N16   A    
C20   C21   A    
C8    C67   A    
C49   C50   A    
C38   H8    S    
C3    C84   S    
C14   C15   A    
C10   H50   S    
C56   N9    A    
C21   C22   A    
C59   C65   A    
C8    C31   S    
