data_mof_unit_42183.cif
_audit_creation_date              2012-12-10T17:46:29-0500
_audit_creation_method            fapswitch 2.2
_symmetry_space_group_name_H-M    P1
_symmetry_Int_Tables_number       1
_space_group_crystal_system       triclinic
_cell_length_a                    20.612008
_cell_length_b                    21.254248
_cell_length_c                    14.803562
_cell_angle_alpha                 89.787807
_cell_angle_beta                  128.137929
_cell_angle_gamma                 90.349277
_cell_volume                      5100.79060857

loop_
_atom_site_label
_atom_site_type_symbol
_atom_type_description
_atom_site_fract_x
_atom_site_fract_y
_atom_site_fract_z
_atom_type_partial_charge
C1    C     C_R   0.602817 0.913523 0.631282 0.857628
C2    C     C_R   0.396819 0.086220 0.368251 0.866402
C3    C     C_R   0.396534 0.913719 0.368184 0.857910
C4    C     C_R   0.601870 0.087433 0.629968 0.845838
C5    C     C_R   0.102816 0.413522 0.631281 0.857629
C6    C     C_R   0.896819 0.586219 0.368251 0.866376
C7    C     C_R   0.896534 0.413720 0.368183 0.857951
C8    C     C_R   0.101870 0.587433 0.629969 0.845850
C9    C     C_R   0.290920 0.803989 0.883411 -0.107348
C10   C     C_R   0.657591 0.230847 0.060525 -0.096184
C11   C     C_R   0.653837 0.763714 0.054941 -0.106621
C12   C     C_R   0.302525 0.204119 0.894083 -0.115872
C13   C     C_R   0.790916 0.303992 0.883407 -0.107353
C14   C     C_R   0.157593 0.730845 0.060527 -0.096171
C15   C     C_R   0.153824 0.263701 0.054923 -0.106602
C16   C     C_R   0.802525 0.704121 0.894085 -0.115851
C17   C     C_R   0.324312 0.016718 0.672331 -0.218810
C18   C     C_R   0.674408 0.976520 0.328040 -0.270958
C19   C     C_R   0.824307 0.516695 0.672328 -0.218823
C20   C     C_R   0.174412 0.476538 0.328041 -0.270943
C21   C     C_R   0.349856 0.007709 0.605505 0.576427
C22   C     C_R   0.649911 0.992101 0.394413 0.578408
C23   C     C_R   0.849854 0.507699 0.605503 0.576403
C24   C     C_R   0.149913 0.492108 0.394414 0.578420
C25   C     C_R   0.488580 0.995761 0.775652 -0.064220
C26   C     C_R   0.510574 0.999905 0.224424 -0.057329
C27   C     C_R   0.988580 0.495762 0.775652 -0.064224
C28   C     C_R   0.010574 0.499901 0.224424 -0.057331
C29   C     C_R   0.462369 0.999438 0.845912 -0.008195
C30   C     C_R   0.535845 0.992243 0.153769 -0.007593
C31   C     C_R   0.962368 0.499432 0.845911 -0.008187
C32   C     C_R   0.035846 0.492243 0.153769 -0.007583
C33   C     C_R   0.378878 0.012912 0.790378 0.086229
C34   C     C_R   0.619037 0.977432 0.209441 0.092576
C35   C     C_R   0.878872 0.512891 0.790375 0.086227
C36   C     C_R   0.119042 0.477445 0.209443 0.092559
C37   C     C_R   0.514816 0.990724 0.968179 0.102045
C38   C     C_R   0.482818 0.998921 0.031159 0.106855
C39   C     C_R   0.014817 0.490725 0.968179 0.102044
C40   C     C_R   0.982817 0.498914 0.031159 0.106861
C41   C     C_R   0.399436 0.014816 0.969771 -0.240397
C42   C     C_R   0.597491 0.972770 0.029186 -0.229519
C43   C     C_R   0.899430 0.514793 0.969768 -0.240404
C44   C     C_R   0.097497 0.472785 0.029189 -0.229510
C45   C     C_R   0.348524 0.021011 0.851723 -0.143300
C46   C     C_R   0.648423 0.966376 0.147443 -0.119087
C47   C     C_R   0.848516 0.520982 0.851718 -0.143308
C48   C     C_R   0.148431 0.466397 0.147447 -0.119096
C49   C     C_R   0.655026 0.141733 0.697134 -0.145094
C50   C     C_R   0.333707 0.866415 0.290100 -0.138309
C51   C     C_R   0.334291 0.133165 0.290075 -0.142307
C52   C     C_R   0.658970 0.861644 0.701752 -0.108609
C53   C     C_R   0.155028 0.641732 0.697135 -0.145099
C54   C     C_R   0.833704 0.366417 0.290098 -0.138272
C55   C     C_R   0.834291 0.633166 0.290077 -0.142319
C56   C     C_R   0.158965 0.361640 0.701746 -0.108625
C57   C     C_R   0.740331 0.230618 0.724188 0.417818
C58   C     C_R   0.218603 0.797808 0.230917 0.412697
C59   C     C_R   0.217806 0.199353 0.228889 0.424095
C60   C     C_R   0.756420 0.780991 0.740777 0.378475
C61   C     C_R   0.240338 0.730614 0.724194 0.417811
C62   C     C_R   0.718596 0.297814 0.230910 0.412659
C63   C     C_R   0.717817 0.699363 0.228905 0.424086
C64   C     C_R   0.256400 0.280979 0.740753 0.378462
C65   C     C_R   0.691505 0.178324 0.660709 -0.201052
C66   C     C_R   0.278932 0.841927 0.307280 -0.210762
C67   C     C_R   0.278563 0.156108 0.305954 -0.175773
C68   C     C_R   0.706534 0.832457 0.676326 -0.220732
C69   C     C_R   0.191511 0.678320 0.660714 -0.201059
C70   C     C_R   0.778925 0.341933 0.307273 -0.210580
C71   C     C_R   0.778571 0.656116 0.305965 -0.175937
C72   C     C_R   0.206520 0.332448 0.676308 -0.220691
C73   C     C_R   0.664246 0.159343 0.795081 -0.218627
C74   C     C_R   0.327487 0.847262 0.195095 -0.237111
C75   C     C_R   0.329348 0.153494 0.196476 -0.241850
C76   C     C_R   0.662226 0.840060 0.793323 -0.237013
C77   C     C_R   0.164246 0.659343 0.795081 -0.218622
C78   C     C_R   0.827487 0.347262 0.195095 -0.237175
C79   C     C_R   0.829344 0.653491 0.196472 -0.241827
C80   C     C_R   0.162223 0.340056 0.793319 -0.237014
C81   C     C_R   0.704833 0.215306 0.853979 0.051164
C82   C     C_R   0.266148 0.804979 0.114095 0.046940
C83   C     C_R   0.267352 0.194677 0.114234 0.047312
C84   C     C_R   0.707260 0.786387 0.855945 0.050525
C85   C     C_R   0.204835 0.715305 0.853980 0.051170
C86   C     C_R   0.766146 0.304981 0.114094 0.046937
C87   C     C_R   0.767352 0.694678 0.114236 0.047313
C88   C     C_R   0.207255 0.286382 0.855937 0.050528
C89   C     C_R   0.746209 0.250136 0.820707 0.015984
C90   C     C_R   0.213451 0.777679 0.135187 0.010031
C91   C     C_R   0.212382 0.219455 0.132719 0.004805
C92   C     C_R   0.756013 0.756916 0.830224 0.032466
C93   C     C_R   0.246213 0.750133 0.820710 0.015983
C94   C     C_R   0.713447 0.277682 0.135184 0.010025
C95   C     C_R   0.712389 0.719463 0.132730 0.004823
C96   C     C_R   0.256005 0.256909 0.830211 0.032456
C97   C     C_R   0.706064 0.236777 0.946120 0.095346
C98   C     C_R   0.257899 0.787965 0.014439 0.104596
C99   C     C_R   0.260729 0.213213 0.016157 0.106911
C100  C     C_R   0.706196 0.762385 0.945143 0.094664
C101  C     C_R   0.206065 0.736776 0.946121 0.095350
C102  C     C_R   0.757898 0.287966 0.014438 0.104593
C103  C     C_R   0.760728 0.713214 0.016158 0.106901
C104  C     C_R   0.206192 0.262380 0.945135 0.094657
C105  C     C_R   0.297593 0.822027 0.978742 -0.207688
C106  C     C_R   0.654712 0.210230 0.969331 -0.199922
C107  C     C_R   0.651123 0.785044 0.964112 -0.218532
C108  C     C_R   0.305404 0.183054 0.985220 -0.211970
C109  C     C_R   0.797590 0.322029 0.978740 -0.207704
C110  C     C_R   0.154713 0.710229 0.969331 -0.199909
C111  C     C_R   0.151112 0.285034 0.964096 -0.218536
C112  C     C_R   0.805398 0.683052 0.985215 -0.211975
Cu1   Cu    Cu3+1 0.526640 0.000000 0.436960 1.018313
Cu2   Cu    Cu3+1 0.473360 0.000000 0.563040 1.020863
Cu3   Cu    Cu3+1 0.026640 0.500000 0.436960 1.018318
Cu4   Cu    Cu3+1 0.973360 0.500000 0.563040 1.020861
H1    H     H_    0.321293 0.833351 0.859840 0.213017
H2    H     H_    0.616236 0.208324 0.072402 0.219571
H3    H     H_    0.609791 0.783454 0.063644 0.224338
H4    H     H_    0.337761 0.178201 0.875155 0.212361
H5    H     H_    0.821287 0.333355 0.859834 0.213019
H6    H     H_    0.116240 0.708322 0.072404 0.219576
H7    H     H_    0.109771 0.283435 0.063616 0.224343
H8    H     H_    0.837756 0.678200 0.875152 0.212362
H9    H     H_    0.373273 0.864524 0.187750 0.170580
H10   H     H_    0.639583 0.128073 0.824644 0.160797
H11   H     H_    0.629731 0.866895 0.815338 0.157992
H12   H     H_    0.376397 0.137698 0.191175 0.172118
H13   H     H_    0.873275 0.364521 0.187753 0.170584
H14   H     H_    0.139581 0.628073 0.824642 0.160796
H15   H     H_    0.129733 0.366894 0.815342 0.157995
H16   H     H_    0.876386 0.637688 0.191162 0.172115
H17   H     H_    0.331282 0.865090 0.019568 0.143589
H18   H     H_    0.608588 0.174957 0.915318 0.162296
H19   H     H_    0.602731 0.818109 0.907946 0.160924
H20   H     H_    0.341355 0.141252 0.027440 0.140557
H21   H     H_    0.831278 0.365092 0.019566 0.143593
H22   H     H_    0.108588 0.674957 0.915317 0.162297
H23   H     H_    0.102715 0.318094 0.907922 0.160936
H24   H     H_    0.841341 0.641246 0.027427 0.140558
N1    N     N_R   0.433280 0.000000 0.657760 -0.237681
N2    N     N_R   0.566720 0.000000 0.342240 -0.233541
N3    N     N_R   0.933280 0.500000 0.657760 -0.237682
N4    N     N_R   0.066720 0.500000 0.342240 -0.233547
O1    O     O_R   0.600040 0.935040 0.546740 -0.536973
O2    O     O_R   0.399960 0.064960 0.453260 -0.528605
O3    O     O_R   0.399960 0.935040 0.453260 -0.524648
O4    O     O_R   0.600040 0.064960 0.546740 -0.519497
O5    O     O_R   0.100040 0.435040 0.546740 -0.536960
O6    O     O_R   0.899960 0.564960 0.453260 -0.528614
O7    O     O_R   0.899960 0.435040 0.453260 -0.524628
O8    O     O_R   0.100040 0.564960 0.546740 -0.519501
O9    O     O_R   0.555010 0.935070 0.653220 -0.607524
O10   O     O_R   0.444990 0.064930 0.346780 -0.604516
O11   O     O_R   0.444990 0.935070 0.346780 -0.606480
O12   O     O_R   0.555010 0.064930 0.653220 -0.597929
O13   O     O_R   0.055010 0.435070 0.653220 -0.607529
O14   O     O_R   0.944990 0.564930 0.346780 -0.604508
O15   O     O_R   0.944990 0.435070 0.346780 -0.606493
O16   O     O_R   0.055010 0.564930 0.653220 -0.597928
H25   H     H_    0.371342 0.022509 0.010546 0.129336
H26   H     H_    0.624647 0.963219 0.987577 0.133468
H27   H     H_    0.871333 0.522479 0.010541 0.129337
H28   H     H_    0.124656 0.463240 0.987583 0.133473
H29   H     H_    0.283729 0.856917 0.380928 0.241945
H30   H     H_    0.680941 0.166648 0.581796 0.244360
H31   H     H_    0.704758 0.850059 0.606163 0.203885
H32   H     H_    0.282862 0.140467 0.379089 0.246794
H33   H     H_    0.783719 0.356926 0.380917 0.241939
H34   H     H_    0.180950 0.666643 0.581803 0.244359
H35   H     H_    0.204739 0.350048 0.606141 0.203903
H36   H     H_    0.782876 0.640480 0.379107 0.246781
S1    S     S_3+6 0.292482 0.769953 0.679575 0.014580
O17   O     O_2   0.257663 0.834958 0.638739 -0.271240
O18   O     O_2   0.382850 0.774753 0.779225 -0.298087
O19   O     O_3   0.281208 0.730316 0.572494 -0.458107
H37   H     H_    0.315226 0.753754 0.557231 0.395371
S2    S     S_3+6 0.650335 0.269922 0.257348 0.017577
O20   O     O_2   0.562681 0.278899 0.151549 -0.271387
O21   O     O_2   0.665692 0.201071 0.286487 -0.278759
O22   O     O_3   0.664770 0.309238 0.366857 -0.455518
H38   H     H_    0.625937 0.289561 0.376964 0.400465
S3    S     S_3+6 0.650152 0.726772 0.256112 0.000686
O23   O     O_2   0.660545 0.796749 0.274823 -0.327230
O24   O     O_2   0.562580 0.712248 0.154416 -0.268180
O25   O     O_3   0.670587 0.691822 0.373262 -0.482275
H39   H     H_    0.630248 0.709829 0.381447 0.380277
S4    S     S_3+6 0.318636 0.248852 0.707274 0.025796
O26   O     O_2   0.406950 0.246933 0.813993 -0.241423
O27   O     O_2   0.290338 0.182930 0.662631 -0.301208
O28   O     O_3   0.313549 0.292654 0.608134 -0.460963
H40   H     H_    0.259821 0.281806 0.534151 0.375393
S5    S     S_3+6 0.792470 0.269960 0.679564 0.014570
O29   O     O_2   0.757646 0.334964 0.638725 -0.271268
O30   O     O_2   0.882839 0.274764 0.779210 -0.298087
O31   O     O_3   0.781196 0.230323 0.572482 -0.458115
H41   H     H_    0.815199 0.253769 0.557202 0.395370
S6    S     S_3+6 0.150346 0.769912 0.257359 0.017574
O32   O     O_2   0.062690 0.778890 0.151565 -0.271390
O33   O     O_2   0.165704 0.701060 0.286491 -0.278752
O34   O     O_3   0.164785 0.809223 0.366876 -0.455508
H42   H     H_    0.125953 0.789545 0.376983 0.400465
S7    S     S_3+6 0.150126 0.226746 0.256078 0.000652
O35   O     O_2   0.160482 0.296726 0.274761 -0.326983
O36   O     O_2   0.062562 0.212197 0.154379 -0.268420
O37   O     O_3   0.170573 0.191803 0.373241 -0.482448
H43   H     H_    0.129939 0.209557 0.381066 0.380408
S8    S     S_3+6 0.818680 0.748879 0.707329 0.025714
O38   O     O_2   0.906983 0.746941 0.814073 -0.241408
O39   O     O_2   0.790375 0.682965 0.662634 -0.301237
O40   O     O_3   0.813636 0.792705 0.608247 -0.460993
H44   H     H_    0.759928 0.781856 0.534236 0.375204
H45   H     H_    0.284156 0.032252 0.807658 0.160608
H46   H     H_    0.712357 0.953765 0.191312 0.161265
H47   H     H_    0.784144 0.532211 0.807651 0.160608
H48   H     H_    0.212368 0.453796 0.191317 0.161264
H49   H     H_    0.446756 0.005666 0.187570 0.139114
H50   H     H_    0.552624 0.990232 0.813335 0.140109
H51   H     H_    0.946755 0.505657 0.187570 0.139113
H52   H     H_    0.052625 0.490241 0.813335 0.140111
S9    S     S_3+6 0.734062 0.016132 0.537394 0.054679
O41   O     O_2   0.813235 0.990031 0.568596 -0.264432
O42   O     O_2   0.739293 0.086489 0.535691 -0.259725
O43   O     O_3   0.730501 0.995105 0.643480 -0.523680
H53   H     H_    0.775613 0.019092 0.711606 0.371336
S10   S     S_3+6 0.262757 0.000144 0.456219 0.043775
O44   O     O_2   0.220276 0.939803 0.445898 -0.240495
O45   O     O_2   0.205035 0.053172 0.428195 -0.256328
O46   O     O_3   0.273584 0.999704 0.353073 -0.538986
H54   H     H_    0.217302 0.992729 0.280533 0.373248
S11   S     S_3+6 0.234064 0.516129 0.537403 0.054677
O47   O     O_2   0.313233 0.490014 0.568611 -0.264431
O48   O     O_2   0.239315 0.586486 0.535708 -0.259730
O49   O     O_3   0.230494 0.495110 0.643483 -0.523675
H55   H     H_    0.275609 0.519096 0.711612 0.371331
S12   S     S_3+6 0.762756 0.500158 0.456213 0.043782
O50   O     O_2   0.720234 0.439836 0.445863 -0.240403
O51   O     O_2   0.705069 0.553210 0.428208 -0.256309
O52   O     O_3   0.773586 0.499700 0.353070 -0.539007
H56   H     H_    0.717273 0.492888 0.280498 0.373264
H57   H     H_    0.259441 0.024037 0.631111 0.200558
H58   H     H_    0.738892 0.968502 0.368526 0.200255
H59   H     H_    0.759434 0.524007 0.631106 0.200560
H60   H     H_    0.238899 0.468528 0.368527 0.200254

loop_
_geom_bond_atom_site_label_1
_geom_bond_atom_site_label_2
_ccdc_geom_bond_type
C67   H32   S    
C88   C104  A    
C44   C48   A    
S7    O35   D    
C48   H48   S    
C3    O3    A    
C14   H6    S    
C41   H25   S    
C33   C45   A    
O34   H42   S    
C112  H24   S    
C5    C56   S    
C1    O1    A    
O52   H56   S    
C103  C112  A    
Cu1   O10   S    
C24   S11   S    
C53   C69   A    
O43   H53   S    
C76   C84   A    
Cu4   O6    S    
S2    O20   D    
C111  H23   S    
S1    O17   D    
S12   O50   D    
C21   S10   S    
S7    O36   D    
C30   C38   A    
C37   C38   A    
C98   C105  A    
C57   C89   A    
S4    O28   S    
C32   C36   A    
Cu1   O4    S    
S4    O27   D    
C8    O8    A    
C70   H33   S    
C51   C75   A    
Cu2   O3    S    
Cu4   O16   S    
S9    O43   S    
S3    O24   D    
C61   C93   A    
S2    O21   D    
C49   C73   A    
C74   H9    S    
C7    O15   A    
C10   C94   A    
C9    C105  A    
C73   H10   S    
C4    O4    A    
C63   C95   A    
C5    O5    A    
Cu1   N2    S    
C62   C70   A    
C109  H21   S    
C75   H12   S    
C42   C46   A    
Cu1   O1    S    
C37   C42   A    
C14   C90   A    
C107  H19   S    
C86   C94   A    
C77   C85   A    
C59   C67   A    
C12   H4    S    
C85   C93   A    
C58   C66   A    
C40   C43   A    
C20   C24   A    
C29   C33   A    
S12   O51   D    
S8    O38   D    
C46   H46   S    
C47   H47   S    
Cu3   O8    S    
C27   N3    A    
S6    O32   D    
C28   N4    A    
C78   H13   S    
C6    C55   S    
Cu2   O9    S    
C97   C102  A    
C52   C68   A    
C19   H59   S    
C77   H14   S    
C81   C89   A    
C78   C86   A    
S1    O18   D    
C99   C104  A    
O25   H39   S    
C17   H57   S    
C27   H52   S    
C2    O10   A    
C80   H15   S    
C83   C99   A    
C79   C87   A    
C26   H49   S    
C82   C98   A    
C23   N3    A    
C25   H50   S    
C15   H7    S    
C17   C33   A    
Cu1   O11   S    
C73   C81   A    
C6    O14   A    
C3    C50   S    
C13   C89   A    
C60   C92   A    
C25   C29   A    
C22   S9    S    
C63   S3    S    
S10   O44   D    
C30   C34   A    
Cu3   O14   S    
C27   C31   A    
O28   H40   S    
C84   C100  A    
C72   H35   S    
C15   C111  A    
S7    O37   S    
C28   C32   A    
C61   S1    S    
Cu2   O2    S    
C38   C41   A    
C11   H3    S    
S3    O25   S    
C39   C40   A    
C12   C108  A    
O37   H43   S    
C60   S8    S    
C51   C67   A    
C56   C72   A    
C101  C110  A    
O22   H38   S    
C65   H30   S    
C100  C103  A    
C17   C21   A    
C87   C95   A    
S4    O26   D    
C20   C36   A    
C19   C23   A    
S3    O23   D    
Cu2   N1    S    
S9    O41   D    
C10   H2    S    
Cu4   N3    S    
C55   C79   A    
C84   C92   A    
C45   H45   S    
O40   H44   S    
C54   C70   A    
C110  H22   S    
S5    O31   S    
Cu3   O5    S    
S6    O34   S    
S5    O30   D    
S11   O48   D    
C59   C91   A    
C82   C90   A    
C1    O9    A    
C18   C34   A    
C64   C96   A    
C64   S4    S    
C49   C65   A    
C58   C90   A    
C7    O7    A    
C23   S12   S    
S8    O39   D    
O19   H37   S    
C4    O12   A    
C99   C108  A    
C16   C92   A    
C28   H51   S    
C5    O13   A    
C62   C94   A    
C11   C107  A    
C53   C77   A    
C87   C103  A    
C10   C106  A    
C3    O11   A    
C97   C106  A    
C29   C37   A    
C83   C91   A    
C8    O16   A    
C9    C93   A    
C75   C83   A    
C32   C40   A    
C85   C101  A    
C16   C112  A    
C105  H17   S    
Cu1   Cu2   S    
C74   C82   A    
S1    O19   S    
C11   C95   A    
C14   C110  A    
Cu3   N4    S    
C58   S6    S    
C100  C107  A    
C66   H29   S    
C13   H5    S    
C18   C22   A    
Cu2   O12   S    
C25   N1    A    
Cu4   O7    S    
C57   C65   A    
O31   H41   S    
C52   C76   A    
C56   C80   A    
C8    C53   S    
C62   S2    S    
C104  C111  A    
Cu3   O15   S    
C22   N2    A    
C42   H26   S    
C108  H20   S    
C39   C44   A    
C13   C109  A    
C2    O2    A    
S10   O46   S    
C50   C66   A    
S10   O45   D    
O46   H54   S    
C98   C101  A    
C4    C49   S    
C61   C69   A    
C50   C74   A    
C16   H8    S    
C21   N1    A    
Cu4   O13   S    
C80   C88   A    
C19   C35   A    
C18   H58   S    
C81   C97   A    
C24   N4    A    
S8    O40   S    
C34   C46   A    
C79   H16   S    
C31   C39   A    
C88   C96   A    
C36   C48   A    
S11   O49   S    
C31   C35   A    
C69   H34   S    
C64   C72   A    
C20   H60   S    
C1    C52   S    
S2    O22   S    
C2    C51   S    
C15   C91   A    
C6    O6    A    
C68   H31   S    
C59   S7    S    
C106  H18   S    
C60   C68   A    
S9    O42   D    
S5    O29   D    
O49   H55   S    
C57   S5    S    
S11   O47   D    
C76   H11   S    
C41   C45   A    
C71   H36   S    
C12   C96   A    
C102  C109  A    
S6    O33   D    
C44   H28   S    
C7    C54   S    
C35   C47   A    
C26   N2    A    
C43   C47   A    
C63   C71   A    
S12   O52   S    
C55   C71   A    
C9    H1    S    
Cu3   Cu4   S    
C43   H27   S    
C54   C78   A    
C26   C30   A    
C86   C102  A    
