data_mof_unit_46375.cif
_audit_creation_date              2013-03-05T15:48:49-0500
_audit_creation_method            fapswitch 2.2
_symmetry_space_group_name_H-M    P1
_symmetry_Int_Tables_number       1
_space_group_crystal_system       triclinic
_cell_length_a                    10.273571
_cell_length_b                    10.429762
_cell_length_c                    27.588338
_cell_angle_alpha                 91.456678
_cell_angle_beta                  81.031939
_cell_angle_gamma                 94.17422
_cell_volume                      2911.93494954

loop_
_atom_site_label
_atom_site_type_symbol
_atom_site_description
_atom_site_fract_x
_atom_site_fract_y
_atom_site_fract_z
_atom_type_partial_charge
O1    O     O_R   0.431060 0.692470 0.504020 -0.612675
O2    O     O_R   0.568940 0.307530 0.495980 -0.608915
O3    O     O_R   0.651120 0.659650 0.491200 -0.615883
O4    O     O_R   0.348880 0.340350 0.508800 -0.551796
C1    C     C_R   0.553613 0.734728 0.494485 0.724176
C2    C     C_R   0.446312 0.265097 0.500976 0.783543
O5    O     O_R   0.389980 0.516390 0.577660 -0.602825
O6    O     O_R   0.610020 0.483610 0.422340 -0.615063
O7    O     O_R   0.610040 0.483570 0.564830 -0.533325
O8    O     O_R   0.389960 0.516430 0.435170 -0.626408
C3    C     C_R   0.499858 0.500487 0.593979 0.952528
C4    C     C_R   0.501898 0.503963 0.405998 0.782994
Zn1   Zn    Zn3+2 0.353060 0.521910 0.508560 1.035511
Zn2   Zn    Zn3+2 0.646940 0.478090 0.491440 1.048835
C5    C     C_R   0.536498 0.633471 0.821788 0.678117
C6    C     C_R   0.570490 0.425408 0.173734 0.662567
O9    O     O_2   0.587187 0.732468 0.792535 -0.463519
O10   O     O_2   0.569611 0.317441 0.199763 -0.449738
N1    N     N_R   0.488029 0.523065 0.801441 -0.324400
N2    N     N_R   0.564362 0.541687 0.197704 -0.336370
C7    C     C_R   0.436328 0.419561 0.829165 0.646776
C8    C     C_R   0.579107 0.654595 0.172725 0.653155
C9    C     C_R   0.578865 0.435695 0.720505 -0.080322
C10   C     C_R   0.644864 0.595561 0.275810 -0.052872
C11   C     C_R   0.576531 0.423874 0.669633 -0.166665
C12   C     C_R   0.625073 0.593025 0.327480 -0.157236
C13   C     C_R   0.419254 0.592648 0.676287 0.323896
C14   C     C_R   0.414927 0.465398 0.326619 0.337568
C15   C     C_R   0.406570 0.589909 0.727414 -0.040897
C16   C     C_R   0.424067 0.487355 0.276348 -0.025552
C17   C     C_R   0.490760 0.515914 0.749336 0.193351
C18   C     C_R   0.543213 0.544045 0.250412 0.155567
C19   C     C_R   0.498321 0.531733 0.900910 -0.126955
C20   C     C_R   0.586898 0.535058 0.096735 -0.148437
C21   C     C_R   0.532919 0.643626 0.872678 -0.090607
C22   C     C_R   0.573640 0.418746 0.122650 -0.039748
C23   C     C_R   0.557527 0.762467 0.896275 0.487823
C24   C     C_R   0.565512 0.300499 0.096865 0.384180
C25   C     C_R   0.447348 0.417696 0.879549 -0.073810
C26   C     C_R   0.607522 0.653222 0.121221 -0.040164
C27   C     C_R   0.499277 0.505469 0.647291 -0.150755
C28   C     C_R   0.512438 0.522320 0.352755 -0.196681
C29   C     C_R   0.589191 0.650805 0.020912 0.058601
C30   C     C_R   0.499080 0.419123 0.977108 0.089947
C31   C     C_R   0.543448 0.416605 0.023170 0.047448
C32   C     C_R   0.555529 0.651693 0.972883 -0.045917
C33   C     C_R   0.573043 0.534182 0.046833 -0.013534
C34   C     C_R   0.518924 0.533875 0.950249 -0.020751
C35   C     C_R   0.653548 0.758541 0.041861 0.301121
C36   C     C_R   0.423179 0.314414 0.959540 0.437756
C37   C     C_R   0.654427 0.763837 0.093172 -0.143260
C38   C     C_R   0.405243 0.309291 0.909708 -0.162622
O11   O     O_2   0.561743 0.766422 0.197749 -0.505321
O12   O     O_2   0.375663 0.319941 0.807435 -0.523513
C39   C     C_R   0.544653 0.766691 0.947915 -0.087503
C40   C     C_R   0.565891 0.300777 0.045700 -0.116214
C41   C     C_2   0.577471 0.872244 0.483607 0.222713
C42   C     C_2   0.422245 0.126472 0.493364 0.284133
C43   C     C_2   0.499928 0.927279 0.455480 0.021381
C44   C     C_2   0.497335 0.067413 0.455675 0.018847
N3    N     N_2   0.842700 0.448890 0.480020 0.015345
N4    N     N_2   0.157300 0.551110 0.519980 0.014171
C45   C     C_2   0.930904 0.525636 0.497968 0.100070
C46   C     C_2   0.075700 0.501759 0.491329 0.073759
O13   O     O_3   0.351086 0.681033 0.655613 -0.759067
H1    H     H_    0.407225 0.713873 0.625368 0.351278
O14   O     O_3   0.312039 0.384326 0.348770 -0.765933
H2    H     H_    0.344930 0.335258 0.374073 0.361472
O15   O     O_3   0.334695 0.054078 0.526917 -0.700922
H3    H     H_    0.293711 0.113096 0.552682 0.359579
O16   O     O_3   0.668291 0.948292 0.505624 -0.695331
H4    H     H_    0.710781 0.892620 0.526266 0.359611
C47   C     C_2   0.127676 0.429121 0.447140 0.591118
H5    H     H_    0.118567 0.464943 0.411351 0.087738
O17   O     O_2   0.169276 0.323711 0.450525 -0.498943
C48   C     C_2   0.892912 0.649731 0.520588 0.551238
H6    H     H_    0.939629 0.738580 0.504430 0.054698
O18   O     O_2   0.817339 0.653694 0.559256 -0.523175
O19   O     O_3   0.104312 0.604195 0.562642 -0.651026
H7    H     H_    0.180605 0.632671 0.579068 0.402850
O20   O     O_3   0.878193 0.331177 0.465212 -0.634426
H8    H     H_    0.798487 0.286992 0.454823 0.391721
C49   C     C_2   0.306066 0.667980 0.757099 0.553646
H9    H     H_    0.266394 0.746809 0.740528 0.142767
O21   O     O_2   0.262582 0.642892 0.799798 -0.563026
C50   C     C_2   0.309415 0.445203 0.251300 0.539000
H10   H     H_    0.233177 0.375987 0.268406 0.147649
O22   O     O_2   0.295681 0.490657 0.212213 -0.558376
O23   O     O_3   0.583170 0.873409 0.869116 -0.618572
H11   H     H_    0.634279 0.937075 0.887321 0.390211
O24   O     O_3   0.560103 0.186731 0.121844 -0.700171
H12   H     H_    0.505999 0.120973 0.105781 0.320277
C51   C     C_2   0.721588 0.663179 0.355543 0.482879
H13   H     H_    0.685976 0.718396 0.388159 0.046838
O25   O     O_2   0.840420 0.654890 0.344001 -0.548086
C52   C     C_2   0.654615 0.325678 0.640468 0.494394
H14   H     H_    0.755290 0.313487 0.645911 0.073252
O26   O     O_2   0.605344 0.254621 0.611375 -0.519824
C53   C     C_2   0.770767 0.653621 0.248377 0.613517
H15   H     H_    0.816970 0.741681 0.261651 0.120672
O27   O     O_2   0.825498 0.602075 0.211243 -0.530896
C54   C     C_2   0.670131 0.360582 0.743802 0.491275
H16   H     H_    0.696623 0.266848 0.729250 0.078427
O28   O     O_2   0.719272 0.403813 0.778864 -0.528512
C55   C     C_2   0.712037 0.881524 0.115585 0.541577
H17   H     H_    0.697288 0.975451 0.102288 0.071315
O29   O     O_2   0.782306 0.874281 0.147127 -0.481375
C56   C     C_2   0.351520 0.186988 0.889746 0.644262
H18   H     H_    0.248013 0.155686 0.899896 0.034039
O30   O     O_2   0.423988 0.119355 0.862543 -0.431943
O31   O     O_3   0.721767 0.851416 0.010803 -0.779252
H19   H     H_    0.790775 0.898811 0.026808 0.338201
O32   O     O_3   0.364156 0.221770 0.992593 -0.756844
H20   H     H_    0.290804 0.172763 0.979595 0.340100
C57   C     C_2   0.487639 0.879739 0.975653 0.512332
H21   H     H_    0.463669 0.878418 0.015322 0.057912
O33   O     O_2   0.458504 0.972545 0.954641 -0.528712
C58   C     C_2   0.615023 0.187793 0.015802 0.569166
H22   H     H_    0.614852 0.094560 0.032180 0.046082
O34   O     O_2   0.663653 0.199293 0.972694 -0.517170
C59   C     C_2   0.574738 0.137501 0.413028 0.430976
H23   H     H_    0.559570 0.236951 0.406784 0.048833
O35   O     O_2   0.654958 0.083079 0.383742 -0.508110
C60   C     C_2   0.417007 0.852934 0.423389 0.437913
H24   H     H_    0.430897 0.752929 0.414840 0.034544
O36   O     O_2   0.333563 0.904617 0.405227 -0.499291

loop_
_geom_bond_atom_site_label_1
_geom_bond_atom_site_label_2
_geom_bond_distance
_ccdc_geom_bond_type
C51   H13   1.084841 S    
C13   C15   1.396987 A    
C10   C53   1.488840 S    
C47   H5    1.084394 S    
C2    C42   1.464357 S    
O31   H19   0.988640 S    
N1    C17   1.433519 S    
O20   H8    0.988223 S    
C5    N1    1.363762 A    
C55   O29   1.221176 D    
C19   C25   1.416349 A    
O1    C1    1.292485 A    
N1    C7    1.365420 A    
C10   C12   1.408843 A    
C15   C49   1.491545 S    
C7    O12   1.348307 S    
C50   O22   1.220936 D    
C41   C43   1.359480 D    
C9    C54   1.492120 S    
C45   C48   1.474277 S    
C42   C44   1.357294 D    
C57   H21   1.083897 S    
C56   H18   1.084923 S    
O4    Zn1   1.891144 S    
N3    C45   1.311941 D    
C58   H22   1.082378 S    
C4    C28   1.472325 S    
C54   H16   1.084304 S    
Zn1   N4    2.030639 S    
C49   H9    1.084921 S    
C31   C40   1.422085 A    
C35   C37   1.416686 A    
C52   O26   1.221268 D    
C32   C39   1.418110 A    
C36   C38   1.414441 A    
C46   C47   1.467744 S    
C16   C50   1.490356 S    
N4    C46   1.309804 D    
O6    C4    1.295193 A    
C35   O31   1.385565 S    
C12   C51   1.490912 S    
C25   C38   1.422037 A    
C43   C44   1.463600 S    
C51   O25   1.221501 D    
C47   O17   1.219072 D    
O2    C2    1.292219 A    
C5    C21   1.400222 A    
C8    O11   1.348965 S    
C44   C59   1.489425 S    
C31   C33   1.410437 A    
C32   C34   1.417115 A    
O14   H2    0.990081 S    
N4    O19   1.341322 S    
C14   O14   1.378586 S    
C48   H6    1.085054 S    
O4    C2    1.304973 A    
C11   C27   1.418303 A    
O24   H12   0.990749 S    
C50   H10   1.084930 S    
C29   C35   1.418363 A    
C57   O33   1.219567 D    
Zn2   N3    2.030639 S    
C24   O24   1.380585 S    
O19   H7    0.988897 S    
C9    C17   1.415610 A    
O5    C3    1.301533 A    
O7    Zn2   2.001101 S    
C10   C18   1.413354 A    
C13   O13   1.382308 S    
C13   C27   1.417507 A    
C53   H15   1.084696 S    
C7    C25   1.412816 A    
C6    N2    1.367253 A    
C8    C26   1.405243 A    
C52   H14   1.084903 S    
C41   O16   1.383142 S    
C54   O28   1.220981 D    
O7    C3    1.302784 A    
C59   H23   1.082036 S    
O3    Zn2   1.891144 S    
O8    C4    1.309581 A    
C49   O21   1.220776 D    
N2    C8    1.366495 A    
C20   C26   1.408673 A    
O1    Zn1   1.896005 S    
C22   C24   1.411717 A    
C30   C31   1.416807 A    
C12   C28   1.421061 A    
C60   O36   1.221252 D    
O32   H20   0.988233 S    
N2    C18   1.436246 S    
C30   C36   1.415125 A    
C43   C60   1.488249 S    
C5    O9    1.349682 S    
O6    Zn2   2.003887 S    
C21   C23   1.410222 A    
C40   C58   1.493688 S    
C48   O18   1.219329 D    
O3    C1    1.306583 A    
O8    Zn1   2.001098 S    
C42   O15   1.383141 S    
C1    C41   1.467994 S    
C26   C37   1.417812 A    
C55   H17   1.083710 S    
C23   O23   1.381248 S    
C36   O32   1.385637 S    
C14   C16   1.398988 A    
O16   H4    0.991588 S    
C15   C17   1.411909 A    
N3    O20   1.341787 S    
C6    C22   1.404716 A    
C16   C18   1.415263 A    
C39   C57   1.494585 S    
C14   C28   1.411659 A    
C19   C21   1.412226 A    
C56   O30   1.220831 D    
C3    C27   1.469484 S    
C20   C22   1.411035 A    
C9    C11   1.409507 A    
O15   H3    0.991772 S    
O2    Zn2   1.896003 S    
C29   C32   1.421050 A    
C58   O34   1.221352 D    
C37   C55   1.486266 S    
C59   O35   1.221222 D    
C45   C46   1.508333 S    
C23   C39   1.409958 A    
O5    Zn1   2.003889 S    
C24   C40   1.411021 A    
C38   C56   1.480404 S    
C11   C52   1.488727 S    
C6    O10   1.349586 S    
O13   H1    0.990928 S    
C19   C34   1.409175 A    
C20   C33   1.405692 A    
O23   H11   0.991636 S    
C29   C33   1.412899 A    
C53   O27   1.221112 D    
C30   C34   1.409084 A    
C60   H24   1.078234 S    
