data_mof_unit_17447.cif
_audit_creation_date              2012-12-11T15:31:44-0500
_audit_creation_method            fapswitch 2.2
_symmetry_space_group_name_H-M    P1
_symmetry_Int_Tables_number       1
_space_group_crystal_system       triclinic
_cell_length_a                    6.941124
_cell_length_b                    14.800112
_cell_length_c                    21.308925
_cell_angle_alpha                 74.472421
_cell_angle_beta                  90.31273
_cell_angle_gamma                 90.053469
_cell_volume                      2109.12490584

loop_
_atom_site_label
_atom_site_type_symbol
_atom_type_description
_atom_site_fract_x
_atom_site_fract_y
_atom_site_fract_z
_atom_type_partial_charge
O1    O     O_R   0.648150 0.130050 0.214300 -0.535226
O2    O     O_R   0.351850 0.869950 0.785700 -0.535224
O3    O     O_R   0.320490 0.006660 0.340150 -0.540921
O4    O     O_R   0.679510 0.993340 0.659850 -0.540920
O5    O     O_R   0.146100 0.869940 0.285700 -0.534768
O6    O     O_R   0.853900 0.130060 0.714300 -0.534769
C1    C     C_R   0.489006 0.001218 0.367228 0.714367
C2    C     C_R   0.510994 0.998781 0.632772 0.714367
O7    O     O_R   0.318690 0.137980 0.218120 -0.541973
O8    O     O_R   0.681310 0.862020 0.781880 -0.541968
O9    O     O_R   0.144280 0.002190 0.162800 -0.542293
O10   O     O_R   0.855720 0.997810 0.837200 -0.542294
C3    C     C_R   0.486926 0.175666 0.206426 0.704822
C4    C     C_R   0.513074 0.824334 0.793575 0.704824
O11   O     O_R   0.649960 0.997790 0.337200 -0.539301
O12   O     O_R   0.350040 0.002210 0.662800 -0.539301
O13   O     O_3   0.479300 0.955290 0.231990 -0.373280
O14   O     O_3   0.520700 0.044710 0.768010 -0.373283
V1    V     V_3+5 0.206040 0.008290 0.253340 1.454710
V2    V     V_3+5 0.793960 0.991710 0.746660 1.454721
O15   O     O_R   0.814320 0.993320 0.159850 -0.547270
O16   O     O_R   0.185680 0.006680 0.840150 -0.547270
C5    C     C_R   0.982581 0.998370 0.132841 0.667436
C6    C     C_R   0.017419 0.001630 0.867159 0.667436
O17   O     O_R   0.816120 0.862000 0.281880 -0.539004
O18   O     O_R   0.183880 0.138000 0.718120 -0.539005
C7    C     C_R   0.984863 0.824336 0.294873 0.698215
C8    C     C_R   0.015137 0.175664 0.705126 0.698214
V3    V     V_3+5 0.705540 0.991700 0.246660 1.445977
V4    V     V_3+5 0.294460 0.008300 0.753340 1.445978
O19   O     O_3   0.982150 0.044700 0.268010 -0.364174
O20   O     O_3   0.017850 0.955300 0.731990 -0.364170
C9    C     C_R   0.991733 0.722452 0.322196 -0.038865
C10   C     C_R   0.008265 0.277548 0.677803 -0.038865
C11   C     C_R   0.942052 0.567025 0.309131 -0.111126
C12   C     C_R   0.057932 0.432976 0.690868 -0.111127
C13   C     C_R   0.963843 0.663167 0.281979 -0.184257
C14   C     C_R   0.036153 0.336832 0.718020 -0.184261
C15   C     C_R   0.009986 0.684531 0.389454 -0.131534
C16   C     C_R   0.990003 0.315468 0.610545 -0.131534
C17   C     C_R   0.004346 0.586608 0.417635 0.092755
C18   C     C_R   0.995634 0.413391 0.582364 0.092756
C19   C     C_R   0.950646 0.528337 0.377258 0.063179
C20   C     C_R   0.049329 0.471664 0.622741 0.063181
C21   C     C_R   0.034066 0.546275 0.485622 -0.035467
C22   C     C_R   0.965911 0.453725 0.514377 -0.035470
C23   C     C_R   0.870293 0.404930 0.474183 0.145529
C24   C     C_R   0.129677 0.595071 0.525817 0.145530
C25   C     C_R   0.888844 0.435885 0.406097 0.138083
C26   C     C_R   0.111116 0.564118 0.593902 0.138082
H1    H     H_    0.983414 0.267474 0.580235 0.131124
H2    H     H_    0.016575 0.732526 0.419764 0.131125
H3    H     H_    0.050814 0.308130 0.770229 0.102536
H4    H     H_    0.949187 0.691869 0.229770 0.102534
H5    H     H_    0.909293 0.524875 0.276204 0.156362
H6    H     H_    0.090692 0.475126 0.723794 0.156365
C27   C     C_3   0.920501 0.921322 0.991630 -0.140019
C28   C     C_3   0.079499 0.078678 0.008370 -0.140019
C29   C     C_3   0.096248 0.925154 0.036040 -0.144092
C30   C     C_3   0.903752 0.074846 0.963960 -0.144094
H7    H     H_    0.175496 0.863410 0.066156 0.098948
H8    H     H_    0.824504 0.136589 0.933845 0.098949
H9    H     H_    0.854866 0.856466 0.984260 0.103618
H10   H     H_    0.145134 0.143533 0.015740 0.103618
C31   C     C_3   0.990883 0.998888 0.062217 -0.002383
C32   C     C_3   0.009117 0.001111 0.937783 -0.002384
C33   C     C_3   0.814929 0.995062 0.018612 -0.118300
C34   C     C_3   0.185071 0.004937 0.981388 -0.118299
H11   H     H_    0.662161 0.990900 0.034287 0.105509
H12   H     H_    0.337839 0.009099 0.965713 0.105508
C35   C     C_3   0.587166 0.077732 0.464314 -0.115666
C36   C     C_3   0.412834 0.922267 0.535686 -0.115664
C37   C     C_3   0.407767 0.076024 0.507681 -0.110069
C38   C     C_3   0.592233 0.923975 0.492319 -0.110068
H13   H     H_    0.330373 0.138286 0.514488 0.148620
H14   H     H_    0.669626 0.861714 0.485512 0.148620
H15   H     H_    0.659701 0.141375 0.434326 0.171307
H16   H     H_    0.340299 0.858625 0.565674 0.171308
C39   C     C_3   0.503914 0.999429 0.562163 -0.035538
C40   C     C_3   0.496086 0.000571 0.437836 -0.035539
C41   C     C_3   0.683646 0.001184 0.519603 -0.120192
C42   C     C_3   0.316354 0.998815 0.480397 -0.120192
H17   H     H_    0.835557 0.002260 0.535993 0.125037
H18   H     H_    0.164443 0.997740 0.464007 0.125036
C43   C     C_R   0.490576 0.277207 0.179230 -0.041830
C44   C     C_R   0.509417 0.722794 0.820776 -0.041831
C45   C     C_R   0.413091 0.431481 0.189379 -0.137906
C46   C     C_R   0.586737 0.568508 0.810617 -0.137908
C47   C     C_R   0.433753 0.335695 0.217363 -0.117580
C48   C     C_R   0.566109 0.664296 0.782634 -0.117592
C49   C     C_R   0.524700 0.314287 0.112733 -0.219511
C50   C     C_R   0.475381 0.685722 0.887279 -0.219501
C51   C     C_R   0.497088 0.410953 0.082313 0.085539
C52   C     C_R   0.502906 0.589048 0.917692 0.085551
C53   C     C_R   0.441716 0.469308 0.122309 0.127995
C54   C     C_R   0.558184 0.530685 0.877691 0.127987
C55   C     C_R   0.517468 0.450974 0.013656 0.062209
C56   C     C_R   0.482517 0.549025 0.986349 0.062209
C57   C     C_R   0.429858 0.603852 0.028647 -0.192181
C58   C     C_R   0.570060 0.396141 0.971355 -0.192177
C59   C     C_R   0.410643 0.564637 0.095084 -0.200580
C60   C     C_R   0.589219 0.435353 0.904914 -0.200580
H19   H     H_    0.368478 0.609463 0.125438 0.122017
H20   H     H_    0.631304 0.390519 0.874556 0.122017
H21   H     H_    0.436291 0.735265 0.913939 0.094295
H22   H     H_    0.563935 0.264755 0.086081 0.094321
H23   H     H_    0.597024 0.693126 0.731373 0.147419
H24   H     H_    0.402767 0.306859 0.268619 0.147408
H25   H     H_    0.369117 0.475726 0.219899 0.135151
H26   H     H_    0.630619 0.524254 0.780092 0.135159
H27   H     H_    0.400920 0.677852 0.012190 0.118826
H28   H     H_    0.598930 0.322134 0.987808 0.118817
I1    I     I_    0.805723 0.344074 0.348064 -0.466133
I2    I     I_    0.194190 0.655938 0.651933 -0.466147
I3    I     I_    0.637171 0.310194 0.511485 -0.440157
I4    I     I_    0.362806 0.689805 0.488519 -0.440157

loop_
_geom_bond_atom_site_label_1
_geom_bond_atom_site_label_2
_ccdc_geom_bond_type
C32   C34   S    
C46   C54   A    
O11   V3    S    
C54   C60   A    
O13   V3    S    
C25   I1    S    
C27   C32   S    
O4    C2    A    
V1    O19   S    
C55   C56   A    
C43   C49   A    
C23   C25   A    
C21   C22   A    
C7    C9    S    
C23   I3    S    
O9    V1    S    
C9    C15   A    
C38   H14   S    
C10   C16   A    
C11   C13   A    
C48   H23   S    
C36   C39   S    
O3    C1    A    
C27   C29   S    
C52   C56   A    
C28   C30   S    
C30   H8    S    
C18   C22   A    
O7    C3    A    
C36   H16   S    
O5    C7    A    
O7    V1    S    
O6    C8    A    
C30   C33   S    
O8    V2    S    
C31   C33   S    
C45   C53   A    
C2    C39   S    
O3    V1    S    
O14   V4    S    
C11   C19   A    
C6    C32   S    
C24   I4    S    
C46   H26   S    
C24   C26   A    
C15   H2    S    
C8    C10   S    
C2    O12   A    
C38   C40   S    
C28   H10   S    
C17   C19   A    
C49   H22   S    
C18   C20   A    
C27   C33   S    
C58   C60   A    
C35   C40   S    
C41   H17   S    
C27   H9    S    
O17   V3    S    
C29   H7    S    
C11   H5    S    
C4    C44   S    
C36   C38   S    
C44   C48   A    
C39   C41   S    
C43   C47   A    
C19   C25   A    
C1    O11   A    
O15   V3    S    
C9    C13   A    
C33   H11   S    
C52   C54   A    
C12   H6    S    
C29   C34   S    
C49   C51   A    
C28   C31   S    
C57   H27   S    
O10   V2    S    
O1    V3    S    
C37   C39   S    
C60   H20   S    
C45   H25   S    
C13   H4    S    
C28   C34   S    
C57   C59   A    
C46   C48   A    
C58   H28   S    
C42   H18   S    
C45   C47   A    
O8    C4    A    
O16   C6    A    
C12   C20   A    
O1    C3    A    
C37   H13   S    
C38   C41   S    
C12   C14   A    
C51   C55   A    
C37   C42   S    
C35   H15   S    
C55   C58   A    
C35   C37   S    
V2    O20   S    
C21   C24   A    
C20   C26   A    
C22   C23   A    
O16   V4    S    
C10   C14   A    
C16   C18   A    
O18   V4    S    
O5    V1    S    
O17   C7    A    
C16   H1    S    
O6    V2    S    
O10   C6    A    
O18   C8    A    
O2    V4    S    
C5    C31   S    
O15   C5    A    
V3    O19   S    
C44   C50   A    
C29   C31   S    
V4    O20   S    
C50   C52   A    
C51   C53   A    
C14   H3    S    
C47   H24   S    
O9    C5    A    
O13   V1    S    
C40   C42   S    
O14   V2    S    
O2    C4    A    
C30   C32   S    
O4    V2    S    
C50   H21   S    
C15   C17   A    
C59   H19   S    
C56   C57   A    
C3    C43   S    
C34   H12   S    
C17   C21   A    
C26   I2    S    
O12   V4    S    
C36   C42   S    
C53   C59   A    
C1    C40   S    
C35   C41   S    
