data_mof_unit_7961.cif
_audit_creation_date              2012-12-11T15:41:27-0500
_audit_creation_method            fapswitch 2.2
_symmetry_space_group_name_H-M    P1
_symmetry_Int_Tables_number       1
_space_group_crystal_system       triclinic
_cell_length_a                    15.094332
_cell_length_b                    15.095737
_cell_length_c                    14.809365
_cell_angle_alpha                 109.08569
_cell_angle_beta                  109.7594
_cell_angle_gamma                 110.454974
_cell_volume                      2568.57894013

loop_
_atom_site_label
_atom_site_type_symbol
_atom_type_description
_atom_site_fract_x
_atom_site_fract_y
_atom_site_fract_z
_atom_type_partial_charge
C1    C     C_R   0.197966 0.997532 0.906226 -0.089261
C2    C     C_R   0.619922 0.847714 0.423031 0.009830
C3    C     C_R   0.436391 0.344205 0.784854 -0.094487
C4    C     C_R   0.562415 0.749757 0.321167 -0.131277
C5    C     C_R   0.373399 0.334798 0.836206 0.002581
C6    C     C_R   0.618939 0.707962 0.279712 0.027313
C7    C     C_R   0.258427 0.259941 0.770408 0.072390
C8    C     C_R   0.735363 0.766185 0.341844 -0.015319
C9    C     C_R   0.211107 0.189453 0.656737 0.024827
C10   C     C_R   0.792066 0.863449 0.443498 -0.023390
C11   C     C_R   0.274085 0.201482 0.606011 -0.275295
C12   C     C_R   0.757667 0.943975 0.033577 -0.052876
C13   C     C_R   0.735020 0.903902 0.483878 -0.233204
C14   C     C_R   0.422914 0.513516 0.968741 -0.250119
C15   C     C_R   0.555216 0.512917 0.152920 -0.164348
C16   C     C_R   0.807328 0.206206 0.298295 0.002125
C17   C     C_R   0.245939 0.776814 0.682728 -0.009428
C18   C     C_R   0.488595 0.607313 0.073330 0.054541
C19   C     C_R   0.494644 0.421279 0.045601 0.106089
C20   C     C_R   0.554576 0.608707 0.167616 0.026803
C21   C     C_R   0.426175 0.420712 0.953033 0.016703
C22   C     C_R   0.052740 0.467279 0.364191 -0.034657
C23   C     C_R   0.875755 0.297487 0.298711 0.053188
C24   C     C_R   0.147494 0.468146 0.562051 -0.004473
C25   C     C_R   0.138842 0.564720 0.462286 -0.127567
C26   C     C_R   0.058274 0.371682 0.464780 -0.076321
C27   C     C_R   0.172582 0.568790 0.564929 -0.018483
C28   C     C_R   0.997321 0.375697 0.372460 -0.061105
C29   C     C_R   0.598101 0.178850 0.627924 -0.046861
C30   C     C_R   0.397070 0.063046 0.429773 -0.002347
C31   C     C_R   0.595942 0.167616 0.529942 -0.292141
C32   C     C_R   0.399934 0.059170 0.522890 -0.292464
C33   C     C_R   0.496138 0.099432 0.428269 0.176537
C34   C     C_R   0.224942 0.673720 0.669713 -0.045685
C35   C     C_R   0.500894 0.108782 0.620018 0.136881
C36   C     C_R   0.060458 0.047522 0.010801 0.070775
C37   C     C_R   0.853121 0.852335 0.874263 0.080697
C38   C     C_R   0.969637 0.049137 0.008403 -0.189016
C39   C     C_R   0.944934 0.850147 0.877266 -0.106229
C40   C     C_R   0.407155 0.967967 0.221939 -0.001675
C41   C     C_R   0.592134 0.094424 0.790949 -0.125922
C42   C     C_R   0.867285 0.952524 0.941479 0.082883
C43   C     C_R   0.047339 0.947075 0.945555 0.107806
C44   C     C_R   0.592880 0.315807 0.045710 -0.062921
C45   C     C_R   0.497497 0.050326 0.325306 0.056767
C46   C     C_R   0.406843 0.706394 0.012048 -0.061947
C47   C     C_R   0.590023 0.068241 0.315196 -0.177037
C48   C     C_R   0.411141 0.012577 0.704384 -0.165319
C49   C     C_R   0.409956 0.222504 0.969134 -0.162944
C50   C     C_R   0.588191 0.792287 0.098817 -0.094892
C51   C     C_R   0.806684 0.298169 0.209047 -0.154271
C52   C     C_R   0.251972 0.686161 0.775077 -0.053393
C53   C     C_R   0.200113 0.912362 0.004076 -0.047742
C54   C     C_R   0.749236 0.029352 0.934964 -0.162316
C55   C     C_R   0.140783 0.945831 0.945896 -0.003672
C56   C     C_R   0.502182 0.073004 0.701488 0.097379
C57   C     C_R   0.780455 0.958951 0.954623 0.012031
C58   C     C_2   0.151582 0.012250 0.810805 0.544132
C59   C     C_2   0.811912 0.910867 0.108042 0.495769
C60   C     C_2   0.447491 0.306877 0.612616 0.520487
C61   C     C_2   0.561259 0.892944 0.466579 0.505651
C62   C     C_2   0.031747 0.459616 0.255914 0.518891
C63   C     C_2   0.217358 0.460479 0.653563 0.460673
C64   C     C_2   0.700360 0.267254 0.734215 0.536725
C65   C     C_2   0.291547 0.034739 0.340922 0.394083
C66   C     C_2   0.839127 0.155412 0.363090 0.390255
C67   C     C_R   0.501562 0.325767 0.030167 0.043624
C68   C     C_2   0.196760 0.800724 0.596549 0.481590
C69   C     C_2   0.697689 0.396492 0.066060 0.552284
C70   C     C_2   0.298068 0.651109 0.000547 0.471233
C71   C     C_R   0.495599 0.704079 0.073284 -0.029983
C72   C     C_R   0.386145 0.282113 0.669114 -0.000813
H1    H     H_    0.523085 0.406673 0.834499 0.186087
H2    H     H_    0.322682 0.016800 0.518129 0.125898
H3    H     H_    0.979117 0.125482 0.061065 0.128233
H4    H     H_    0.936786 0.774035 0.826381 0.143955
H5    H     H_    0.322200 0.925724 0.198215 0.121720
H6    H     H_    0.677707 0.147392 0.821669 0.106355
H7    H     H_    0.673588 0.126971 0.380337 0.152550
H8    H     H_    0.330873 0.000862 0.660987 0.116123
H9    H     H_    0.326762 0.202073 0.941971 0.079529
H10   H     H_    0.670687 0.819942 0.158240 0.100644
H11   H     H_    0.831521 0.350756 0.177762 0.085232
H12   H     H_    0.473365 0.706170 0.272992 0.153005
H13   H     H_    0.241351 0.623940 0.797311 0.119799
H14   H     H_    0.171997 0.859088 0.034916 0.140888
H15   H     H_    0.765624 0.066094 0.886599 0.113044
H16   H     H_    0.234143 0.151334 0.516690 0.121975
H17   H     H_    0.780952 0.979706 0.562475 0.138264
H18   H     H_    0.199236 0.033868 0.772554 0.025632
H19   H     H_    0.827646 0.944848 0.192199 -0.026984
H20   H     H_    0.405392 0.263771 0.522593 0.034335
H21   H     H_    0.607380 0.968115 0.546074 -0.006940
H22   H     H_    0.212663 0.253617 0.883985 0.088288
H23   H     H_    0.123459 0.130802 0.605900 0.132809
H24   H     H_    0.193434 0.337997 0.839193 0.155382
H25   H     H_    0.772588 0.719456 0.221829 0.170993
H26   H     H_    0.782225 0.656556 0.298216 0.174873
H27   H     H_    0.990375 0.380185 0.182250 -0.011993
H28   H     H_    0.303198 0.524537 0.710800 -0.005367
H29   H     H_    0.779163 0.294714 0.738468 0.024866
H30   H     H_    0.214341 0.981071 0.330734 0.061529
H31   H     H_    0.193663 0.168825 0.031925 0.103354
H32   H     H_    0.220739 0.136361 0.133679 0.175339
H33   H     H_    0.715687 0.736899 0.852629 0.167121
H34   H     H_    0.881128 0.908667 0.491117 0.152223
H35   H     H_    0.695109 0.766707 0.749465 0.106084
H36   H     H_    0.815489 0.070376 0.320384 0.008634
H37   H     H_    0.223936 0.800828 0.537620 0.021184
H38   H     H_    0.745471 0.368500 0.037853 0.049789
H39   H     H_    0.275579 0.583475 0.016210 0.031483
H40   H     H_    0.375620 0.515339 0.896155 0.147302
H41   H     H_    0.603585 0.509758 0.223739 0.134395
H42   H     H_    0.180705 0.635025 0.457083 0.144349
H43   H     H_    0.039969 0.294620 0.460799 0.179395
H44   H     H_    0.672450 0.210530 0.533485 0.142878
N1    N     N_R   0.293810 0.002730 0.945950 -0.077790
N2    N     N_R   0.443210 0.997250 0.791090 -0.054311
N3    N     N_R   0.443180 0.152110 0.945950 -0.048227
N4    N     N_R   0.556820 0.847890 0.054050 -0.064267
N5    N     N_R   0.706170 0.208950 0.152090 -0.053071
N6    N     N_R   0.293830 0.791050 0.847910 -0.030325
N7    N     N_R   0.293800 0.945910 0.002760 -0.043734
N8    N     N_R   0.706200 0.054090 0.997240 -0.047045
N9    N     N_3   0.186959 0.261655 0.813925 -0.184419
N10   N     N_3   0.798038 0.731084 0.301900 -0.189068
N11   N     N_3   0.165013 0.148045 0.081364 -0.212829
N12   N     N_R   0.706190 0.997270 0.054050 -0.086754
N13   N     N_3   0.747461 0.753445 0.803531 -0.190691
N14   N     N_R   0.706160 0.152130 0.208910 -0.074868
N15   N     N_R   0.293840 0.847870 0.791090 -0.063452
N16   N     N_R   0.443140 0.945920 0.152090 -0.044361
N17   N     N_R   0.556860 0.054080 0.847910 -0.042903
N18   N     N_R   0.556830 0.208940 0.002760 -0.068715
N19   N     N_R   0.443170 0.791060 0.997240 -0.046275
N20   N     N_R   0.556790 0.002750 0.208910 -0.054457
Ni1   Ni    Ni4+2 0.369690 0.999990 0.869700 0.228384
Ni2   Ni    Ni4+2 0.630310 0.000010 0.130300 0.192398
Ni3   Ni    Ni4+2 0.369670 0.869670 0.000000 0.289625
Ni4   Ni    Ni4+2 0.630330 0.130330 0.000000 0.202974
O1    O     O_2   0.059648 0.999231 0.773070 -0.587622
O2    O     O_2   0.127750 0.825812 0.594007 -0.578001
O3    O     O_2   0.729865 0.493998 0.110159 -0.586716
O4    O     O_2   0.233851 0.682565 0.976866 -0.587379
O5    O     O_2   0.841929 0.847388 0.077285 -0.570269
O6    O     O_2   0.545091 0.376907 0.665519 -0.555540
O7    O     O_2   0.461094 0.847264 0.414479 -0.584299
O8    O     O_2   0.062286 0.541639 0.248006 -0.549584
O9    O     O_2   0.179887 0.382242 0.665663 -0.585006
O10   O     O_2   0.696971 0.315100 0.816149 -0.578354
O11   O     O_2   0.290100 0.076297 0.282629 -0.611564
O12   O     O_2   0.880845 0.204035 0.463970 -0.568081

loop_
_geom_bond_atom_site_label_1
_geom_bond_atom_site_label_2
_ccdc_geom_bond_type
C47   N20   A    
C17   N15   A    
C33   C45   S    
C14   C18   A    
C16   C66   S    
C24   C27   A    
C47   H7    S    
N5    N14   A    
H35   N13   S    
C41   N17   A    
N16   Ni3   S    
C15   C19   A    
C50   N4    A    
N5    Ni4   S    
C52   H13   S    
C19   C21   A    
C24   C26   A    
N6    Ni3   S    
C38   C42   A    
C32   H2    S    
C54   H15   S    
C61   H21   S    
C60   C72   S    
C14   H40   S    
N7    Ni3   S    
C6    C8    A    
C48   C56   A    
C45   C47   A    
C49   H9    S    
C37   C42   A    
C2    C13   A    
N12   Ni2   S    
C26   H43   S    
C63   O9    D    
C34   C52   A    
C46   N19   A    
C12   C59   S    
C52   N6    A    
C22   C25   A    
C15   H41   S    
C19   C67   S    
C53   H14   S    
N2    Ni1   S    
C16   N14   A    
C9    H23   S    
C2    C61   S    
N8    N12   A    
C60   H20   S    
C40   N16   A    
C29   C64   S    
C22   C28   A    
C40   C45   A    
C60   O6    D    
C65   H30   S    
C42   C57   S    
C38   H3    S    
C53   C55   A    
C27   C34   S    
C44   N18   A    
C64   H29   S    
C1    C55   A    
N3    N18   A    
N3    Ni1   S    
C32   C35   A    
N20   Ni2   S    
C53   N7    A    
C41   H6    S    
C5    C7    A    
C11   C72   A    
C48   N2    A    
C23   C28   S    
C69   O3    D    
C64   O10   D    
C15   C20   A    
C65   O11   D    
C2    C4    A    
C50   C71   A    
C41   C56   A    
C66   O12   D    
C63   H28   S    
N15   Ni1   S    
C22   C62   S    
C9    C11   A    
C69   H38   S    
C23   C51   A    
C4    H12   S    
C11   H16   S    
N16   N20   A    
C31   C33   A    
C36   C43   A    
C44   C69   S    
C1    N1    A    
C39   H4    S    
C7    N9    S    
C68   O2    D    
C58   H18   S    
C46   C71   A    
N2    N17   A    
C12   C57   A    
C59   O5    D    
C8    N10   S    
C24   C63   S    
C51   N5    A    
C10   H34   S    
C4    C6    A    
C25   C27   A    
C17   C34   A    
N4    Ni2   S    
N14   Ni2   S    
C51   H11   S    
C31   H44   S    
H31   N11   S    
C50   H10   S    
C59   H19   S    
H22   N9    S    
C43   C55   S    
C18   C71   S    
C7    C9    A    
C54   N8    A    
C17   C68   S    
C49   C67   A    
C30   C33   A    
C13   H17   S    
C35   C56   S    
C70   O4    D    
N8    Ni4   S    
C8    C10   A    
N1    Ni1   S    
C66   H36   S    
H25   N10   S    
C3    C5    A    
C10   C13   A    
H33   N13   S    
C12   N12   A    
N18   Ni4   S    
C16   C23   A    
C6    C20   S    
C29   C35   A    
C26   C28   A    
N4    N19   A    
C48   H8    S    
C36   C38   A    
C3    C72   A    
N1    N7    A    
C29   C31   A    
C25   H42   S    
C30   C32   A    
C58   O1    D    
N6    N15   A    
C49   N3    A    
H32   N11   S    
C37   N13   S    
H24   N9    S    
N19   Ni3   S    
C18   C20   A    
C68   H37   S    
C61   O7    D    
C3    H1    S    
C46   C70   S    
C30   C65   S    
C70   H39   S    
C14   C21   A    
C62   H27   S    
C36   N11   S    
H26   N10   S    
C5    C21   S    
C39   C43   A    
N17   Ni4   S    
C37   C39   A    
C40   H5    S    
C44   C67   A    
C62   O8    D    
C1    C58   S    
C54   C57   A    
