data_mof_unit_16333.cif
_audit_creation_date              2013-03-05T15:46:52-0500
_audit_creation_method            fapswitch 2.2
_symmetry_space_group_name_H-M    P1
_symmetry_Int_Tables_number       1
_space_group_crystal_system       triclinic
_cell_length_a                    14.799763
_cell_length_b                    15.079608
_cell_length_c                    14.927227
_cell_angle_alpha                 109.136812
_cell_angle_beta                  109.354705
_cell_angle_gamma                 108.990095
_cell_volume                      2593.55545993

loop_
_atom_site_label
_atom_site_type_symbol
_atom_site_description
_atom_site_fract_x
_atom_site_fract_y
_atom_site_fract_z
_atom_type_partial_charge
C1    C     C_R   0.246827 0.061841 0.971385 -0.041904
C2    C     C_R   0.806125 0.007481 0.098078 -0.080407
H1    H     H_    0.228927 0.108735 0.934775 0.112739
H2    H     H_    0.834040 0.985303 0.159553 0.082093
N1    N     N_R   0.293810 0.002730 0.945950 -0.056489
N2    N     N_R   0.706190 0.997270 0.054050 -0.055735
C3    C     C_R   0.758240 0.220784 0.314475 -0.062583
C4    C     C_R   0.200709 0.788662 0.696407 -0.118786
H3    H     H_    0.774889 0.199970 0.378681 0.163944
H4    H     H_    0.173188 0.814098 0.637659 0.190174
N3    N     N_R   0.706160 0.152130 0.208910 -0.087197
N4    N     N_R   0.293840 0.847870 0.791090 -0.095981
C5    C     C_R   0.408903 0.905689 0.209161 -0.037276
C6    C     C_R   0.594352 0.027768 0.779129 -0.021173
H5    H     H_    0.325157 0.846565 0.175573 0.216575
H6    H     H_    0.680026 0.062100 0.802936 0.182390
N5    N     N_R   0.443140 0.945920 0.152090 -0.071907
N6    N     N_R   0.556860 0.054080 0.847910 -0.068131
C7    C     C_R   0.586871 0.304663 0.008536 -0.007837
C8    C     C_R   0.413857 0.688027 0.936918 0.031109
H7    H     H_    0.668511 0.362065 0.033279 0.185336
H8    H     H_    0.331456 0.621343 0.890379 0.170600
N7    N     N_R   0.556830 0.208940 0.002760 -0.066903
N8    N     N_R   0.443170 0.791060 0.997240 -0.048907
C9    C     C_R   0.591008 0.996829 0.300296 -0.125483
C10   C     C_R   0.410928 0.935017 0.687091 -0.007924
H9    H     H_    0.675549 0.021938 0.351870 0.167327
H10   H     H_    0.326671 0.882816 0.624096 0.139385
N9    N     N_R   0.556790 0.002750 0.208910 -0.063283
N10   N     N_R   0.443210 0.997250 0.791090 -0.066830
C11   C     C_R   0.404303 0.214130 0.923632 -0.103622
C12   C     C_R   0.595589 0.784652 0.018755 -0.112185
H11   H     H_    0.319592 0.187346 0.874411 0.062655
H12   H     H_    0.680603 0.810183 0.042907 0.100181
N11   N     N_R   0.443180 0.152110 0.945950 -0.060890
N12   N     N_R   0.556820 0.847890 0.054050 -0.060728
C13   C     C_R   0.767684 0.313167 0.222802 0.343055
C14   C     C_R   0.199970 0.699635 0.789954 0.331535
N13   N     N_R   0.706170 0.208950 0.152090 -0.110979
N14   N     N_R   0.293830 0.791050 0.847910 -0.112316
C15   C     C_R   0.250510 0.973408 0.065813 -0.041414
C16   C     C_R   0.804937 0.096511 0.005665 -0.065968
H13   H     H_    0.241071 0.942197 0.119505 0.128988
H14   H     H_    0.831603 0.156361 0.981945 0.142340
N15   N     N_R   0.293800 0.945910 0.002760 -0.052225
N16   N     N_R   0.706200 0.054090 0.997240 -0.059793
C17   C     C_R   0.223056 0.048943 0.050096 0.037598
C18   C     C_R   0.870295 0.070218 0.070069 0.078157
C19   C     C_R   0.795524 0.322098 0.324822 0.184848
C20   C     C_R   0.142117 0.695872 0.694419 0.216952
C21   C     C_R   0.499826 0.934963 0.302575 0.167702
C22   C     C_R   0.504468 0.950689 0.676973 0.155994
C23   C     C_R   0.492412 0.310469 0.962752 0.121389
C24   C     C_R   0.509738 0.682385 0.952220 0.142931
Ni1   Ni    Ni4+2 0.369690 0.999990 0.869700 0.245629
Ni2   Ni    Ni4+2 0.630310 0.000010 0.130300 0.243222
Ni3   Ni    Ni4+2 0.369670 0.869670 0.000000 0.324086
Ni4   Ni    Ni4+2 0.630330 0.130330 0.000000 0.291995
C25   C     C_R   0.266007 0.104817 0.630878 0.618219
C26   C     C_R   0.793768 0.857890 0.304074 0.619914
C27   C     C_R   0.349270 0.213123 0.696479 0.093260
C28   C     C_R   0.696645 0.760901 0.224841 0.119314
C29   C     C_R   0.331091 0.288196 0.763815 -0.324770
C30   C     C_R   0.693074 0.694237 0.130247 -0.376755
C31   C     C_R   0.227954 0.256113 0.758000 0.704757
C32   C     C_R   0.789155 0.719186 0.122482 0.717800
C33   C     C_R   0.145883 0.147855 0.694475 0.007811
C34   C     C_R   0.887480 0.813444 0.203948 0.008014
C35   C     C_R   0.166489 0.070536 0.633312 -0.007271
C36   C     C_R   0.888874 0.887365 0.293290 -0.022637
C37   C     C_R   0.439284 0.488606 0.850410 0.317530
C38   C     C_R   0.569396 0.502007 0.047861 0.298176
C39   C     C_R   0.520913 0.588175 0.943245 -0.120123
C40   C     C_R   0.490498 0.402706 0.955310 -0.158972
C41   C     C_R   0.591935 0.594061 0.039218 0.141434
C42   C     C_R   0.423147 0.394300 0.856382 0.115551
C43   C     C_R   0.982387 0.421658 0.468159 0.663460
C44   C     C_R   0.949469 0.596287 0.556351 0.694969
C45   C     C_R   0.068826 0.515876 0.556869 0.669254
C46   C     C_R   0.862291 0.501418 0.466450 0.701875
C47   C     C_R   0.051569 0.601997 0.600595 -0.571237
C48   C     C_R   0.880008 0.415297 0.423467 -0.571120
C49   C     C_R   0.604518 0.944226 0.570969 0.827677
C50   C     C_R   0.403517 0.841742 0.381871 0.851109
C51   C     C_R   0.601675 0.943691 0.477244 -0.233598
C52   C     C_R   0.406586 0.844306 0.476390 -0.272138
H15   H     H_    0.679111 0.982945 0.480789 0.240314
H16   H     H_    0.329437 0.804967 0.473509 0.207822
C53   C     C_R   0.501079 0.902400 0.385347 -0.196531
C54   C     C_R   0.506126 0.907125 0.574424 -0.207286
C55   C     C_R   0.130891 0.062250 0.161464 -0.051453
C56   C     C_R   0.038281 0.162379 0.063138 -0.065412
H17   H     H_    0.164098 0.021612 0.198920 0.167783
H18   H     H_    0.003270 0.200058 0.022567 0.162002
C57   C     C_R   0.040386 0.066950 0.165505 -0.024287
C58   C     C_R   0.129035 0.158138 0.059468 -0.071368
H19   H     H_    0.006484 0.029373 0.205264 0.150257
H20   H     H_    0.160999 0.193624 0.017042 0.160768
C59   C     C_R   0.986401 0.105776 0.105407 0.069070
C60   C     C_R   0.166402 0.095898 0.096541 0.060365
F1    F     F_    0.284048 0.031576 0.568362 -0.601495
F2    F     F_    0.794594 0.924677 0.391489 -0.602786
N17   N     N_R   0.453514 0.244899 0.699142 0.289013
O1    O     O_R   0.490750 0.177397 0.681828 -0.325146
O2    O     O_R   0.510755 0.340750 0.716021 -0.298017
N18   N     N_R   0.603663 0.731112 0.242210 0.286196
O3    O     O_R   0.618191 0.749357 0.338681 -0.254323
O4    O     O_R   0.504257 0.683941 0.162394 -0.374169
F3    F     F_    0.210850 0.329655 0.821683 -0.592494
F4    F     F_    0.787083 0.650019 0.035181 -0.579995
N19   N     N_R   0.044005 0.117007 0.696212 0.316978
O5    O     O_R   0.951434 0.048147 0.606819 -0.180448
O6    O     O_R   0.042701 0.161963 0.786220 -0.291995
N20   N     N_R   0.984176 0.831963 0.193989 0.294592
O7    O     O_R   0.064939 0.832075 0.264123 -0.203870
O8    O     O_R   0.980249 0.820523 0.102277 -0.326280
N21   N     N_R   0.376855 0.484800 0.750331 0.258709
O9    O     O_R   0.425122 0.549337 0.720645 -0.296885
O10   O     O_R   0.271561 0.420731 0.690720 -0.255309
N22   N     N_R   0.622154 0.509080 0.152443 0.247026
O11   O     O_R   0.728463 0.559071 0.210794 -0.302985
O12   O     O_R   0.563115 0.462427 0.188045 -0.290831
F5    F     F_    0.999016 0.338415 0.422843 -0.595902
F6    F     F_    0.935038 0.681408 0.600449 -0.558250
F7    F     F_    0.169894 0.524537 0.599170 -0.583533
F8    F     F_    0.762108 0.493617 0.419902 -0.559103
F9    F     F_    0.703817 0.988578 0.658909 -0.649737
F10   F     F_    0.304080 0.786817 0.291289 -0.637528
N23   N     N_R   0.827963 0.390015 0.199459 0.240191
O13   O     O_R   0.885310 0.491820 0.270625 -0.305274
O14   O     O_R   0.839772 0.356368 0.114100 -0.383677
N24   N     N_R   0.154312 0.639122 0.835474 0.244185
O15   O     O_R   0.200047 0.678450 0.940463 -0.364600
O16   O     O_R   0.062052 0.549311 0.773625 -0.308770
N25   N     N_R   0.091309 0.957293 0.581133 0.292424
O17   O     O_R   0.083076 0.889473 0.494052 -0.251188
O18   O     O_R   0.043045 0.919737 0.629347 -0.287380
N26   N     N_R   0.981974 0.993900 0.369030 0.280483
O19   O     O_R   0.968173 0.072256 0.420476 -0.280111
O20   O     O_R   0.079219 0.016498 0.380990 -0.317339

loop_
_geom_bond_atom_site_label_1
_geom_bond_atom_site_label_2
_geom_bond_distance
_ccdc_geom_bond_type
C50   F10   1.354087 S    
N7    Ni4   1.851226 S    
C32   C34   1.401546 A    
C29   C31   1.405534 A    
N5    N9    1.386591 A    
C6    N6    1.331635 A    
C7    N7    1.328171 A    
N19   O5    1.299896 A    
N5    Ni3   1.870063 S    
N20   O7    1.301077 A    
N25   O17   1.301056 A    
C3    N3    1.324771 A    
N15   Ni3   1.850404 S    
N8    N12   1.386591 A    
C40   C42   1.417637 A    
C1    N1    1.333657 A    
C12   N12   1.320306 A    
C27   N17   1.441219 S    
C50   C52   1.383773 A    
N21   O10   1.300381 A    
C37   C42   1.401258 A    
C52   H16   1.080438 S    
N18   O3    1.300833 A    
C57   C59   1.399863 A    
C56   C58   1.383293 A    
C26   C28   1.405294 A    
C16   N16   1.333223 A    
C27   C29   1.412697 A    
C28   C30   1.411546 A    
C5    C21   1.384236 A    
C22   C54   1.466801 S    
N6    Ni4   1.870066 S    
C6    C22   1.390321 A    
C8    N8    1.340943 A    
N24   O15   1.300856 A    
C31   C33   1.403801 A    
C58   H20   1.080380 S    
C11   H11   1.067740 S    
N6    N10   1.386591 A    
C55   C60   1.399747 A    
C46   F8    1.358317 S    
C44   F6    1.357986 S    
C15   H13   1.078034 S    
C7    C23   1.383714 A    
C51   H15   1.079052 S    
C45   F7    1.358642 S    
C35   N25   1.441427 S    
N16   Ni4   1.850403 S    
C39   C41   1.422281 A    
C2    N2    1.335759 A    
C16   H14   1.079798 S    
C38   C41   1.378191 A    
C26   F2    1.355318 S    
C12   C24   1.364963 A    
N22   O12   1.301414 A    
C43   C45   1.367254 A    
C9    N9    1.332928 A    
C25   C27   1.409463 A    
C37   N21   1.443293 S    
N11   Ni1   1.893237 S    
C25   F1    1.357669 S    
C3    C19   1.379331 A    
C38   C40   1.396712 A    
C52   C54   1.401081 A    
C49   F9    1.355069 S    
C37   C39   1.407079 A    
C51   C53   1.403196 A    
N8    Ni3   1.851225 S    
C30   C41   1.484354 S    
C2    C18   1.381866 A    
N13   Ni4   1.870769 S    
N1    N15   1.389128 A    
C49   C54   1.405200 A    
C32   F4    1.359625 S    
C17   C60   1.461112 S    
C1    H1    1.071543 S    
C14   N24   1.435461 S    
C19   C48   1.409238 S    
N4    N14   1.389248 A    
C2    H2    1.079108 S    
C9    C21   1.387248 A    
C43   F5    1.359602 S    
C10   C22   1.394346 A    
C55   H17   1.080831 S    
C24   C39   1.451332 S    
C13   C19   1.385848 A    
C26   C36   1.412305 A    
C4    N4    1.332287 A    
C38   N22   1.444594 S    
C56   H18   1.080420 S    
C15   C17   1.389509 A    
N19   O6    1.301403 A    
C16   C18   1.378475 A    
C11   C23   1.363115 A    
N3    N13   1.389248 A    
C31   F3    1.359633 S    
N26   O20   1.299975 A    
C25   C35   1.410709 A    
C28   N18   1.439875 S    
C8    C24   1.396231 A    
C49   C51   1.382957 A    
C8    H8    1.078586 S    
C10   N10   1.334291 A    
N7    N11   1.386590 A    
C5    H5    1.076238 S    
N17   O2    1.301209 A    
C6    H6    1.074939 S    
C50   C53   1.408497 A    
C4    C20   1.369938 A    
N22   O11   1.300623 A    
C45   C47   1.395840 A    
N23   O13   1.300294 A    
C33   N19   1.437977 S    
N25   O18   1.301406 A    
C18   C59   1.460343 S    
N14   Ni3   1.870771 S    
N2    N16   1.389128 A    
C7    H7    1.076786 S    
N1    Ni1   1.845249 S    
C4    H4    1.080529 S    
C1    C17   1.386133 A    
N2    Ni2   1.845251 S    
N20   O8    1.301231 A    
C57   H19   1.076058 S    
C36   N26   1.446925 S    
C14   C20   1.369671 A    
N9    Ni2   1.845621 S    
C9    H9    1.078716 S    
N10   Ni1   1.845623 S    
C10   H10   1.075865 S    
C5    N5    1.332471 A    
C13   N13   1.325541 A    
C30   C32   1.402377 A    
N21   O9    1.301480 A    
C21   C53   1.468530 S    
C14   N14   1.324246 A    
C44   C47   1.394078 A    
N18   O4    1.300514 A    
C43   C48   1.394097 A    
C58   C60   1.403031 A    
C11   N11   1.320654 A    
N12   Ni2   1.893237 S    
C46   C48   1.397765 A    
C13   N23   1.434636 S    
C44   C46   1.380040 A    
N4    Ni1   1.893484 S    
N26   O19   1.301422 A    
C55   C57   1.383956 A    
C3    H3    1.081115 S    
C56   C59   1.401379 A    
N24   O16   1.300802 A    
C29   C42   1.486424 S    
C34   N20   1.433959 S    
N17   O1    1.301385 A    
C34   C36   1.419028 A    
C15   N15   1.336036 A    
C33   C35   1.415629 A    
N3    Ni2   1.893484 S    
C20   C47   1.408102 S    
C12   H12   1.074388 S    
N23   O14   1.301130 A    
C23   C40   1.439657 S    
