data_mof_unit_24396.cif
_audit_creation_date              2012-12-11T16:29:35-0500
_audit_creation_method            fapswitch 2.2
_symmetry_space_group_name_H-M    P1
_symmetry_Int_Tables_number       1
_space_group_crystal_system       triclinic
_cell_length_a                    6.951666
_cell_length_b                    17.260836
_cell_length_c                    18.837763
_cell_angle_alpha                 106.242282
_cell_angle_beta                  90.490683
_cell_angle_gamma                 91.053804
_cell_volume                      2169.56736425

loop_
_atom_site_label
_atom_site_type_symbol
_atom_type_description
_atom_site_fract_x
_atom_site_fract_y
_atom_site_fract_z
_atom_type_partial_charge
O1    O     O_R   0.494360 0.415680 0.413760 -0.511620
O2    O     O_R   0.818810 0.432910 0.557230 -0.536411
O3    O     O_R   0.994290 0.584320 0.586240 -0.544203
C1    C     C_R   0.650256 0.416074 0.580714 0.793883
O4    O     O_R   0.823740 0.406440 0.412520 -0.529952
O5    O     O_R   0.999250 0.557660 0.440500 -0.526873
C2    C     C_R   0.652858 0.383462 0.385074 0.942853
O6    O     O_R   0.489400 0.442340 0.559500 -0.516823
O7    O     O_3   0.662500 0.549650 0.509350 -0.354195
V1    V     V_3+5 0.935340 0.490790 0.498270 1.545338
O8    O     O_R   0.329270 0.567090 0.442770 -0.507004
C3    C     C_R   0.160945 0.584092 0.419410 0.721384
O9    O     O_R   0.324340 0.593560 0.587480 -0.528662
C4    C     C_R   0.158290 0.617900 0.614487 0.630841
V2    V     V_3+5 0.435970 0.509210 0.501730 1.609644
O10   O     O_3   0.158940 0.450350 0.490650 -0.367578
C5    C     C_R   0.148373 0.588203 0.764847 -0.035472
C6    C     C_R   0.137601 0.577126 0.835447 -0.182589
C7    C     C_R   0.115446 0.641475 0.897048 -0.158721
C8    C     C_R   0.105092 0.719082 0.890478 0.579593
C9    C     C_R   0.118115 0.735021 0.820405 -0.026626
C10   C     C_R   0.138270 0.668221 0.755257 -0.056955
C11   C     C_R   0.108219 0.815644 0.814651 -0.146070
C12   C     C_R   0.114664 0.829890 0.743555 -0.109671
C13   C     C_R   0.173359 0.766508 0.681893 0.078170
C14   C     C_R   0.159822 0.684691 0.685092 -0.068110
C15   C     C_R   0.070779 0.905967 0.731478 -0.160112
C16   C     C_R   0.107828 0.920010 0.663104 0.605974
C17   C     C_R   0.196891 0.862404 0.606878 -0.144218
C18   C     C_R   0.242687 0.787358 0.618136 -0.140484
H1    H     H_    0.144992 0.517232 0.843052 0.185676
H2    H     H_    0.105528 0.631011 0.950986 0.180369
C19   C     C_1   0.112240 0.864897 0.133498 -0.116301
C20   C     C_1   0.119680 0.822309 0.177047 0.076049
C21   C     C_1   0.128804 0.771985 0.228838 0.062647
C22   C     C_1   0.136550 0.729513 0.272486 0.077988
C23   C     C_1   0.145601 0.679017 0.324130 0.117457
C24   C     C_1   0.152906 0.636243 0.367519 -0.105223
C25   C     C_1   0.642502 0.363298 0.632027 -0.056043
C26   C     C_1   0.638175 0.320060 0.675036 0.098547
C27   C     C_1   0.633996 0.269130 0.726320 0.062824
C28   C     C_1   0.630655 0.226349 0.769739 0.073045
C29   C     C_1   0.626404 0.175834 0.821381 0.095470
C30   C     C_1   0.622001 0.133441 0.865119 -0.137882
C31   C     C_R   0.558819 0.411699 0.243237 0.385034
C32   C     C_R   0.531583 0.427436 0.175511 0.580634
C33   C     C_R   0.570507 0.369175 0.110481 0.463439
C34   C     C_R   0.631000 0.292812 0.112200 -0.257135
C35   C     C_R   0.623695 0.270146 0.179598 -0.058660
C36   C     C_R   0.605380 0.332803 0.247144 -0.166242
C37   C     C_R   0.632134 0.188144 0.181659 -0.019555
C38   C     C_R   0.651201 0.170797 0.250803 -0.029235
C39   C     C_R   0.658951 0.234156 0.317950 -0.078826
C40   C     C_R   0.637120 0.315666 0.316022 -0.113045
C41   C     C_R   0.663746 0.090067 0.253662 -0.160346
C42   C     C_R   0.686248 0.070264 0.320364 -0.126601
C43   C     C_R   0.698404 0.132712 0.387149 -0.148800
C44   C     C_R   0.683050 0.213581 0.385595 0.583958
H3    H     H_    0.654199 0.040802 0.203444 0.154056
O11   O     O_R   0.775690 0.057750 0.940570 -0.508114
O12   O     O_R   0.441200 0.093570 0.087490 -0.545149
O13   O     O_R   0.265840 0.942320 0.059480 -0.528486
C45   C     C_R   0.613006 0.119513 0.112704 0.685267
O14   O     O_R   0.446270 0.067110 0.942790 -0.527636
O15   O     O_R   0.270950 0.915660 0.913750 -0.529184
C46   C     C_R   0.614489 0.082609 0.918175 0.682452
O16   O     O_R   0.770580 0.084400 0.086300 -0.519860
O17   O     O_3   0.602640 0.950400 0.990690 -0.365385
V3    V     V_3+5 0.329740 0.009200 0.001730 1.537025
O18   O     O_R   0.940900 0.906360 0.912450 -0.533965
C47   C     C_R   0.107128 0.885171 0.883253 0.803759
O19   O     O_R   0.935830 0.932820 0.057160 -0.512389
C48   C     C_R   0.104091 0.916808 0.081379 0.813695
V4    V     V_3+5 0.829130 0.990680 0.998180 1.565835
O20   O     O_3   0.106100 0.049590 0.009310 -0.345067
C49   C     C_2   0.243787 0.884361 0.537927 0.393313
H4    H     H_    0.260322 0.947393 0.539188 0.128821
O21   O     O_2   0.255901 0.833225 0.478572 -0.558617
F1    F     F_    0.535145 0.474866 0.303970 -0.665949
F2    F     F_    0.480928 0.502290 0.173274 -0.591592
F3    F     F_    0.565439 0.389754 0.045931 -0.625489
C50   C     C_2   0.735715 0.247238 0.046501 0.469430
H5    H     H_    0.685051 0.247165 0.992036 0.077188
O22   O     O_2   0.890306 0.217356 0.052982 -0.513728
C51   C     C_2   0.689237 0.983513 0.318833 0.383476
H6    H     H_    0.669752 0.965106 0.368789 0.052508
O23   O     O_2   0.711068 0.930791 0.260971 -0.529214
F4    F     F_    0.693994 0.271679 0.451093 -0.703995
C52   C     C_2   0.175125 0.512767 0.705315 0.364905
H7    H     H_    0.073794 0.493804 0.659805 0.057091
O24   O     O_2   0.306105 0.468079 0.709510 -0.539451
F5    F     F_    0.079169 0.777552 0.954307 -0.721072
C53   C     C_2   0.960164 0.968307 0.784081 0.474673
H8    H     H_    0.829404 0.951297 0.807326 0.012163
O25   O     O_2   0.011997 0.039151 0.800315 -0.496267
F6    F     F_    0.055827 0.991026 0.651088 -0.660190
C54   C     C_2   0.404685 0.743362 0.575600 0.441993
H9    H     H_    0.402120 0.724950 0.515769 0.085083
O26   O     O_2   0.547190 0.729518 0.608052 -0.521810
C55   C     C_2   0.732818 0.114433 0.458913 0.492717
H10   H     H_    0.805116 0.059914 0.460703 0.019795
O27   O     O_2   0.681277 0.160171 0.517244 -0.477210

loop_
_geom_bond_atom_site_label_1
_geom_bond_atom_site_label_2
_ccdc_geom_bond_type
C41   C42   A    
C53   H8    S    
C41   H3    S    
C27   C28   T    
C30   C46   S    
C21   C22   T    
C12   C15   A    
C1    O6    A    
C54   H9    S    
C42   C51   S    
C17   C49   S    
C51   H6    S    
C8    F5    S    
C18   C54   S    
C23   C24   T    
C16   C17   A    
C49   O21   D    
C6    C7    A    
O5    C3    A    
O17   V4    S    
V2    O10   S    
C42   C43   A    
C20   C21   S    
O12   C45   A    
O8    V2    S    
C7    C8    A    
O17   V3    S    
C35   C37   A    
O18   V4    S    
C11   C12   A    
O13   C48   A    
O18   C47   A    
O1    V2    S    
C52   O24   D    
O7    V1    S    
C38   C41   A    
O11   C46   A    
C53   O25   D    
O9    C4    A    
C7    H2    S    
C54   O26   D    
C19   C20   T    
C51   O23   D    
C45   O16   A    
V4    O20   S    
C37   C38   A    
C11   C47   S    
C5    C52   S    
C12   C13   A    
O19   V4    S    
C25   C26   T    
O4    C2    A    
C13   C14   A    
O15   C47   A    
C43   C55   S    
C4    C14   S    
O13   V3    S    
O14   C46   A    
O2    C1    A    
C29   C30   T    
C17   C18   A    
C33   C34   A    
C1    C25   S    
O8    C3    A    
C55   O27   D    
C5    C6    A    
C37   C45   S    
C31   F1    S    
O16   V4    S    
C36   C40   A    
O14   V3    S    
C49   H4    S    
O3    C4    A    
C19   C48   S    
C34   C35   A    
C35   C36   A    
O6    V2    S    
C50   O22   D    
C9    C11   A    
C15   C53   S    
C28   C29   S    
O2    V1    S    
C38   C39   A    
O12   V3    S    
C13   C18   A    
C32   C33   A    
C26   C27   S    
O1    C2    A    
O19   C48   A    
C44   F4    S    
O5    V1    S    
C39   C44   A    
C39   C40   A    
C5    C10   A    
C16   F6    S    
O9    V2    S    
O7    V2    S    
O4    V1    S    
O3    V1    S    
V1    O10   S    
C32   F2    S    
C43   C44   A    
C31   C36   A    
O15   V3    S    
O11   V4    S    
C55   H10   S    
C34   C50   S    
V3    O20   S    
C33   F3    S    
C3    C24   S    
C31   C32   A    
C8    C9    A    
C22   C23   S    
C50   H5    S    
C10   C14   A    
C15   C16   A    
C6    H1    S    
C2    C40   S    
C52   H7    S    
C9    C10   A    
