data_mof_unit_20903.cif
_audit_creation_date              2012-12-11T14:19:17-0500
_audit_creation_method            fapswitch 2.2
_symmetry_space_group_name_H-M    P1
_symmetry_Int_Tables_number       1
_space_group_crystal_system       triclinic
_cell_length_a                    19.445324
_cell_length_b                    7.2417
_cell_length_c                    17.725383
_cell_angle_alpha                 90.000293
_cell_angle_beta                  107.8106
_cell_angle_gamma                 89.999954
_cell_volume                      2376.41075268

loop_
_atom_site_label
_atom_site_type_symbol
_atom_type_description
_atom_site_fract_x
_atom_site_fract_y
_atom_site_fract_z
_atom_type_partial_charge
O1    O     O_R   0.414820 0.494320 0.416790 -0.540560
O2    O     O_R   0.585180 0.994320 0.583210 -0.540560
O3    O     O_R   0.560270 0.819500 0.430140 -0.542348
O4    O     O_R   0.439730 0.319500 0.569860 -0.542347
C1    C     C_R   0.581211 0.655590 0.414900 0.710729
C2    C     C_R   0.418790 0.155591 0.585100 0.710727
O5    O     O_R   0.413840 0.823740 0.407440 -0.538240
O6    O     O_R   0.586160 0.323740 0.592560 -0.538241
O7    O     O_R   0.437710 0.998590 0.560350 -0.540466
O8    O     O_R   0.562290 0.498590 0.439650 -0.540468
C3    C     C_R   0.387619 0.654920 0.385190 0.733568
C4    C     C_R   0.612381 0.154921 0.614810 0.733565
O9    O     O_3   0.508000 0.662290 0.550200 -0.380151
O10   O     O_3   0.492000 0.162290 0.449800 -0.380151
V1    V     V_3+5 0.498520 0.935380 0.490690 1.401474
V2    V     V_3+5 0.501480 0.435380 0.509310 1.401476
C5    C     C_2   0.784665 0.271678 0.789396 -0.135745
C6    C     C_2   0.215336 0.771678 0.210604 -0.135748
C7    C     C_2   0.820219 0.113474 0.817345 -0.303329
C8    C     C_2   0.179781 0.613474 0.182655 -0.303314
H1    H     H_    0.806242 0.401755 0.817162 0.136879
H2    H     H_    0.193758 0.901755 0.182838 0.136879
H3    H     H_    0.800309 0.981956 0.790417 0.129593
H4    H     H_    0.199691 0.481957 0.209583 0.129595
C9    C     C_2   0.716842 0.284570 0.721260 -0.132968
C10   C     C_2   0.283159 0.784570 0.278740 -0.132965
C11   C     C_2   0.679227 0.138434 0.682735 -0.300823
C12   C     C_2   0.320773 0.638433 0.317265 -0.300821
H5    H     H_    0.697240 0.422881 0.702793 0.138637
H6    H     H_    0.302760 0.922881 0.297207 0.138638
H7    H     H_    0.697323 0.999263 0.700657 0.132303
H8    H     H_    0.302676 0.499263 0.299342 0.132303
C13   C     C_R   0.324400 0.296209 0.637077 -0.213185
C14   C     C_R   0.675598 0.796211 0.362922 -0.213203
C15   C     C_R   0.370795 0.148030 0.635800 -0.077168
C16   C     C_R   0.629208 0.648026 0.364203 -0.077168
C17   C     C_R   0.372141 0.994270 0.684400 -0.205606
C18   C     C_R   0.627869 0.494252 0.315611 -0.205609
C19   C     C_R   0.328751 0.988998 0.734782 0.055516
C20   C     C_R   0.671262 0.488976 0.265233 0.055529
C21   C     C_R   0.281278 0.135377 0.734870 0.077252
C22   C     C_R   0.718728 0.635365 0.265137 0.077270
C23   C     C_R   0.279043 0.289789 0.685337 0.109521
C24   C     C_R   0.720958 0.789787 0.314665 0.109529
C25   C     C_R   0.334970 0.842977 0.787565 -0.192907
C26   C     C_R   0.665057 0.342928 0.212465 -0.192924
C27   C     C_R   0.295345 0.839587 0.841792 -0.018202
C28   C     C_R   0.704686 0.339523 0.158242 -0.018263
C29   C     C_R   0.240634 0.976535 0.837016 -0.018938
C30   C     C_R   0.759378 0.476508 0.162998 -0.018980
C31   C     C_R   0.236140 0.127896 0.784300 0.042951
C32   C     C_R   0.763866 0.627883 0.215707 0.043020
C33   C     C_R   0.187074 0.274060 0.780945 0.121567
C34   C     C_R   0.812928 0.774056 0.219057 0.121612
C35   C     C_R   0.185747 0.427127 0.731872 -0.130901
C36   C     C_R   0.814252 0.927129 0.268128 -0.130851
C37   C     C_R   0.231681 0.435601 0.685010 -0.184190
C38   C     C_R   0.768318 0.935604 0.314989 -0.184138
C39   C     C_R   0.190091 0.969706 0.881521 -0.067999
C40   C     C_R   0.809914 0.469702 0.118482 -0.067969
C41   C     C_R   0.138995 0.115447 0.875088 -0.138218
C42   C     C_R   0.861007 0.615447 0.124914 -0.138194
C43   C     C_R   0.139412 0.266210 0.825908 -0.146497
C44   C     C_R   0.860589 0.766211 0.174093 -0.146563
H9    H     H_    0.322810 0.415492 0.599598 0.122622
H10   H     H_    0.677185 0.915501 0.400397 0.122623
H11   H     H_    0.408725 0.880944 0.684844 0.130183
H12   H     H_    0.591290 0.380918 0.315173 0.130186
H13   H     H_    0.374732 0.736184 0.789924 0.162874
H14   H     H_    0.625306 0.236112 0.210117 0.162843
H15   H     H_    0.100440 0.376356 0.820567 0.159194
H16   H     H_    0.899558 0.876363 0.179432 0.159216
H17   H     H_    0.149035 0.541006 0.729772 0.136490
H18   H     H_    0.850962 0.041013 0.270225 0.136459
H19   H     H_    0.229677 0.555716 0.647927 0.124404
H20   H     H_    0.770319 0.055723 0.352069 0.124388
O11   O     O_R   0.937810 0.773680 0.060480 -0.524351
O12   O     O_R   0.062190 0.273680 0.939520 -0.524362
O13   O     O_R   0.086190 0.439740 0.092580 -0.541961
O14   O     O_R   0.913810 0.939740 0.907420 -0.541960
C45   C     C_R   0.112560 0.608296 0.114654 0.738892
C46   C     C_R   0.887440 0.108296 0.885346 0.738943
O15   O     O_R   0.939760 0.444210 0.069890 -0.538165
O16   O     O_R   0.060240 0.944210 0.930110 -0.538209
O17   O     O_R   0.914790 0.269640 0.916760 -0.542773
O18   O     O_R   0.085210 0.769640 0.083240 -0.542783
C47   C     C_R   0.916401 0.611385 0.081851 0.675645
C48   C     C_R   0.083600 0.111384 0.918149 0.675601
O19   O     O_3   0.992050 0.601530 0.949880 -0.376030
O20   O     O_3   0.007950 0.101530 0.050120 -0.375999
V3    V     V_3+5 0.001480 0.328340 0.009300 1.451964
V4    V     V_3+5 0.998520 0.828340 0.990700 1.451918
C49   C     C_2   0.319640 0.702831 0.906885 0.473790
H21   H     H_    0.321449 0.739234 0.966782 0.022917
O21   O     O_2   0.339904 0.549193 0.894633 -0.522601
C50   C     C_2   0.680422 0.202663 0.093187 0.473720
H22   H     H_    0.678562 0.239023 0.033273 0.022937
O22   O     O_2   0.660247 0.048977 0.105496 -0.522597
C51   C     C_2   0.187539 0.810369 0.932882 0.366838
H23   H     H_    0.194554 0.831926 0.995399 0.033657
O23   O     O_2   0.173831 0.655946 0.904825 -0.535118
C52   C     C_2   0.812451 0.310401 0.067097 0.366903
H24   H     H_    0.805373 0.331987 0.004570 0.033572
O24   O     O_2   0.826225 0.155989 0.095145 -0.535086

loop_
_geom_bond_atom_site_label_1
_geom_bond_atom_site_label_2
_ccdc_geom_bond_type
O15   C47   A    
O11   V4    S    
O4    V2    S    
C49   H21   S    
C39   C51   S    
C7    H3    S    
O1    C3    A    
O2    C4    A    
C14   H10   S    
C2    O7    A    
O17   V3    S    
C13   H9    S    
C27   C29   A    
C20   C26   A    
C15   C17   A    
C1    C16   S    
C2    C15   S    
C40   C42   A    
C25   C27   A    
C41   C43   A    
C42   C44   A    
C13   C15   A    
C38   H20   S    
C6    C10   S    
C8    H4    S    
C24   C38   A    
C29   C31   A    
C50   O22   D    
C30   C32   A    
C7    C46   S    
O13   V3    S    
C45   O18   A    
C19   C25   A    
C20   C22   A    
C49   O21   D    
C8    C45   S    
C21   C23   A    
C22   C24   A    
C40   C52   S    
C32   C34   A    
C34   C36   A    
C33   C35   A    
C9    H5    S    
C26   C28   A    
C39   C41   A    
C36   H18   S    
C4    C11   S    
C11   H7    S    
C13   C23   A    
C12   H8    S    
C14   C24   A    
O4    C2    A    
O13   C45   A    
O5    V1    S    
C25   H13   S    
C5    H1    S    
C31   C33   A    
O14   V4    S    
O5    C3    A    
C41   C48   S    
C51   H23   S    
O6    C4    A    
C50   H22   S    
C27   C49   S    
O1    V2    S    
O19   V4    S    
C52   O24   D    
O2    V1    S    
O11   C47   A    
O14   C46   A    
C51   O23   D    
C18   H12   S    
C10   H6    S    
C35   C37   A    
O3    V1    S    
O12   C48   A    
C28   C50   S    
C6    H2    S    
O16   C48   A    
C43   H15   S    
O3    C1    A    
O12   V3    S    
C9    C11   D    
C46   O17   A    
O15   V3    S    
C42   C47   S    
C10   C12   D    
C29   C39   A    
C30   C40   A    
C37   H19   S    
C16   C18   A    
O7    V1    S    
C5    C9    S    
C1    O8    A    
C17   C19   A    
O18   V4    S    
C18   C20   A    
C33   C43   A    
O20   V3    S    
C34   C44   A    
C3    C12   S    
C17   H11   S    
C28   C30   A    
C5    C7    D    
C14   C16   A    
C36   C38   A    
C6    C8    D    
C44   H16   S    
C52   H24   S    
C26   H14   S    
C23   C37   A    
C35   H17   S    
C19   C21   A    
O6    V2    S    
O9    V2    S    
O10   V1    S    
O8    V2    S    
O16   V4    S    
C21   C31   A    
C22   C32   A    
