data_mof_unit_51749.cif
_audit_creation_date              2012-12-10T17:22:40-0500
_audit_creation_method            fapswitch 2.2
_symmetry_space_group_name_H-M    P1
_symmetry_Int_Tables_number       1
_space_group_crystal_system       triclinic
_cell_length_a                    10.636202
_cell_length_b                    10.830597
_cell_length_c                    9.618167
_cell_angle_alpha                 89.211695
_cell_angle_beta                  89.951733
_cell_angle_gamma                 93.768252
_cell_volume                      1105.47663997

loop_
_atom_site_label
_atom_site_type_symbol
_atom_type_description
_atom_site_fract_x
_atom_site_fract_y
_atom_site_fract_z
_atom_type_partial_charge
C1    C     C_R   0.509825 0.263080 0.502051 0.808092
C2    C     C_3   0.960539 0.502126 0.369631 0.663482
C3    C     C_3   0.035744 0.398794 0.433749 -0.224553
C4    C     C_3   0.122936 0.500113 0.500499 -0.095967
C5    C     C_R   0.532687 0.107628 0.769798 0.625628
C6    C     C_R   0.488461 0.042736 0.888438 -0.182686
C7    C     C_R   0.419513 0.929383 0.876042 0.125507
C8    C     C_R   0.407620 0.875362 0.745227 -0.159639
C9    C     C_R   0.464680 0.934134 0.626697 -0.007452
C10   C     C_R   0.506902 0.059586 0.635188 -0.027326
C11   C     C_R   0.521485 0.128932 0.508358 -0.089183
C12   C     C_R   0.259615 0.499711 0.500130 0.808732
C13   C     C_R   0.529062 0.066637 0.382252 -0.203347
C14   C     C_R   0.517648 0.938905 0.380023 -0.210194
C15   C     C_R   0.484621 0.871316 0.500987 -0.060385
C16   C     C_R   0.662375 0.669402 0.146652 -0.070832
C17   C     C_R   0.739759 0.759199 0.079622 0.070211
C18   C     C_R   0.741989 0.762295 0.936990 -0.228896
C19   C     C_R   0.668857 0.676916 0.860417 0.624303
C20   C     C_R   0.581689 0.585581 0.925028 -0.020569
C21   C     C_R   0.580414 0.584156 0.074825 0.081739
C22   C     C_R   0.423337 0.420278 0.075015 -0.124640
C23   C     C_R   0.491667 0.736982 0.499654 0.807844
C24   C     C_R   0.423159 0.420242 0.927412 0.710775
C25   C     C_R   0.740428 0.500656 0.499785 0.854436
C26   C     C_3   0.041227 0.498944 0.632639 -0.081544
C27   C     C_3   0.952099 0.399338 0.564806 0.087266
C28   C     C_3   0.877260 0.500914 0.499357 -0.092740
C29   C     C_3   0.965337 0.601782 0.565699 -0.257930
C30   C     C_3   0.049748 0.603345 0.433943 -0.259355
Cu1   Cu    Cu3+1 0.499990 0.499990 0.640660 1.069725
Cu2   Cu    Cu3+1 0.500010 0.500010 0.359340 0.963668
H1    H     H_    0.353721 0.787536 0.737080 0.160873
H2    H     H_    0.534486 0.893223 0.283200 0.162189
H3    H     H_    0.360328 0.354771 0.131155 0.158438
H4    H     H_    0.670894 0.670265 0.255714 0.217648
H5    H     H_    0.804444 0.830480 0.883379 0.182860
H6    H     H_    0.076530 0.496832 0.741204 0.179130
H7    H     H_    0.934490 0.684677 0.619431 0.200840
H8    H     H_    0.092397 0.686684 0.378969 0.156777
H9    H     H_    0.066569 0.316090 0.379558 0.152111
H10   H     H_    0.545420 0.116593 0.284854 0.170770
H11   H     H_    0.507908 0.081083 0.990245 0.159612
N1    N     N_R   0.501210 0.501210 0.147910 -0.210989
N2    N     N_R   0.501250 0.501290 0.852040 -0.220038
O1    O     O_R   0.499990 0.319640 0.618810 -0.482638
O2    O     O_R   0.500000 0.319660 0.381240 -0.598248
O3    O     O_R   0.316850 0.499960 0.618770 -0.561486
O4    O     O_R   0.316860 0.499980 0.381190 -0.583372
O5    O     O_R   0.500000 0.680340 0.618760 -0.532554
O6    O     O_R   0.500010 0.680360 0.381190 -0.628272
O7    O     O_R   0.683140 0.500020 0.618810 -0.494511
O8    O     O_R   0.683150 0.500040 0.381230 -0.581190
C31   C     C_3   0.895448 0.284138 0.639426 -0.745062
H12   H     H_    0.971691 0.224676 0.671523 0.234867
H13   H     H_    0.843654 0.311442 0.733097 0.286127
H14   H     H_    0.829527 0.231712 0.568966 0.224382
C32   C     C_3   0.366712 0.862927 0.003207 -0.843544
H15   H     H_    0.445181 0.837579 0.071313 0.226868
H16   H     H_    0.305243 0.923783 0.060621 0.241628
H17   H     H_    0.310321 0.776619 0.976225 0.230527
C33   C     C_3   0.822455 0.851045 0.159639 -0.810500
H18   H     H_    0.811278 0.837497 0.273809 0.225264
H19   H     H_    0.922755 0.840983 0.132579 0.248807
H20   H     H_    0.797634 0.946421 0.132494 0.234683
F1    F     F_    0.694479 0.689972 0.724969 -0.672748
F2    F     F_    0.343737 0.338243 0.860368 -0.664926
F3    F     F_    0.917234 0.504322 0.234148 -0.654483
F4    F     F_    0.613963 0.207652 0.789508 -0.674010

loop_
_geom_bond_atom_site_label_1
_geom_bond_atom_site_label_2
_ccdc_geom_bond_type
C14   H2    S    
C4    C26   S    
Cu2   O6    S    
C29   C30   S    
C33   H18   S    
C17   C33   S    
C4    C12   S    
C21   N1    A    
C9    C10   A    
C19   C20   A    
C7    C32   S    
C33   H19   S    
C20   N2    A    
C1    C11   S    
C2    C30   S    
Cu1   O7    S    
C12   O3    A    
C4    C30   S    
C29   H7    S    
C32   H17   S    
C15   C23   S    
C12   O4    A    
Cu2   N1    S    
C27   C31   S    
C30   H8    S    
C5    C10   A    
C13   C14   A    
C16   H4    S    
C25   C28   S    
C22   H3    S    
C11   C13   A    
C26   C27   S    
C6    C7    A    
C19   F1    S    
C5    C6    A    
C24   N2    A    
C3    C27   S    
C28   C29   S    
C18   H5    S    
C25   O8    A    
C13   H10   S    
C2    C3    S    
C31   H13   S    
C6    H11   S    
C1    O2    A    
Cu1   O3    S    
C1    O1    A    
Cu2   O2    S    
C22   C24   A    
Cu2   O4    S    
C25   O7    A    
C3    H9    S    
C10   C11   A    
Cu1   O5    S    
C32   H16   S    
C3    C4    S    
Cu2   O8    S    
C7    C8    A    
C20   C21   A    
Cu1   O1    S    
C26   C29   S    
C17   C18   A    
C18   C19   A    
Cu1   N2    S    
C27   C28   S    
C31   H12   S    
C26   H6    S    
C23   O5    A    
C2    C28   S    
C8    H1    S    
C33   H20   S    
C32   H15   S    
C9    C15   A    
C2    F3    S    
C16   C21   A    
C5    F4    S    
Cu1   Cu2   S    
C22   N1    A    
C23   O6    A    
C14   C15   A    
C16   C17   A    
C8    C9    A    
C24   F2    S    
C31   H14   S    
