data_mof_unit_61974.cif
_audit_creation_date              2012-12-10T18:24:11-0500
_audit_creation_method            fapswitch 2.2
_symmetry_space_group_name_H-M    P1
_symmetry_Int_Tables_number       1
_space_group_crystal_system       triclinic
_cell_length_a                    16.087662
_cell_length_b                    16.098716
_cell_length_c                    16.106627
_cell_angle_alpha                 95.886752
_cell_angle_beta                  84.394144
_cell_angle_gamma                 90.123401
_cell_volume                      4129.49315098

loop_
_atom_site_label
_atom_site_type_symbol
_atom_type_description
_atom_site_fract_x
_atom_site_fract_y
_atom_site_fract_z
_atom_type_partial_charge
C1    C     C_R   0.510631 0.724284 0.510696 0.508546
C2    C     C_1   0.485241 0.186408 0.485169 0.014491
C3    C     C_1   0.514757 0.483759 0.184936 0.029041
C4    C     C_R   0.489322 0.275730 0.489280 0.507432
C5    C     C_2   0.520890 0.477007 0.019342 -0.129536
C6    C     C_2   0.474623 0.527951 0.980891 -0.007198
C7    C     C_1   0.480379 0.521608 0.890608 -0.049304
C8    C     C_1   0.517757 0.480458 0.109605 -0.029954
C9    C     C_1   0.484729 0.516816 0.815125 0.014539
C10   C     C_R   0.510805 0.488100 0.274611 0.510985
C11   C     C_R   0.489237 0.511853 0.725388 0.510286
C12   C     C_1   0.111105 0.520655 0.520574 -0.036977
C13   C     C_R   0.724310 0.488156 0.488184 0.506804
C14   C     C_R   0.275685 0.511872 0.511832 0.509352
C15   C     C_1   0.813745 0.483409 0.483434 0.019485
C16   C     C_2   0.978717 0.474496 0.474527 -0.116887
C17   C     C_2   0.021282 0.525560 0.525460 -0.117484
C18   C     C_3   0.584015 0.021484 0.584751 -0.365636
C19   C     C_1   0.418394 0.589870 0.027412 0.234623
C20   C     C_1   0.888893 0.479395 0.479421 -0.039029
C21   C     C_1   0.186252 0.516633 0.516570 0.022085
C22   C     C_1   0.515571 0.813607 0.515691 0.010326
C23   C     C_2   0.525997 0.978587 0.526237 0.004338
C24   C     C_2   0.479730 0.021421 0.479596 -0.095668
C25   C     C_1   0.482418 0.111350 0.482319 -0.041044
C26   C     C_1   0.520086 0.888670 0.520258 -0.027138
H1    H     H_    0.988834 0.571546 0.571329 0.139795
H2    H     H_    0.011165 0.428509 0.428659 0.141785
H3    H     H_    0.438556 0.988387 0.438072 0.126477
H4    H     H_    0.562484 0.431204 0.982327 0.127769
H5    H     H_    0.616409 0.975363 0.617397 0.135183
H6    H     H_    0.632018 0.056805 0.548793 0.143743
H7    H     H_    0.548019 0.065222 0.632846 0.143975
N1    N     N_1   0.373401 0.639415 0.064647 -0.282964
O1    O     O_3   0.500000 0.500000 0.500000 -0.441109
O2    O     O_R   0.689040 0.536050 0.444000 -0.533851
O3    O     O_R   0.315570 0.560650 0.560630 -0.533351
O4    O     O_R   0.679800 0.444450 0.536560 -0.535437
O5    O     O_R   0.315590 0.458850 0.458810 -0.533614
O6    O     O_R   0.458170 0.444480 0.314880 -0.533211
O7    O     O_R   0.445130 0.560630 0.690220 -0.531384
O8    O     O_R   0.559450 0.679320 0.457680 -0.532684
O9    O     O_R   0.537250 0.315570 0.537220 -0.537328
O10   O     O_R   0.458120 0.689530 0.559970 -0.533221
O11   O     O_R   0.445170 0.315580 0.445130 -0.533596
O12   O     O_R   0.559480 0.536070 0.314410 -0.532943
O13   O     O_R   0.537220 0.458810 0.680490 -0.536682
Zn1   Zn    Zn3+2 0.430930 0.430930 0.430910 0.958084
Zn2   Zn    Zn3+2 0.575680 0.561790 0.430230 0.958411
Zn3   Zn    Zn3+2 0.562480 0.430910 0.562480 0.950426
Zn4   Zn    Zn3+2 0.430910 0.576380 0.576380 0.959250

loop_
_geom_bond_atom_site_label_1
_geom_bond_atom_site_label_2
_ccdc_geom_bond_type
C12   C17   S    
C16   H2    S    
C5    C8    S    
C2    C4    S    
C23   C24   D    
O9    Zn3   S    
O1    Zn2   S    
C6    C7    S    
O4    Zn3   S    
C4    O9    A    
C2    C25   T    
C1    O8    A    
C1    O10   A    
C11   O13   A    
C16   C20   S    
O1    Zn3   S    
C1    C22   S    
C3    C10   S    
C14   O3    A    
C6    C19   S    
C9    C11   S    
O12   Zn2   S    
C13   O4    A    
C5    C6    D    
O1    Zn1   S    
O10   Zn4   S    
C11   O7    A    
O13   Zn3   S    
C4    O11   A    
C13   C15   S    
O1    Zn4   S    
C15   C20   T    
O3    Zn4   S    
C18   H7    S    
O11   Zn1   S    
C18   H6    S    
O8    Zn2   S    
C18   C23   S    
C17   H1    S    
C10   O12   A    
C24   C25   S    
C14   C21   S    
C13   O2    A    
C10   O6    A    
C3    C8    T    
C22   C26   T    
C23   C26   S    
C7    C9    T    
O6    Zn1   S    
C24   H3    S    
C16   C17   D    
C18   H5    S    
C14   O5    A    
C12   C21   T    
O7    Zn4   S    
O2    Zn2   S    
C5    H4    S    
O5    Zn1   S    
C19   N1    T    
