data_mof_unit_28960.cif
_audit_creation_date              2012-12-10T19:16:19-0500
_audit_creation_method            fapswitch 2.2
_symmetry_space_group_name_H-M    P1
_symmetry_Int_Tables_number       1
_space_group_crystal_system       triclinic
_cell_length_a                    10.643247
_cell_length_b                    9.716616
_cell_length_c                    27.737647
_cell_angle_alpha                 89.658515
_cell_angle_beta                  90.894267
_cell_angle_gamma                 89.725692
_cell_volume                      2868.09154674

loop_
_atom_site_label
_atom_site_type_symbol
_atom_type_description
_atom_site_fract_x
_atom_site_fract_y
_atom_site_fract_z
_atom_type_partial_charge
C1    C     C_R   0.257915 0.500525 0.500597 0.842972
C2    C     C_R   0.501901 0.379815 0.277843 -0.139356
C3    C     C_R   0.521127 0.503871 0.253329 0.218706
C4    C     C_R   0.521622 0.497142 0.102129 -0.049352
C5    C     C_R   0.414316 0.541829 0.126800 -0.032323
C6    C     C_R   0.307547 0.583676 0.100863 -0.118088
C7    C     C_R   0.629601 0.456951 0.128702 -0.032838
C8    C     C_R   0.507681 0.501572 0.353518 -0.100112
C9    C     C_R   0.503182 0.497722 0.646637 -0.061711
C10   C     C_R   0.406993 0.518784 0.974125 0.040053
C11   C     C_R   0.630592 0.449877 0.975380 0.031619
C12   C     C_R   0.501391 0.500405 0.406024 0.942349
C13   C     C_R   0.518508 0.482868 0.949431 0.079384
C14   C     C_R   0.295403 0.541570 0.946916 -0.196237
C15   C     C_R   0.295127 0.538857 0.897132 -0.123565
C16   C     C_R   0.405383 0.511286 0.872480 -0.024187
C17   C     C_R   0.517609 0.480745 0.898246 -0.047371
C18   C     C_R   0.628284 0.448956 0.872727 -0.103949
C19   C     C_R   0.624622 0.461408 0.821946 0.532974
C20   C     C_R   0.405293 0.512742 0.822226 0.511325
C21   C     C_R   0.505201 0.618838 0.722581 -0.084147
C22   C     C_R   0.501298 0.621514 0.672468 -0.181416
C23   C     C_R   0.742579 0.499913 0.499390 0.923567
C24   C     C_R   0.508961 0.371550 0.671551 -0.179935
C25   C     C_R   0.513303 0.369300 0.721568 -0.091384
C26   C     C_R   0.511354 0.492744 0.747018 0.304959
C27   C     C_R   0.409780 0.529644 0.025018 0.045956
C28   C     C_R   0.520757 0.492324 0.051039 0.078707
C29   C     C_R   0.630679 0.450032 0.026632 0.055421
C30   C     C_R   0.305307 0.578622 0.050975 -0.206273
C31   C     C_R   0.736192 0.412681 0.104614 -0.118039
C32   C     C_R   0.738911 0.415817 0.949128 -0.251709
C33   C     C_R   0.738320 0.410737 0.898938 -0.014756
C34   C     C_R   0.500502 0.499527 0.593985 0.907240
C35   C     C_R   0.737042 0.409039 0.054680 -0.202636
C36   C     C_3   0.071615 0.648803 0.509322 -0.424702
C37   C     C_3   0.073502 0.402342 0.539031 -0.374677
C38   C     C_3   0.929047 0.647970 0.508969 -0.350907
C39   C     C_3   0.929937 0.406054 0.539468 -0.354174
C40   C     C_3   0.075376 0.455369 0.449182 -0.440523
C41   C     C_3   0.121907 0.501632 0.499686 0.122436
C42   C     C_3   0.879331 0.500139 0.497845 -0.027014
C43   C     C_3   0.928840 0.449218 0.447002 -0.093674
C44   C     C_3   0.374735 0.082062 0.484886 -0.352734
C45   C     C_3   0.374591 0.919611 0.485092 -0.365049
C46   C     C_3   0.591351 0.081020 0.464338 -0.230593
C47   C     C_3   0.590800 0.918981 0.464074 -0.234782
C48   C     C_3   0.531556 0.080694 0.547611 0.313174
C49   C     C_3   0.532077 0.917531 0.547568 0.319053
C50   C     C_R   0.416557 0.544032 0.177189 0.573890
C51   C     C_R   0.627947 0.461125 0.179103 0.560606
C52   C     C_R   0.535370 0.627207 0.278780 0.443123
C53   C     C_R   0.528300 0.625778 0.328784 -0.229885
C54   C     C_R   0.495475 0.378389 0.327781 -0.165211
H1    H     H_    0.480040 0.281325 0.346130 0.173203
H2    H     H_    0.820004 0.380150 0.124317 0.197384
H3    H     H_    0.826706 0.389690 0.966654 0.161283
H4    H     H_    0.510291 0.274662 0.652517 0.189966
H5    H     H_    0.517590 0.271837 0.740659 0.150947
H6    H     H_    0.822979 0.371400 0.039610 0.147625
H7    H     H_    0.104165 0.721932 0.481103 0.190178
H8    H     H_    0.105565 0.295186 0.532031 0.215776
H9    H     H_    0.107120 0.686364 0.544855 0.189167
H10   H     H_    0.111372 0.432423 0.575088 0.165335
H11   H     H_    0.896274 0.681688 0.544959 0.232511
H12   H     H_    0.898178 0.445865 0.574861 0.192282
H13   H     H_    0.490837 0.284808 0.258023 0.175717
H14   H     H_    0.893787 0.725828 0.482540 0.223445
H15   H     H_    0.893260 0.299686 0.536700 0.259403
H16   H     H_    0.112543 0.529051 0.421999 0.171593
H17   H     H_    0.118803 0.354574 0.440007 0.204884
H18   H     H_    0.346750 0.121177 0.448476 0.194148
H19   H     H_    0.345833 0.881322 0.448861 0.193276
H20   H     H_    0.302042 0.119770 0.510039 0.173104
H21   H     H_    0.302382 0.882362 0.510552 0.166500
H22   H     H_    0.569579 0.120286 0.427393 0.185254
H23   H     H_    0.567246 0.882481 0.427115 0.173533
H24   H     H_    0.458412 0.114818 0.573241 0.062337
H25   H     H_    0.459574 0.882813 0.573380 0.063790
H26   H     H_    0.687336 0.117483 0.473373 0.221598
H27   H     H_    0.686963 0.879567 0.472219 0.210665
H28   H     H_    0.224802 0.621050 0.119037 0.197364
H29   H     H_    0.496766 0.720020 0.654067 0.183137
H30   H     H_    0.503554 0.714320 0.742479 0.148808
H31   H     H_    0.207503 0.559482 0.877972 0.215639
H32   H     H_    0.205371 0.559938 0.962863 0.161703
H33   H     H_    0.220460 0.616819 0.033934 0.148272
H34   H     H_    0.539532 0.721525 0.348163 0.191035
N1    N     N_R   0.522346 0.503985 0.202015 -0.343683
N2    N     N_R   0.513945 0.489446 0.798344 -0.358767
N3    N     N_3   0.499750 0.138610 0.498940 -0.093750
N4    N     N_3   0.499750 0.861390 0.498940 -0.089681
O1    O     O_R   0.314910 0.616040 0.499990 -0.642928
O2    O     O_R   0.314910 0.383960 0.499990 -0.642301
O3    O     O_R   0.500140 0.616020 0.428740 -0.619182
O4    O     O_R   0.500140 0.383980 0.428740 -0.622808
O5    O     O_R   0.685320 0.616040 0.499970 -0.563444
O6    O     O_R   0.685320 0.383960 0.499970 -0.590066
O7    O     O_R   0.500090 0.616050 0.571230 -0.598229
O8    O     O_R   0.500090 0.383950 0.571230 -0.598408
O9    O     O_2   0.313871 0.585014 0.201333 -0.522389
O10   O     O_2   0.297685 0.538009 0.797199 -0.541314
O11   O     O_2   0.730679 0.422863 0.205104 -0.518540
O12   O     O_2   0.730412 0.450472 0.796096 -0.501889
Zn1   Zn    Zn3+2 0.500150 0.654960 0.499980 0.976200
Zn2   Zn    Zn3+2 0.500150 0.345040 0.499980 0.975384
Cl1   Cl    Cl    0.562511 0.783908 0.248672 -0.563995
C55   C     C_2   0.853479 0.355807 0.876378 1.008671
O13   O     O_2   0.846416 0.259640 0.848219 -0.565962
O14   O     O_R   0.970801 0.408874 0.889657 -0.819389
H35   H     H_    0.042476 0.361153 0.872719 0.352168
C56   C     C_2   0.883116 0.538967 0.404319 0.886943
O15   O     O_2   0.803779 0.628993 0.409154 -0.657118
O16   O     O_R   0.930441 0.513294 0.358427 -0.752088
H36   H     H_    0.892484 0.576302 0.332760 0.374084
C57   C     C_2   0.887750 0.300873 0.436632 0.905482
O17   O     O_2   0.801084 0.278093 0.408259 -0.617222
O18   O     O_R   0.949339 0.189954 0.459348 -0.824798
H37   H     H_    0.914264 0.097551 0.449188 0.344508
Cl2   Cl    Cl    0.674932 0.153228 0.571324 -0.573075
Cl3   Cl    Cl    0.676288 0.843812 0.570926 -0.577486

loop_
_geom_bond_atom_site_label_1
_geom_bond_atom_site_label_2
_ccdc_geom_bond_type
C10   C27   A    
C21   C26   A    
C6    H28   S    
C40   H17   S    
C47   N4    S    
C54   H1    S    
C56   O16   S    
O16   H36   S    
C48   Cl2   S    
C55   O13   D    
C23   C42   S    
C40   H16   S    
C28   C29   A    
C38   C42   S    
C5    C6    A    
C9    C22   A    
C20   O10   S    
C51   O11   S    
C15   C16   A    
C57   O17   D    
C45   H19   S    
C18   C19   A    
C48   H24   S    
C45   N4    S    
O18   H37   S    
O3    Zn1   S    
O1    Zn1   S    
O14   H35   S    
C40   C43   S    
O2    Zn2   S    
C52   Cl1   S    
C57   O18   S    
C16   C17   A    
C48   N3    S    
C34   O8    A    
C21   H30   S    
C12   O3    A    
C31   H2    S    
C36   H9    S    
C8    C12   S    
C15   H31   S    
O5    Zn1   S    
C21   C22   A    
C27   C30   A    
N3    Zn2   S    
C36   C41   S    
C33   C55   S    
C32   H3    S    
C4    C7    A    
C46   H22   S    
C56   O15   D    
C4    C28   A    
C17   C18   A    
C39   C42   S    
O7    Zn1   S    
C3    N1    S    
C7    C31   A    
C24   H4    S    
C24   C25   A    
C14   H32   S    
C2    H13   S    
C2    C54   A    
C8    C54   A    
C1    O2    A    
C46   N3    S    
C25   C26   A    
C20   N2    A    
C49   H25   S    
C35   H6    S    
C43   C57   S    
C19   O12   S    
C50   N1    A    
C38   H11   S    
C16   C20   A    
C49   Cl3   S    
C34   O7    A    
C39   H15   S    
C44   H20   S    
C44   N3    S    
C1    C41   S    
C48   C49   S    
C23   O5    A    
C38   H14   S    
C11   C32   A    
C10   C14   A    
C9    C34   S    
C39   H12   S    
C31   C35   A    
C5    C50   A    
C43   C56   S    
C47   H23   S    
C49   N4    S    
C36   H7    S    
C37   H10   S    
C52   C53   A    
O4    Zn2   S    
C46   C47   S    
C40   C41   S    
C6    C30   A    
C44   C45   S    
C4    C5    A    
C10   C13   A    
C8    C53   A    
C3    C52   A    
C9    C24   A    
C26   N2    S    
C29   C35   A    
O8    Zn2   S    
O6    Zn2   S    
C13   C17   A    
C45   H21   S    
C32   C33   A    
C36   C38   S    
C2    C3    A    
C7    C51   A    
C37   C39   S    
C19   N2    A    
C51   N1    A    
C22   H29   S    
C46   H26   S    
C11   C13   A    
C55   O14   S    
C44   H18   S    
C53   H34   S    
C47   H27   S    
C37   C41   S    
C18   C33   A    
N4    Zn1   S    
C23   O6    A    
C11   C29   A    
C50   O9    S    
C1    O1    A    
C42   C43   S    
C27   C28   A    
C37   H8    S    
C14   C15   A    
C12   O4    A    
C25   H5    S    
C30   H33   S    
