data_mof_unit_7968.cif
_audit_creation_date              2012-12-11T15:42:49-0500
_audit_creation_method            fapswitch 2.2
_symmetry_space_group_name_H-M    P1
_symmetry_Int_Tables_number       1
_space_group_crystal_system       triclinic
_cell_length_a                    6.930906
_cell_length_b                    14.555998
_cell_length_c                    16.200955
_cell_angle_alpha                 90.407439
_cell_angle_beta                  90.102134
_cell_angle_gamma                 90.13838
_cell_volume                      1634.40491937

loop_
_atom_site_label
_atom_site_type_symbol
_atom_type_description
_atom_site_fract_x
_atom_site_fract_y
_atom_site_fract_z
_atom_type_partial_charge
O1    O     O_R   0.505810 0.583360 0.413880 -0.540555
O2    O     O_R   0.175870 0.595480 0.585520 -0.543375
O3    O     O_R   0.005540 0.416640 0.586120 -0.541059
C1    C     C_R   0.345100 0.617641 0.614660 0.686945
O4    O     O_R   0.176100 0.594390 0.414490 -0.544130
O5    O     O_R   0.005770 0.415540 0.413870 -0.541249
C2    C     C_R   0.345197 0.616456 0.385712 0.685034
O6    O     O_R   0.505580 0.584460 0.586130 -0.540806
O7    O     O_3   0.339190 0.441320 0.500000 -0.368228
V1    V     V_3+5 0.064350 0.510890 0.500000 1.399042
O8    O     O_R   0.676050 0.404520 0.414480 -0.543241
C3    C     C_R   0.844710 0.382555 0.385560 0.694417
O9    O     O_R   0.675830 0.405610 0.585510 -0.540242
C4    C     C_R   0.845071 0.383659 0.613726 0.746518
V2    V     V_3+5 0.564340 0.489110 0.500000 1.404041
O10   O     O_3   0.839370 0.558680 0.500000 -0.372351
C5    C     C_2   0.720424 0.208894 0.786016 -0.128756
C6    C     C_2   0.885718 0.181942 0.822674 -0.312293
H1    H     H_    0.584362 0.180034 0.806755 0.136944
H2    H     H_    0.023448 0.210165 0.804082 0.127576
C7    C     C_2   0.708048 0.277412 0.718132 -0.135186
C8    C     C_2   0.861630 0.315428 0.680508 -0.309428
H3    H     H_    0.563913 0.296463 0.698278 0.134854
H4    H     H_    0.006906 0.297009 0.698454 0.129403
C9    C     C_R   0.036896 0.249769 0.200305 0.154259
C10   C     C_R   0.021436 0.312100 0.266658 -0.145764
H5    H     H_    0.138962 0.359516 0.279022 0.120975
C11   C     C_R   0.855822 0.315458 0.316269 -0.083853
C12   C     C_R   0.702857 0.255260 0.298557 -0.161507
H6    H     H_    0.573038 0.256316 0.335647 0.130833
C13   C     C_R   0.717247 0.191418 0.233908 -0.191234
H7    H     H_    0.598294 0.144328 0.223769 0.126239
C14   C     C_R   0.883279 0.186870 0.183948 -0.058379
C15   C     C_R   0.188403 0.723489 0.718746 -0.155426
H8    H     H_    0.047557 0.705296 0.694582 0.116304
C16   C     C_R   0.199568 0.785695 0.785079 -0.150611
H9    H     H_    0.066807 0.813735 0.809628 0.118325
C17   C     C_R   0.379181 0.811494 0.819025 -0.048212
C18   C     C_R   0.547298 0.773246 0.784586 -0.155010
H10   H     H_    0.688143 0.791445 0.808746 0.116357
C19   C     C_R   0.536132 0.711038 0.718254 -0.150306
H11   H     H_    0.668893 0.683000 0.693703 0.118155
C20   C     C_R   0.356519 0.685245 0.684303 -0.048155
C21   C     C_R   0.188445 0.723185 0.283727 -0.157024
H12   H     H_    0.047609 0.704830 0.307356 0.116450
C22   C     C_R   0.199716 0.786312 0.219000 -0.150518
H13   H     H_    0.066981 0.814764 0.194969 0.118843
C23   C     C_R   0.379396 0.812401 0.185921 -0.047186
C24   C     C_R   0.547483 0.773543 0.219509 -0.156889
H14   H     H_    0.688314 0.791899 0.195875 0.116608
C25   C     C_R   0.536212 0.710413 0.284240 -0.150642
H15   H     H_    0.668940 0.681956 0.308273 0.118498
C26   C     C_R   0.356529 0.684340 0.317327 -0.047226
O11   O     O_R   0.230120 0.912300 0.917180 -0.540471
O12   O     O_R   0.559740 0.902430 0.088770 -0.543603
O13   O     O_R   0.729930 0.081310 0.089370 -0.541667
C27   C     C_R   0.390675 0.880318 0.117561 0.685648
O14   O     O_R   0.559840 0.901330 0.917750 -0.543219
O15   O     O_R   0.730030 0.080210 0.917120 -0.536588
C28   C     C_R   0.390604 0.879130 0.888642 0.687388
O16   O     O_R   0.230020 0.913400 0.089430 -0.540170
O17   O     O_3   0.396460 0.055470 0.003290 -0.368342
V3    V     V_3+5 0.671360 0.985960 0.003250 1.400068
O18   O     O_R   0.059740 0.091300 0.917690 -0.544942
C29   C     C_R   0.891004 0.113288 0.889502 0.745031
O19   O     O_R   0.059640 0.092400 0.088720 -0.539770
C30   C     C_R   0.891400 0.116297 0.116461 0.694216
V4    V     V_3+5 0.171350 0.007820 0.003190 1.396517
O20   O     O_3   0.896380 0.938200 0.003220 -0.371114
C31   C     C_3   0.215992 0.254491 0.147597 -0.750941
H16   H     H_    0.310328 0.313253 0.165270 0.192585
H17   H     H_    0.302331 0.191080 0.155039 0.217941
H18   H     H_    0.175431 0.263439 0.081796 0.203656

loop_
_geom_bond_atom_site_label_1
_geom_bond_atom_site_label_2
_ccdc_geom_bond_type
O19   V4    S    
C19   H11   S    
C1    O6    A    
C23   C27   S    
C18   C19   A    
O11   C28   A    
C6    C29   S    
C10   H5    S    
O17   V3    S    
C3    C11   S    
O18   V4    S    
C11   C12   A    
O5    C3    A    
C17   C18   A    
O11   V4    S    
O14   C28   A    
V2    O10   S    
C15   H8    S    
O8    V2    S    
C21   C26   A    
V3    O20   S    
V4    O20   S    
C24   C25   A    
O12   V3    S    
C13   C14   A    
C31   H16   S    
O1    V2    S    
O7    V1    S    
C6    H2    S    
O19   C30   A    
O9    C4    A    
C19   C20   A    
C21   C22   A    
C7    H3    S    
C22   C23   A    
C25   H15   S    
C18   H10   S    
O4    C2    A    
C9    C10   A    
C5    C7    S    
C25   C26   A    
O2    C1    A    
C12   H6    S    
C13   H7    S    
C31   H18   S    
C5    C6    D    
O13   V3    S    
O3    C4    A    
C17   C28   S    
C23   C24   A    
O6    V2    S    
O9    V2    S    
C8    H4    S    
C2    C26   S    
O2    V1    S    
C21   H12   S    
C14   C30   S    
O14   V3    S    
C22   H13   S    
C16   H9    S    
O1    C2    A    
O15   V3    S    
C15   C20   A    
O5    V1    S    
O8    C3    A    
C27   O16   A    
C1    C20   S    
O13   C30   A    
C10   C11   A    
O17   V4    S    
O18   C29   A    
C4    C8    S    
O12   C27   A    
O7    V2    S    
O4    V1    S    
C12   C13   A    
O3    V1    S    
V1    O10   S    
O15   C29   A    
O16   V4    S    
C16   C17   A    
C5    H1    S    
C15   C16   A    
C24   H14   S    
C31   H17   S    
C9    C31   S    
C7    C8    D    
C9    C14   A    
