data_mof_unit_19360.cif
_audit_creation_date              2012-12-10T18:13:19-0500
_audit_creation_method            fapswitch 2.2
_symmetry_space_group_name_H-M    P1
_symmetry_Int_Tables_number       1
_space_group_crystal_system       triclinic
_cell_length_a                    18.679426
_cell_length_b                    18.47262
_cell_length_c                    25.918091
_cell_angle_alpha                 90.528179
_cell_angle_beta                  90.321217
_cell_angle_gamma                 90.163082
_cell_volume                      8942.68495389

loop_
_atom_site_label
_atom_site_type_symbol
_atom_type_description
_atom_site_fract_x
_atom_site_fract_y
_atom_site_fract_z
_atom_type_partial_charge
C1    C     C_R   0.860160 0.140790 0.250006 0.889828
C2    C     C_R   0.816405 0.264822 0.278547 0.119013
C3    C     C_R   0.246112 0.309298 0.285857 0.144268
C4    C     C_3   0.858102 0.124647 0.549984 -0.360132
C5    C     C_3   0.878485 0.140693 0.424562 -0.407504
C6    C     C_3   0.040602 0.243619 0.567854 -0.236703
C7    C     C_3   0.046875 0.241491 0.436003 -0.244003
C8    C     C_3   0.353011 0.609581 0.040238 -0.338270
C9    C     C_3   0.423158 0.739632 0.941372 -0.246579
C10   C     C_3   0.519208 0.741784 0.079203 -0.211466
C11   C     C_3   0.616973 0.644539 0.962581 -0.345451
C12   C     C_3   0.270254 0.877906 0.182184 -0.836119
C13   C     C_R   0.189826 0.256100 0.714208 0.125143
C14   C     C_3   0.262357 0.875121 0.826263 -0.772167
C15   C     C_3   0.726070 0.876130 0.186470 -0.803802
C16   C     C_3   0.749938 0.865800 0.834434 -0.772419
C17   C     C_3   0.770066 0.378230 0.682635 -0.827855
C18   C     C_3   0.765335 0.374345 0.325334 -0.818539
C19   C     C_3   0.247626 0.360253 0.666699 -0.802018
C20   C     C_3   0.233419 0.377391 0.318993 -0.814461
C21   C     C_3   0.855979 0.249618 0.662647 -0.749317
C22   C     C_3   0.889197 0.283977 0.302161 -0.806813
C23   C     C_3   0.124063 0.265795 0.679870 -0.781555
C24   C     C_R   0.198978 0.250421 0.290411 0.112464
C25   C     C_3   0.149680 0.248243 0.336342 -0.815147
C26   C     C_3   0.352066 0.746543 0.159947 -0.775007
C27   C     C_3   0.386989 0.778228 0.806815 -0.783542
C28   C     C_3   0.655862 0.739142 0.160870 -0.786798
C29   C     C_3   0.647352 0.742727 0.840043 -0.721381
C30   C     C_3   0.761291 0.127633 0.858745 -0.153103
C31   C     C_3   0.735789 0.103984 0.158627 -0.222024
C32   C     C_3   0.283708 0.092605 0.829020 -0.306133
C33   C     C_3   0.282575 0.083941 0.176481 -0.271363
C34   C     C_3   0.271955 0.652598 0.367740 -0.189520
C35   C     C_R   0.301760 0.749215 0.205794 0.101870
C36   C     C_3   0.242160 0.611482 0.651184 -0.204529
C37   C     C_3   0.781673 0.592870 0.332344 -0.274587
C38   C     C_3   0.784471 0.580831 0.683149 -0.327010
C39   C     C_3   0.111674 0.679003 0.319552 -0.373738
C40   C     C_3   0.110140 0.728056 0.654072 -0.230083
C41   C     C_3   0.907891 0.712468 0.324842 -0.222111
C42   C     C_3   0.897375 0.704535 0.666015 -0.154121
C43   C     C_3   0.605240 0.182814 0.816516 -0.328613
C44   C     C_3   0.610357 0.227311 0.155582 -0.248740
C45   C     C_3   0.406558 0.215884 0.825591 -0.212042
C46   C     C_R   0.315367 0.763981 0.779798 0.116816
C47   C     C_3   0.403817 0.204975 0.171511 -0.168213
C48   C     C_3   0.175389 0.040002 0.061430 -0.159510
C49   C     C_3   0.171818 0.066006 0.937642 -0.141788
C50   C     C_3   0.819941 0.024125 0.064237 -0.265702
C51   C     C_3   0.816681 0.003997 0.944616 -0.310488
C52   C     C_3   0.672314 0.551563 0.566478 -0.150594
C53   C     C_3   0.675488 0.558192 0.440547 -0.148219
C54   C     C_3   0.319322 0.516765 0.561019 -0.283980
C55   C     C_3   0.318638 0.514806 0.439966 -0.310291
C56   C     C_R   0.700562 0.746451 0.209554 0.096219
C57   C     C_R   0.702111 0.745699 0.796456 0.081289
C58   C     C_R   0.806379 0.198609 0.747741 -0.249426
C59   C     C_R   0.804869 0.198558 0.250802 -0.273141
C60   C     C_R   0.193675 0.198683 0.750580 -0.274640
C61   C     C_R   0.860568 0.140514 0.749496 0.885140
C62   C     C_R   0.198083 0.194990 0.251847 -0.268406
C63   C     C_R   0.305441 0.697785 0.246328 -0.236799
C64   C     C_R   0.305207 0.699275 0.749765 -0.275479
C65   C     C_R   0.698021 0.694247 0.249119 -0.266967
C66   C     C_R   0.699892 0.692908 0.755410 -0.276411
C67   C     C_R   0.759963 0.205642 0.789488 0.374849
C68   C     C_R   0.738043 0.185592 0.226008 0.387454
C69   C     C_R   0.247914 0.198225 0.788781 0.417475
C70   C     C_R   0.250394 0.194457 0.212794 0.408651
C71   C     C_R   0.262625 0.707828 0.289392 0.368369
C72   C     C_R   0.140529 0.139674 0.250709 0.901506
C73   C     C_R   0.240346 0.687917 0.722116 0.386589
C74   C     C_R   0.748012 0.697600 0.290415 0.418680
C75   C     C_R   0.752437 0.692953 0.716411 0.421109
C76   C     C_R   0.200012 0.748550 0.285335 0.423613
C77   C     C_R   0.186051 0.739607 0.724497 0.405943
C78   C     C_R   0.801209 0.751482 0.290791 0.400224
C79   C     C_R   0.803363 0.748151 0.714871 0.390486
C80   C     C_R   0.698930 0.248483 0.785441 0.421896
C81   C     C_R   0.684847 0.238519 0.226546 0.406181
C82   C     C_R   0.300315 0.252370 0.788999 0.401364
C83   C     C_R   0.139292 0.140644 0.750408 0.901570
C84   C     C_R   0.302740 0.248928 0.211585 0.390206
C85   C     C_R   0.197869 0.804236 0.248160 -0.244714
C86   C     C_R   0.195897 0.803768 0.753465 -0.275179
C87   C     C_R   0.800543 0.806278 0.252822 -0.261738
C88   C     C_R   0.804829 0.802333 0.753726 -0.275432
C89   C     C_R   0.697673 0.304150 0.748242 -0.256671
C90   C     C_R   0.695807 0.303723 0.253661 -0.268452
C91   C     C_R   0.301662 0.305086 0.749635 -0.277490
C92   C     C_R   0.301997 0.305438 0.248915 -0.264825
C93   C     C_R   0.061131 0.039973 0.027829 0.384182
C94   C     C_R   0.360301 0.641011 0.749763 0.895376
C95   C     C_R   0.060953 0.042963 0.973511 0.368468
C96   C     C_R   0.932694 0.027240 0.027474 0.383109
C97   C     C_R   0.932737 0.025195 0.973166 0.412513
C98   C     C_R   0.561236 0.541811 0.527812 0.375206
C99   C     C_R   0.561798 0.542250 0.473420 0.375953
C100  C     C_R   0.433491 0.526301 0.527517 0.392365
C101  C     C_R   0.433554 0.526351 0.473253 0.405377
C102  C     C_R   0.998825 0.019278 0.946621 -0.368273
C103  C     C_R   0.998480 0.018435 0.053774 -0.372591
C104  C     C_R   0.499290 0.519135 0.446671 -0.368912
C105  C     C_R   0.360092 0.640058 0.248885 0.889864
C106  C     C_R   0.499129 0.518419 0.553716 -0.370695
C107  C     C_R   0.140375 0.859938 0.249796 0.866081
C108  C     C_R   0.139474 0.859357 0.751119 0.885014
C109  C     C_R   0.858531 0.861223 0.251341 0.874547
C110  C     C_R   0.860034 0.859648 0.750429 0.890843
C111  C     C_R   0.640276 0.359891 0.749758 0.864267
C112  C     C_R   0.639633 0.359463 0.251166 0.885586
C113  C     C_R   0.359417 0.360235 0.750030 0.885241
C114  C     C_R   0.359180 0.360657 0.249088 0.885656
C115  C     C_R   0.999675 0.005097 0.110004 0.913604
C116  C     C_R   0.641008 0.639161 0.751493 0.891915
C117  C     C_R   0.999949 0.005656 0.890190 0.915239
C118  C     C_R   0.499864 0.505180 0.610012 0.910418
C119  C     C_R   0.500047 0.505651 0.390186 0.919724
C120  C     C_R   0.999362 0.000237 0.389843 0.817105
C121  C     C_R   0.000497 0.999357 0.610356 0.825443
C122  C     C_R   0.500347 0.499993 0.889810 0.824451
C123  C     C_R   0.500123 0.499271 0.110321 0.823479
C124  C     C_R   0.988139 0.061991 0.475394 -0.159057
C125  C     C_R   0.993429 0.060182 0.527519 -0.119682
C126  C     C_R   0.495768 0.560920 0.974986 -0.145671
C127  C     C_R   0.640663 0.639221 0.249513 0.897532
C128  C     C_R   0.495056 0.559540 0.027077 -0.145458
C129  C     C_R   0.996932 0.999314 0.445694 -0.037783
C130  C     C_R   0.000148 0.997192 0.554826 -0.047935
C131  C     C_R   0.501588 0.498289 0.945562 -0.054706
C132  C     C_R   0.501278 0.496692 0.054802 -0.051749
C133  C     C_R   0.003735 0.933008 0.472326 -0.174903
C134  C     C_R   0.004796 0.931845 0.526591 -0.199786
C135  C     C_R   0.508078 0.431974 0.972344 -0.178540
C136  C     C_R   0.508325 0.431205 0.026668 -0.201543
C137  C     C_3   0.986289 0.139471 0.535373 0.897331
C138  C     C_R   0.803666 0.250738 0.707499 0.088810
C139  C     C_3   0.985550 0.144177 0.475309 0.833080
C140  C     C_3   0.480302 0.638330 0.033793 0.850994
C141  C     C_3   0.488515 0.642410 0.973702 0.848433
C142  C     C_R   0.254538 0.808417 0.211270 0.147444
C143  C     C_R   0.258310 0.813611 0.785332 0.147409
C144  C     C_R   0.744282 0.807688 0.215869 0.129392
C145  C     C_R   0.753050 0.802437 0.794769 0.142498
C146  C     C_R   0.755073 0.308761 0.712002 0.145317
C147  C     C_R   0.759363 0.313996 0.284461 0.144894
C148  C     C_R   0.246503 0.306145 0.711043 0.142688
H1    H     H_    0.009370 0.882183 0.451578 0.178073
H2    H     H_    0.831044 0.174420 0.416098 0.201139
H3    H     H_    0.818981 0.568642 0.649602 0.152061
H4    H     H_    0.081982 0.669519 0.355918 0.182194
H5    H     H_    0.146203 0.630554 0.313312 0.125639
H6    H     H_    0.072082 0.682191 0.287414 0.162526
H7    H     H_    0.095576 0.674371 0.636953 0.161205
H8    H     H_    0.157956 0.751388 0.634216 0.108494
H9    H     H_    0.065092 0.765252 0.645737 0.183083
H10   H     H_    0.912898 0.689769 0.284857 0.089042
H11   H     H_    0.907833 0.667307 0.352768 0.149386
H12   H     H_    0.956542 0.745075 0.333031 0.212878
H13   H     H_    0.014457 0.252362 0.605967 0.190791
H14   H     H_    0.886787 0.669191 0.631557 0.161576
H15   H     H_    0.904961 0.670334 0.700984 0.112993
H16   H     H_    0.948592 0.732745 0.658760 0.174819
H17   H     H_    0.582439 0.167268 0.854664 0.176406
H18   H     H_    0.634326 0.133826 0.800872 0.112861
H19   H     H_    0.559989 0.195368 0.789331 0.158672
H20   H     H_    0.587615 0.176101 0.139322 0.158019
H21   H     H_    0.661158 0.241017 0.135296 0.112144
H22   H     H_    0.571500 0.270469 0.146258 0.188866
H23   H     H_    0.414376 0.193849 0.785691 0.086050
H24   H     H_    0.007162 0.271326 0.538830 0.144863
H25   H     H_    0.405541 0.170577 0.853332 0.150749
H26   H     H_    0.454111 0.249213 0.835630 0.209970
H27   H     H_    0.398580 0.163708 0.140058 0.153314
H28   H     H_    0.410173 0.177313 0.209672 0.112206
H29   H     H_    0.454216 0.235136 0.164159 0.189313
H30   H     H_    0.175849 0.985567 0.041819 0.064635
H31   H     H_    0.184779 0.031366 0.103313 0.205859
H32   H     H_    0.220505 0.073271 0.046901 0.168794
H33   H     H_    0.176550 0.065869 0.894925 0.227258
H34   H     H_    0.182903 0.009983 0.951759 0.068360
H35   H     H_    0.093967 0.270122 0.567856 0.156843
H36   H     H_    0.213450 0.103907 0.953128 0.181651
H37   H     H_    0.822357 0.008450 0.105231 0.195394
H38   H     H_    0.814274 0.972719 0.042213 0.108333
H39   H     H_    0.771264 0.057538 0.058400 0.156091
H40   H     H_    0.827428 0.950308 0.961644 0.117334
H41   H     H_    0.801580 0.992824 0.903767 0.168873
H42   H     H_    0.769867 0.030701 0.962896 0.171761
H43   H     H_    0.674663 0.492999 0.554066 0.071722
H44   H     H_    0.679546 0.553715 0.609099 0.231681
H45   H     H_    0.717293 0.581937 0.548931 0.167611
H46   H     H_    0.009284 0.277408 0.456730 0.158970
H47   H     H_    0.679739 0.541037 0.399434 0.199222
H48   H     H_    0.688102 0.510542 0.465429 0.067087
H49   H     H_    0.716736 0.601109 0.447741 0.191292
H50   H     H_    0.319703 0.496522 0.601204 0.196307
H51   H     H_    0.315890 0.468306 0.535489 0.114068
H52   H     H_    0.270403 0.549897 0.555240 0.156963
H53   H     H_    0.326325 0.458015 0.452131 0.123199
H54   H     H_    0.306044 0.512718 0.398030 0.186276
H55   H     H_    0.271604 0.539794 0.459228 0.163905
H56   H     H_    0.029777 0.237919 0.395061 0.196008
H57   H     H_    0.100336 0.267394 0.439473 0.159558
H58   H     H_    0.365585 0.550936 0.034608 0.165395
H59   H     H_    0.326895 0.631733 0.004990 0.222217
H60   H     H_    0.312687 0.611325 0.071742 0.177200
H61   H     H_    0.010046 0.880289 0.545894 0.164780
H62   H     H_    0.462589 0.756574 0.910826 0.199000
H63   H     H_    0.435492 0.770286 0.978042 0.140030
H64   H     H_    0.367625 0.755644 0.929297 0.160247
H65   H     H_    0.500163 0.737927 0.119607 0.193379
H66   H     H_    0.477696 0.769454 0.056189 0.143585
H67   H     H_    0.567432 0.776727 0.078176 0.152163
H68   H     H_    0.621279 0.598648 0.934787 0.162935
H69   H     H_    0.625691 0.624914 0.002635 0.199070
H70   H     H_    0.660938 0.683219 0.954316 0.185697
H71   H     H_    0.324415 0.880830 0.165335 0.216797
H72   H     H_    0.513056 0.380923 0.951689 0.179358
H73   H     H_    0.230259 0.885967 0.150810 0.240062
H74   H     H_    0.270761 0.923874 0.210094 0.238985
H75   H     H_    0.300480 0.870119 0.860873 0.189917
H76   H     H_    0.273309 0.927685 0.805976 0.224649
H77   H     H_    0.211548 0.876668 0.848948 0.238421
H78   H     H_    0.671203 0.875789 0.170170 0.218106
H79   H     H_    0.726024 0.923194 0.213464 0.264743
H80   H     H_    0.764518 0.884110 0.154545 0.232843
H81   H     H_    0.703719 0.871815 0.861391 0.191671
H82   H     H_    0.800209 0.865803 0.859038 0.230774
H83   H     H_    0.513519 0.379774 0.046174 0.166353
H84   H     H_    0.741776 0.917729 0.812895 0.238329
H85   H     H_    0.823889 0.382332 0.665334 0.215918
H86   H     H_    0.729526 0.386120 0.651488 0.243173
H87   H     H_    0.770800 0.423702 0.710903 0.236135
H88   H     H_    0.806762 0.365201 0.355602 0.215956
H89   H     H_    0.776959 0.426942 0.306317 0.225967
H90   H     H_    0.716042 0.377368 0.349139 0.244652
H91   H     H_    0.214304 0.346180 0.632846 0.204467
H92   H     H_    0.231415 0.414859 0.681222 0.260726
H93   H     H_    0.301017 0.361204 0.648660 0.230002
H94   H     H_    0.864121 0.068516 0.534686 0.149226
H95   H     H_    0.179448 0.381649 0.335865 0.207586
H96   H     H_    0.273553 0.380448 0.350972 0.238648
H97   H     H_    0.234655 0.426721 0.294959 0.244843
H98   H     H_    0.836849 0.279838 0.628401 0.223932
H99   H     H_    0.908644 0.272066 0.675511 0.238585
H100  H     H_    0.862351 0.194274 0.647574 0.277258
H101  H     H_    0.897345 0.342952 0.308862 0.213834
H102  H     H_    0.896141 0.255102 0.339573 0.253281
H103  H     H_    0.932766 0.270784 0.274811 0.245418
H104  H     H_    0.117262 0.318497 0.661048 0.199343
H105  H     H_    0.826664 0.158194 0.522711 0.221123
H106  H     H_    0.124135 0.222144 0.649948 0.270159
H107  H     H_    0.074646 0.265125 0.703320 0.250478
H108  H     H_    0.171558 0.278441 0.369949 0.214777
H109  H     H_    0.096918 0.271197 0.324848 0.237790
H110  H     H_    0.145033 0.192843 0.351684 0.267255
H111  H     H_    0.331530 0.777018 0.126271 0.224361
H112  H     H_    0.404718 0.769772 0.171817 0.234832
H113  H     H_    0.358037 0.690658 0.145105 0.277046
H114  H     H_    0.400895 0.834590 0.820671 0.200039
H115  H     H_    0.389907 0.739846 0.839914 0.265646
H116  H     H_    0.825185 0.119433 0.585431 0.172757
H117  H     H_    0.430980 0.770181 0.778433 0.238820
H118  H     H_    0.678406 0.770194 0.128367 0.216534
H119  H     H_    0.654395 0.682328 0.146647 0.256681
H120  H     H_    0.601275 0.759365 0.169319 0.243934
H121  H     H_    0.658537 0.771721 0.877115 0.209449
H122  H     H_    0.594985 0.762882 0.824594 0.246531
H123  H     H_    0.643515 0.686429 0.854513 0.241431
H124  H     H_    0.808868 0.100857 0.874530 0.252787
H125  H     H_    0.737157 0.088949 0.829695 0.098486
H126  H     H_    0.723265 0.139061 0.890347 0.171397
H127  H     H_    0.858907 0.090320 0.443090 0.157019
H128  H     H_    0.735581 0.044479 0.153331 0.172147
H129  H     H_    0.789029 0.126691 0.147451 0.178030
H130  H     H_    0.695155 0.124634 0.131657 0.126510
H131  H     H_    0.324464 0.092747 0.798022 0.118565
H132  H     H_    0.249234 0.044323 0.823602 0.192901
H133  H     H_    0.310550 0.084789 0.866846 0.157392
H134  H     H_    0.245364 0.037564 0.180512 0.199602
H135  H     H_    0.320440 0.083553 0.210135 0.112651
H136  H     H_    0.312287 0.072129 0.140300 0.147817
H137  H     H_    0.317437 0.640030 0.395174 0.256690
H138  H     H_    0.904033 0.130468 0.387221 0.236098
H139  H     H_    0.258544 0.601417 0.344917 0.129640
H140  H     H_    0.225073 0.673159 0.391578 0.187294
H141  H     H_    0.228629 0.554320 0.640311 0.159796
H142  H     H_    0.300433 0.622212 0.644369 0.197691
H143  H     H_    0.211891 0.646661 0.624054 0.112232
H144  H     H_    0.823629 0.592597 0.302244 0.109374
H145  H     H_    0.747664 0.544418 0.326065 0.189061
H146  H     H_    0.807146 0.585654 0.370713 0.152857
H147  H     H_    0.746137 0.535320 0.683678 0.210152
H148  H     H_    0.816856 0.579689 0.719175 0.125596
O1    O     O_3   0.000000 0.000010 0.249960 -0.499399
O2    O     O_R   0.414520 0.646190 0.219700 -0.644065
O3    O     O_R   0.585480 0.646190 0.780300 -0.662411
O4    O     O_R   0.585480 0.646190 0.219700 -0.646533
O5    O     O_R   0.085460 0.853840 0.280340 -0.597538
O6    O     O_R   0.085460 0.853840 0.719660 -0.618491
O7    O     O_R   0.914540 0.853840 0.280340 -0.617973
O8    O     O_R   0.914540 0.853840 0.719660 -0.602859
O9    O     O_R   0.585460 0.353840 0.780340 -0.603456
O10   O     O_R   0.585460 0.353840 0.219660 -0.622308
O11   O     O_R   0.414540 0.353840 0.780340 -0.618741
O12   O     O_3   0.000000 0.000010 0.750040 -0.501058
O13   O     O_R   0.414540 0.353840 0.219660 -0.607299
O14   O     O_R   0.853820 0.914550 0.219610 -0.661934
O15   O     O_R   0.853820 0.914550 0.780390 -0.673562
O16   O     O_R   0.146180 0.914550 0.219610 -0.677045
O17   O     O_R   0.146180 0.914550 0.780390 -0.675737
O18   O     O_R   0.353820 0.414550 0.719610 -0.657160
O19   O     O_R   0.353820 0.414550 0.280390 -0.668985
O20   O     O_R   0.646180 0.414550 0.719610 -0.676976
O21   O     O_R   0.646180 0.414550 0.280390 -0.673536
O22   O     O_R   0.146170 0.085440 0.219600 -0.617262
O23   O     O_3   0.500000 0.500010 0.749960 -0.503277
O24   O     O_R   0.146170 0.085440 0.780400 -0.625956
O25   O     O_R   0.853830 0.085440 0.219600 -0.619030
O26   O     O_R   0.853830 0.085440 0.780400 -0.648159
O27   O     O_R   0.646170 0.585440 0.719600 -0.618850
O28   O     O_R   0.646170 0.585440 0.280400 -0.622759
O29   O     O_R   0.353830 0.585440 0.719600 -0.615387
O30   O     O_R   0.353830 0.585440 0.280400 -0.648319
O31   O     O_R   0.939270 0.999980 0.134160 -0.648639
O32   O     O_R   0.939270 0.999980 0.865840 -0.618063
O33   O     O_R   0.060730 0.999980 0.134160 -0.634919
O34   O     O_3   0.500000 0.500010 0.250040 -0.501605
O35   O     O_R   0.060730 0.999980 0.865840 -0.653661
O36   O     O_R   0.439270 0.499980 0.634160 -0.641986
O37   O     O_R   0.439270 0.499980 0.365840 -0.620820
O38   O     O_R   0.560730 0.499980 0.634160 -0.647422
O39   O     O_R   0.560730 0.499980 0.365840 -0.646855
O40   O     O_R   0.000000 0.060760 0.365760 -0.646147
O41   O     O_R   0.000000 0.060760 0.634240 -0.592523
O42   O     O_R   0.500000 0.560760 0.865760 -0.608765
O43   O     O_R   0.500000 0.560760 0.134240 -0.596927
O44   O     O_R   0.000000 0.939310 0.365770 -0.638856
O45   O     O_R   0.914520 0.146190 0.280300 -0.667387
O46   O     O_R   1.000000 0.939310 0.634230 -0.667686
O47   O     O_R   0.500000 0.439310 0.865770 -0.643698
O48   O     O_R   0.500000 0.439310 0.134230 -0.668343
O49   O     O_3   0.923173 0.160825 0.563146 -0.629032
O50   O     O_3   0.923212 0.181518 0.457756 -0.660766
O51   O     O_3   0.049308 0.168723 0.558111 -0.604640
O52   O     O_3   0.051792 0.171034 0.455990 -0.609306
O53   O     O_3   0.411425 0.654403 0.055824 -0.644995
O54   O     O_3   0.425182 0.663168 0.947176 -0.635141
O55   O     O_3   0.537512 0.671821 0.061303 -0.635261
O56   O     O_R   0.914520 0.146190 0.719700 -0.647251
O57   O     O_3   0.550872 0.681428 0.956590 -0.626636
O58   O     O_3   0.787250 0.193468 0.838674 -0.567556
O59   O     O_3   0.718063 0.116484 0.210870 -0.560752
O60   O     O_3   0.240778 0.155625 0.832306 -0.549760
O61   O     O_3   0.243659 0.149087 0.169726 -0.535830
O62   O     O_3   0.297977 0.708465 0.336183 -0.577959
O63   O     O_3   0.222047 0.619805 0.703496 -0.557163
O64   O     O_3   0.738730 0.655984 0.334247 -0.540068
O65   O     O_3   0.747482 0.646731 0.673800 -0.550541
O66   O     O_3   0.150120 0.745023 0.324489 -0.556633
O67   O     O_R   0.085480 0.146190 0.280300 -0.653769
O68   O     O_3   0.117561 0.720281 0.708109 -0.559969
O69   O     O_3   0.846938 0.756448 0.332964 -0.547969
O70   O     O_3   0.842539 0.757186 0.670084 -0.560679
O71   O     O_3   0.648662 0.245340 0.824334 -0.547205
O72   O     O_3   0.616521 0.219888 0.209644 -0.560591
O73   O     O_3   0.344509 0.258877 0.831946 -0.543767
O74   O     O_3   0.345989 0.254401 0.168550 -0.557611
O75   O     O_3   0.111682 0.080047 0.055470 -0.525776
O76   O     O_3   0.103722 0.094063 0.949809 -0.538830
O77   O     O_3   0.879880 0.067115 0.052138 -0.537640
O78   O     O_R   0.085480 0.146190 0.719700 -0.652968
O79   O     O_3   0.874953 0.053251 0.946123 -0.542637
O80   O     O_3   0.607934 0.587516 0.554517 -0.536633
O81   O     O_3   0.607343 0.589473 0.448382 -0.529718
O82   O     O_3   0.378905 0.562333 0.553305 -0.541651
O83   O     O_3   0.378438 0.560758 0.447709 -0.557563
O84   O     O_R   0.414520 0.646190 0.780300 -0.647993
Zn1   Zn    Zn3+2 1.000000 0.913260 0.293350 0.984625
Zn2   Zn    Zn3+2 0.413230 0.500000 0.293420 0.950540
Zn3   Zn    Zn3+2 0.586770 0.500000 0.706580 0.932489
Zn4   Zn    Zn3+2 0.586770 0.500000 0.293420 0.949903
Zn5   Zn    Zn3+2 0.000000 0.086780 0.293330 0.948106
Zn6   Zn    Zn3+2 0.000000 0.086780 0.706670 0.984357
Zn7   Zn    Zn3+2 0.500000 0.586780 0.793330 0.977016
Zn8   Zn    Zn3+2 0.500000 0.586780 0.206670 0.980368
Zn9   Zn    Zn3+2 0.000000 0.913260 0.706650 0.966986
Zn10  Zn    Zn3+2 0.500000 0.413260 0.793350 0.980635
Zn11  Zn    Zn3+2 0.500000 0.413260 0.206650 0.961367
Zn12  Zn    Zn3+2 0.913230 1.000000 0.206580 0.947836
Zn13  Zn    Zn3+2 0.913230 1.000000 0.793420 0.947450
Zn14  Zn    Zn3+2 0.086770 1.000000 0.206580 0.948302
Zn15  Zn    Zn3+2 0.086770 1.000000 0.793420 0.942941
Zn16  Zn    Zn3+2 0.413230 0.500000 0.706580 0.959776

loop_
_geom_bond_atom_site_label_1
_geom_bond_atom_site_label_2
_ccdc_geom_bond_type
C97   O79   S    
O9    Zn10  S    
C33   H135  S    
O34   Zn8   S    
C114  O13   A    
O23   Zn16  S    
C81   O72   S    
C141  O54   S    
O39   Zn4   S    
C21   H99   S    
C13   C60   A    
C68   C81   A    
C65   C127  S    
C57   C145  A    
O10   Zn11  S    
C141  O57   S    
O11   Zn10  S    
C18   H88   S    
C10   H67   S    
O33   Zn14  S    
C50   H39   S    
C137  O49   S    
C34   H137  S    
C108  O17   A    
C62   C70   A    
C74   O64   S    
C5    H138  S    
C44   H20   S    
C127  O4    A    
O34   Zn4   S    
C26   H111  S    
C82   O73   S    
C2    C22   S    
C63   C105  S    
C70   C84   A    
C30   O58   S    
C47   H28   S    
C95   C102  A    
C11   H68   S    
C58   C61   S    
C53   O81   S    
C106  C118  S    
C130  C134  A    
C31   H128  S    
C25   H108  S    
C86   C143  A    
C119  O39   A    
C39   H6    S    
C45   O73   S    
C40   H9    S    
C140  C141  S    
C14   H77   S    
C2    C59   A    
C82   C91   A    
O84   Zn7   S    
C15   H79   S    
C3    C92   A    
C39   O66   S    
C122  O42   A    
C140  O55   S    
C23   H104  S    
O78   Zn6   S    
C45   H25   S    
C49   H36   S    
O16   Zn14  S    
O46   Zn9   S    
C1    O25   A    
C55   H55   S    
C24   C25   S    
C11   H70   S    
C101  O83   S    
C51   H42   S    
C129  C133  A    
C81   C90   A    
C27   C46   S    
C72   O22   A    
O32   Zn13  S    
C63   C71   A    
C32   H133  S    
C93   O75   S    
C43   H18   S    
O44   Zn1   S    
C37   H145  S    
C65   C74   A    
C61   O26   A    
O20   Zn3   S    
C86   C108  S    
C10   H65   S    
C31   O59   S    
C6    H35   S    
C126  C141  S    
C100  C106  A    
C19   C148  S    
C98   C106  A    
C40   O68   S    
C29   H121  S    
C17   C146  S    
C53   H49   S    
O1    Zn5   S    
O34   Zn2   S    
O26   Zn13  S    
C37   H144  S    
C39   H4    S    
O21   Zn4   S    
C1    O45   A    
C19   H93   S    
C64   C94   S    
C41   H10   S    
C58   C67   A    
C18   H89   S    
C98   C99   A    
C53   H48   S    
C73   C77   A    
C35   C63   A    
C75   C79   A    
C76   C85   A    
O1    Zn12  S    
O23   Zn3   S    
O37   Zn2   S    
C123  O43   A    
C78   C87   A    
C20   H95   S    
C119  O37   A    
C123  C132  S    
C124  C139  S    
C57   C66   A    
O67   Zn5   S    
C93   C103  A    
C48   H30   S    
C28   C56   S    
C6    H24   S    
C17   H86   S    
C117  O32   A    
C52   O80   S    
C22   H102  S    
O27   Zn3   S    
C42   H16   S    
C120  O40   A    
C16   H81   S    
C13   C23   S    
C51   H40   S    
C107  O5    A    
C79   O70   S    
O5    Zn1   S    
C34   H140  S    
C124  C129  A    
C64   C73   A    
C5    H127  S    
C132  C136  A    
C104  C119  S    
C25   H109  S    
C58   C138  A    
C68   O59   S    
C93   C95   A    
C96   C97   A    
C38   H148  S    
O12   Zn9   S    
C3    C24   A    
C80   O71   S    
C4    H94   S    
C100  O82   S    
O36   Zn16  S    
C36   H141  S    
C136  H83   S    
C120  C129  S    
C29   H123  S    
O1    Zn1   S    
C14   H75   S    
C49   O76   S    
C30   H124  S    
C18   C147  S    
C2    C147  A    
C27   H114  S    
C54   H51   S    
C16   C145  S    
C52   H43   S    
C94   O84   A    
C8    H59   S    
C90   C147  A    
C19   H91   S    
C50   O77   S    
C26   C35   S    
C6    H13   S    
C9    H62   S    
C4    H116  S    
C7    H46   S    
C102  C117  S    
C12   H74   S    
O1    Zn14  S    
C34   O62   S    
C32   H131  S    
C30   H125  S    
C49   H33   S    
C83   O78   A    
C20   H97   S    
C105  O2    A    
C6    O51   S    
C50   H38   S    
C38   H3    S    
C48   H32   S    
C111  O9    A    
O28   Zn4   S    
C33   H134  S    
C24   C62   A    
C52   H45   S    
O48   Zn11  S    
C120  O44   A    
O2    Zn8   S    
C42   H14   S    
C21   H98   S    
C43   H19   S    
C5    O50   S    
O15   Zn13  S    
O12   Zn6   S    
C54   O82   S    
C111  O20   A    
C60   C69   A    
O29   Zn16  S    
C135  H72   S    
C100  C101  A    
C35   C142  A    
C26   H112  S    
C84   C92   A    
O42   Zn7   S    
C116  O27   A    
C47   H27   S    
C18   H90   S    
C36   H143  S    
C122  C131  S    
C72   O67   A    
C7    H57   S    
C121  O46   A    
C135  C136  A    
C26   H113  S    
C123  O48   A    
O19   Zn2   S    
C137  C139  S    
C28   H119  S    
C66   C116  S    
C39   H5    S    
C48   O75   S    
C44   O72   S    
C75   O65   S    
C1    C59   S    
C71   C76   A    
C60   C83   S    
C9    H64   S    
C83   O24   A    
C80   C89   A    
C31   H130  S    
C44   H21   S    
C84   O74   S    
O45   Zn5   S    
C117  O35   A    
C8    O53   S    
C116  O3    A    
C109  O14   A    
C41   H12   S    
C126  C128  A    
C88   C145  A    
C40   H7    S    
C87   C144  A    
C11   H69   S    
C10   O55   S    
C97   C102  A    
C51   H41   S    
C88   C110  S    
O30   Zn2   S    
C99   C104  A    
C33   H136  S    
C134  H61   S    
O47   Zn10  S    
C21   C138  S    
C23   H106  S    
O38   Zn3   S    
C45   H23   S    
C79   C88   A    
C118  O38   A    
C21   H100  S    
C43   H17   S    
C69   O60   S    
O31   Zn12  S    
C10   H66   S    
C125  C137  S    
C139  O52   S    
C5    H2    S    
C103  C115  S    
C7    H56   S    
C121  O41   A    
O8    Zn9   S    
C94   O29   A    
C27   H115  S    
O12   Zn13  S    
C70   O61   S    
C3    C20   S    
C8    H58   S    
C115  O33   A    
C29   C57   S    
C30   H126  S    
C101  C104  A    
C133  C134  A    
C53   H47   S    
C113  O18   A    
C15   C144  S    
O18   Zn16  S    
C20   H96   S    
C14   C143  S    
O40   Zn5   S    
C67   O58   S    
C67   C80   A    
C28   H120  S    
C51   O79   S    
C87   C109  S    
C17   H85   S    
O4    Zn8   S    
C15   H80   S    
C99   O81   S    
O3    Zn7   S    
C22   H103  S    
C45   H26   S    
C27   H117  S    
C43   O71   S    
C66   C75   A    
C16   H82   S    
C12   C142  S    
C110  O15   A    
C128  C140  S    
C55   O83   S    
C56   C144  A    
C74   C78   A    
C96   C103  A    
C41   O69   S    
C118  O36   A    
C55   H53   S    
C109  O7    A    
C37   H146  S    
C110  O8    A    
O13   Zn11  S    
C90   C112  S    
C95   O76   S    
C54   H52   S    
C36   H142  S    
C139  O50   S    
C29   H122  S    
C14   H76   S    
C71   O62   S    
C138  C146  A    
C131  C135  A    
C56   C65   A    
O12   Zn15  S    
C28   H118  S    
O17   Zn15  S    
C4    O49   S    
C52   H44   S    
C8    H60   S    
C105  O30   A    
C76   O66   S    
C41   H11   S    
C115  O31   A    
C125  C130  A    
C77   O68   S    
C37   O64   S    
C34   H139  S    
C98   O80   S    
C69   C82   A    
O23   Zn7   S    
C38   O65   S    
C12   H71   S    
C32   H132  S    
C11   O57   S    
C137  O51   S    
C42   O70   S    
O14   Zn12  S    
C4    H105  S    
C7    O52   S    
C128  C132  A    
C91   C148  A    
O7    Zn1   S    
C78   O69   S    
C17   H87   S    
C89   C146  A    
C12   H73   S    
C61   O56   A    
C15   H78   S    
O23   Zn10  S    
C73   O63   S    
C133  H1    S    
C122  O47   A    
C22   H101  S    
C23   H107  S    
C42   H15   S    
C112  O21   A    
C55   H54   S    
C9    O54   S    
C16   H84   S    
C91   C113  S    
C46   C64   A    
C47   O74   S    
C59   C68   A    
C107  O16   A    
O34   Zn11  S    
C62   C72   S    
C121  C130  S    
C127  O28   A    
O22   Zn14  S    
C36   O63   S    
C33   O61   S    
C25   H110  S    
C77   C86   A    
C38   H147  S    
O56   Zn6   S    
C114  O19   A    
C85   C142  A    
C46   C143  A    
C89   C111  S    
C54   H50   S    
O43   Zn8   S    
C47   H29   S    
O35   Zn15  S    
C19   H92   S    
O6    Zn9   S    
O41   Zn6   S    
C126  C131  A    
C9    H63   S    
C113  O11   A    
C31   H129  S    
C44   H22   S    
C140  O53   S    
O25   Zn12  S    
C49   H34   S    
C96   O77   S    
C112  O10   A    
C40   H8    S    
C13   C148  A    
C85   C107  S    
C50   H37   S    
C92   C114  S    
C48   H31   S    
C32   O60   S    
C124  C125  A    
O24   Zn15  S    
C108  O6    A    
