data_mof_unit_60788.cif
_audit_creation_date              2012-10-26T17:24:14-0400
_audit_creation_method            fapswitch 2.2
_symmetry_space_group_name_H-M    P1
_symmetry_Int_Tables_number       1
_space_group_crystal_system       triclinic
_cell_length_a                    42.675502
_cell_length_b                    29.4246
_cell_length_c                    29.419514
_cell_angle_alpha                 89.99984
_cell_angle_beta                  133.941718
_cell_angle_gamma                 90.00117
_cell_volume                      26600.2040727

loop_
_atom_site_label
_atom_site_type_symbol
_atom_type_description
_atom_site_fract_x
_atom_site_fract_y
_atom_site_fract_z
_atom_type_partial_charge
C1    C     C_R   0.499972 0.585484 0.499990 0.553691
C2    C     C_1   0.835230 0.000050 0.333758 0.111638
C3    C     C_3   0.762058 0.962801 0.234802 0.191735
C4    C     C_1   0.373384 0.500019 0.373387 0.090045
C5    C     C_1   0.873383 0.000021 0.373387 0.090046
C6    C     C_1   0.120222 0.500008 0.116852 0.059941
C7    C     C_1   0.620222 0.000010 0.116852 0.059940
C8    C     C_3   0.259132 0.500410 0.296180 0.197877
C9    C     C_3   0.759132 0.000287 0.296181 0.197878
C10   C     C_3   0.289347 0.500066 0.285114 -0.088651
C11   C     C_3   0.789347 0.000077 0.285114 -0.088649
C12   C     C_R   0.222929 0.499335 0.121805 0.107940
C13   C     C_1   0.158243 0.500029 0.151468 0.057426
C14   C     C_R   0.256593 0.499217 0.123367 0.004454
C15   C     C_R   0.247177 0.498869 0.067420 -0.089951
C16   C     C_R   0.204005 0.498630 0.009216 -0.094476
C17   C     C_R   0.170234 0.498736 0.006964 -0.096812
C18   C     C_R   0.179553 0.499084 0.062869 -0.044011
C19   C     C_R   0.722929 0.999636 0.121804 0.107941
C20   C     C_R   0.756593 0.999627 0.123366 0.004454
C21   C     C_R   0.747177 0.999419 0.067418 -0.089953
C22   C     C_R   0.704004 0.999214 0.009214 -0.094476
C23   C     C_R   0.670234 0.999213 0.006962 -0.096813
C24   C     C_1   0.658243 0.000036 0.151468 0.057428
C25   C     C_R   0.679552 0.999421 0.062868 -0.044012
C26   C     C_1   0.499948 0.636530 0.499937 -0.017015
C27   C     C_1   0.499949 0.363469 0.499938 -0.017088
C28   C     C_1   0.999948 0.136530 0.499937 -0.017017
C29   C     C_1   0.999949 0.863469 0.499938 -0.017086
C30   C     C_1   0.499935 0.678852 0.499918 -0.011359
C31   C     C_1   0.499937 0.321148 0.499919 -0.011646
C32   C     C_1   0.999935 0.178852 0.499918 -0.011364
C33   C     C_R   0.499972 0.414516 0.499990 0.553675
C34   C     C_1   0.999937 0.821148 0.499920 -0.011641
C35   C     C_1   0.499930 0.729017 0.499916 0.022580
C36   C     C_1   0.499932 0.270982 0.499919 0.022087
C37   C     C_1   0.999930 0.229017 0.499916 0.022571
C38   C     C_1   0.999932 0.770982 0.499919 0.022095
C39   C     C_1   0.499932 0.771339 0.499927 0.019792
C40   C     C_1   0.499935 0.228661 0.499930 0.019248
C41   C     C_1   0.999932 0.271339 0.499927 0.019782
C42   C     C_1   0.999935 0.728661 0.499930 0.019257
C43   C     C_1   0.499939 0.821505 0.499946 -0.019620
C44   C     C_R   0.999972 0.085484 0.499990 0.553692
C45   C     C_1   0.499942 0.178495 0.499949 -0.020111
C46   C     C_1   0.999939 0.321505 0.499946 -0.019630
C47   C     C_1   0.999942 0.678495 0.499949 -0.020102
C48   C     C_1   0.499947 0.863827 0.499964 -0.027554
C49   C     C_1   0.499950 0.136173 0.499967 -0.027920
C50   C     C_1   0.999947 0.363827 0.499964 -0.027562
C51   C     C_1   0.999950 0.636173 0.499967 -0.027912
C52   C     C_R   0.418298 0.499994 0.418427 0.580538
C53   C     C_R   0.918298 0.999993 0.418427 0.580538
C54   C     C_1   0.635090 0.500000 0.634817 -0.035289
C55   C     C_R   0.999972 0.914516 0.499990 0.553675
C56   C     C_1   0.135090 1.000000 0.634817 -0.035289
C57   C     C_1   0.676568 0.499999 0.676287 -0.019626
C58   C     C_1   0.176568 0.999999 0.676287 -0.019627
C59   C     C_1   0.726140 0.499999 0.725916 0.012609
C60   C     C_1   0.226140 0.999999 0.725916 0.012609
C61   C     C_1   0.767620 0.499999 0.767465 0.012714
C62   C     C_1   0.267620 0.999999 0.767465 0.012713
C63   C     C_1   0.817192 0.499999 0.817127 -0.019364
C64   C     C_1   0.317192 0.999999 0.817127 -0.019364
C65   C     C_1   0.858671 0.499999 0.858680 -0.035081
C66   C     C_3   0.204140 0.500059 0.194960 -0.100695
C67   C     C_1   0.358671 0.999999 0.858680 -0.035082
C68   C     C_R   0.994852 0.500000 0.080457 0.557011
C69   C     C_R   0.494852 1.000000 0.080457 0.557013
C70   C     C_R   0.075478 0.500001 0.075752 0.575904
C71   C     C_R   0.575478 0.000001 0.075752 0.575905
C72   C     C_R   0.993286 0.500000 0.907852 0.542727
C73   C     C_R   0.493286 0.000000 0.907852 0.542725
C74   C     C_R   0.909163 0.499999 0.909250 0.538860
C75   C     C_R   0.409163 0.999999 0.909250 0.538860
C76   C     C_R   0.584600 0.500000 0.584516 0.536531
C77   C     C_3   0.704140 0.000074 0.194961 -0.100694
C78   C     C_R   0.084600 1.000000 0.584516 0.536531
C79   C     C_R   0.499056 0.000000 0.414004 0.547166
C80   C     C_R   0.999056 0.500000 0.414004 0.547166
C81   C     C_R   0.499956 0.914875 0.499983 0.546777
C82   C     C_R   0.499957 0.085125 0.499984 0.546670
C83   C     C_R   0.999956 0.414875 0.499983 0.546773
C84   C     C_R   0.999957 0.585125 0.499984 0.546674
C85   C     C_R   0.500794 1.000000 0.585931 0.546033
C86   C     C_R   0.000794 0.500000 0.585931 0.546034
C87   C     C_1   0.995587 0.500000 0.132229 -0.016050
C88   C     C_3   0.234252 0.499719 0.183248 -0.087817
C89   C     C_1   0.495587 1.000000 0.132229 -0.016047
C90   C     C_1   0.996203 0.500000 0.175162 -0.011355
C91   C     C_1   0.496203 1.000000 0.175162 -0.011352
C92   C     C_1   0.996922 0.500000 0.226037 0.022201
C93   C     C_1   0.496922 1.000000 0.226037 0.022203
C94   C     C_1   0.497510 1.000000 0.268943 0.019498
C95   C     C_1   0.997510 0.500000 0.268943 0.019496
C96   C     C_1   0.498166 1.000000 0.319756 -0.019662
C97   C     C_1   0.998166 0.500000 0.319756 -0.019664
C98   C     C_1   0.498647 0.000000 0.362556 -0.027283
C99   C     C_3   0.734252 0.999869 0.183248 -0.087818
C100  C     C_1   0.998647 0.500000 0.362556 -0.027284
C101  C     C_1   0.994379 0.500000 0.857886 -0.033956
C102  C     C_1   0.494379 1.000000 0.857886 -0.033958
C103  C     C_3   0.231639 0.537358 0.245349 0.211085
C104  C     C_3   0.231628 0.463119 0.245914 0.234318
C105  C     C_3   0.731636 0.037305 0.245463 0.211087
C106  C     C_3   0.731632 0.963065 0.245803 0.234318
C107  C     C_1   0.995598 0.499999 0.816790 -0.027631
C108  C     C_1   0.495598 1.000000 0.816790 -0.027634
C109  C     C_1   0.997161 0.499999 0.768192 0.010201
C110  C     C_1   0.335230 0.500043 0.333758 0.111636
C111  C     C_1   0.497161 1.000000 0.768192 0.010198
C112  C     C_1   0.498445 1.000000 0.727162 0.011402
C113  C     C_1   0.998445 0.499999 0.727162 0.011405
C114  C     C_1   0.499802 1.000000 0.678350 -0.024693
C115  C     C_1   0.999802 0.499999 0.678350 -0.024691
C116  C     C_1   0.500618 1.000000 0.636836 -0.030729
C117  C     C_1   0.000618 0.500000 0.636836 -0.030727
C118  C     C_3   0.262071 0.537072 0.234349 0.190771
C119  C     C_3   0.262055 0.462722 0.234915 0.191740
C120  C     C_3   0.762068 0.037152 0.234461 0.190777
Cu1   Cu    Cu3+1 0.500480 0.500000 0.542990 1.021198
Cu2   Cu    Cu3+1 0.958020 0.500000 0.458050 0.987332
Cu3   Cu    Cu3+1 0.541920 0.000000 0.541950 0.976211
Cu4   Cu    Cu3+1 0.041920 0.500000 0.541950 0.976212
Cu5   Cu    Cu3+1 0.000480 0.000000 0.542990 1.021201
Cu6   Cu    Cu3+1 0.499450 0.500000 0.457010 1.017111
Cu7   Cu    Cu3+1 0.999450 0.000000 0.457010 1.017107
Cu8   Cu    Cu3+1 0.993800 0.542460 0.993900 1.015063
Cu9   Cu    Cu3+1 0.993800 0.457540 0.993900 1.011968
Cu10  Cu    Cu3+1 0.493800 0.042460 0.993900 1.014982
Cu11  Cu    Cu3+1 0.493800 0.957540 0.993900 1.012045
Cu12  Cu    Cu3+1 0.458020 0.000000 0.458050 0.987336
H1    H     H_    0.258353 0.640150 0.161455 0.374414
H2    H     H_    0.273387 0.498784 0.069225 0.130370
H3    H     H_    0.196719 0.498360 0.965889 0.124521
H4    H     H_    0.136752 0.498546 0.961817 0.119252
H5    H     H_    0.152649 0.499143 0.059210 0.108620
H6    H     H_    0.790232 0.999783 0.167941 0.187813
H7    H     H_    0.773386 0.999417 0.069223 0.130369
H8    H     H_    0.696718 0.999053 0.965887 0.124521
H9    H     H_    0.636751 0.999049 0.961814 0.119252
H10   H     H_    0.652649 0.999399 0.059209 0.108619
H11   H     H_    0.247059 0.504063 0.407575 0.369780
H12   H     H_    0.258028 0.358226 0.163900 0.373289
H13   H     H_    0.747059 0.003554 0.407587 0.369781
H14   H     H_    0.758341 0.140444 0.161880 0.374412
H15   H     H_    0.758040 0.858515 0.163470 0.373290
H16   H     H_    0.247073 0.611676 0.344398 0.380411
H17   H     H_    0.234496 0.357273 0.314234 0.370135
H18   H     H_    0.747064 0.111361 0.344738 0.380412
H19   H     H_    0.734508 0.857013 0.313794 0.370137
H20   H     H_    0.290232 0.499399 0.167942 0.187812
O1    O     O_R   0.500410 0.561970 0.536310 -0.482067
O2    O     O_R   0.963790 0.500000 0.401850 -0.480539
O3    O     O_R   0.534640 0.000000 0.472710 -0.479751
O4    O     O_R   0.034640 0.500000 0.472710 -0.479750
O5    O     O_R   0.464530 0.938000 0.464560 -0.478633
O6    O     O_R   0.464530 0.062000 0.464560 -0.479092
O7    O     O_R   0.964530 0.438000 0.464560 -0.478636
O8    O     O_R   0.964530 0.562000 0.464560 -0.479091
O9    O     O_R   0.535390 0.937990 0.535420 -0.482120
O10   O     O_R   0.535390 0.062010 0.535420 -0.481984
O11   O     O_R   0.035390 0.437990 0.535420 -0.482123
O12   O     O_R   0.500410 0.438030 0.536310 -0.482046
O13   O     O_R   0.035390 0.562010 0.535420 -0.481980
O14   O     O_R   0.465290 0.000000 0.527290 -0.479287
O15   O     O_R   0.965290 0.500000 0.527290 -0.479287
O16   O     O_R   0.536150 0.000000 0.598150 -0.482994
O17   O     O_R   0.036150 0.500000 0.598150 -0.482993
O18   O     O_R   0.499540 0.561910 0.463710 -0.481652
O19   O     O_R   0.499540 0.438090 0.463710 -0.481704
O20   O     O_R   0.999540 0.061910 0.463710 -0.481663
O21   O     O_R   0.999540 0.938090 0.463710 -0.481695
O22   O     O_R   0.439190 0.500000 0.475090 -0.482230
O23   O     O_R   0.000410 0.061970 0.536310 -0.482067
O24   O     O_R   0.939190 0.000000 0.475090 -0.482229
O25   O     O_R   0.438320 0.500000 0.402480 -0.483740
O26   O     O_R   0.938320 0.000000 0.402480 -0.483741
O27   O     O_R   0.561610 0.500000 0.597520 -0.484812
O28   O     O_R   0.061610 0.000000 0.597520 -0.484812
O29   O     O_R   0.560740 0.500000 0.524910 -0.484783
O30   O     O_R   0.060740 0.000000 0.524910 -0.484783
O31   O     O_R   0.994560 0.535840 0.056620 -0.478908
O32   O     O_R   0.994560 0.464160 0.056620 -0.479708
O33   O     O_R   0.494560 0.035840 0.056620 -0.478905
O34   O     O_R   0.000410 0.938030 0.536310 -0.482044
O35   O     O_R   0.494560 0.964160 0.056620 -0.479709
O36   O     O_R   0.055010 0.535850 0.055100 -0.483112
O37   O     O_R   0.055010 0.464150 0.055100 -0.484448
O38   O     O_R   0.555010 0.035850 0.055100 -0.483171
O39   O     O_R   0.555010 0.964150 0.055100 -0.484390
O40   O     O_R   0.993040 0.535870 0.931160 -0.484588
O41   O     O_R   0.993040 0.464130 0.931160 -0.484953
O42   O     O_R   0.493040 0.035870 0.931160 -0.484619
O43   O     O_R   0.493040 0.964130 0.931160 -0.484921
O44   O     O_2   0.302020 0.617926 0.283834 -0.188753
O45   O     O_R   0.932590 0.535860 0.932690 -0.482945
O46   O     O_2   0.319707 0.573554 0.233667 -0.310236
O47   O     O_3   0.244120 0.613369 0.161086 -0.477147
O48   O     O_2   0.319207 0.425338 0.233801 -0.308949
O49   O     O_2   0.302478 0.382255 0.286009 -0.197901
O50   O     O_3   0.243843 0.385251 0.163159 -0.478203
O51   O     O_2   0.802007 0.117981 0.284190 -0.188746
O52   O     O_2   0.819701 0.073823 0.233894 -0.310261
O53   O     O_3   0.744110 0.113617 0.161429 -0.477148
O54   O     O_2   0.819212 0.925607 0.233572 -0.308930
O55   O     O_2   0.802491 0.882307 0.285654 -0.197906
O56   O     O_R   0.932590 0.464140 0.932690 -0.483056
O57   O     O_3   0.743853 0.885494 0.162813 -0.478204
O58   O     O_2   0.185673 0.614721 0.190992 -0.196789
O59   O     O_2   0.177160 0.571947 0.253185 -0.253396
O60   O     O_3   0.248866 0.617807 0.313158 -0.421643
O61   O     O_2   0.178542 0.429801 0.256968 -0.234626
O62   O     O_2   0.184825 0.386244 0.192460 -0.236647
O63   O     O_3   0.249370 0.383352 0.314658 -0.419712
O64   O     O_2   0.685665 0.114689 0.191342 -0.196787
O65   O     O_2   0.677154 0.071693 0.253402 -0.253425
O66   O     O_3   0.748857 0.117596 0.313517 -0.421637
O67   O     O_R   0.432590 0.035860 0.932690 -0.482947
O68   O     O_2   0.678549 0.929541 0.256756 -0.234592
O69   O     O_2   0.684833 0.886207 0.192113 -0.236652
O70   O     O_3   0.749380 0.883141 0.314301 -0.419718
O71   O     O_2   0.302933 0.458083 0.407041 -0.214370
O72   O     O_2   0.306388 0.541314 0.408796 -0.268479
O73   O     O_3   0.234471 0.503395 0.363921 -0.444000
O74   O     O_2   0.802936 0.957757 0.406913 -0.214380
O75   O     O_2   0.806386 0.040992 0.408922 -0.268467
O76   O     O_3   0.734471 0.002982 0.363930 -0.444003
O77   O     O_R   0.432590 0.964140 0.932690 -0.483054
O78   O     O_R   0.463790 0.000000 0.401850 -0.480538
S1    S     S_3+6 0.283941 0.586741 0.229886 0.061568
S2    S     S_3+6 0.777580 0.000449 0.372265 0.090109
S3    S     S_3+6 0.283859 0.412634 0.231130 0.058048
S4    S     S_3+6 0.783933 0.086905 0.230149 0.061557
S5    S     S_3+6 0.783867 0.912796 0.230866 0.058054
S6    S     S_3+6 0.209061 0.586524 0.249392 0.124874
S7    S     S_3+6 0.209202 0.414461 0.251115 0.118210
S8    S     S_3+6 0.709054 0.086384 0.249656 0.124865
S9    S     S_3+6 0.709209 0.914318 0.250854 0.118218
S10   S     S_3+6 0.277580 0.500749 0.372263 0.090111

loop_
_geom_bond_atom_site_label_1
_geom_bond_atom_site_label_2
_ccdc_geom_bond_type
O59   S6    D    
C101  C107  T    
C63   C65   T    
C68   O31   A    
Cu7   O21   S    
C93   C94   T    
C114  C116  T    
C52   O22   A    
Cu3   Cu12  S    
C86   O17   A    
C107  C109  S    
C1    O18   A    
C79   C98   S    
C25   H10   S    
C44   O23   A    
C76   O27   A    
Cu8   Cu9   S    
C112  C114  S    
C84   O8    A    
Cu10  O33   S    
O55   S5    D    
Cu9   O41   S    
Cu1   O27   S    
C15   H2    S    
C74   O56   A    
C27   C33   S    
C103  S6    S    
Cu1   O1    S    
C30   C35   S    
C4    C52   S    
C9    S2    S    
C10   C118  S    
C85   O14   A    
C5    C53   S    
O53   S4    S    
Cu12  O14   S    
C75   O67   A    
C38   C42   T    
O61   S7    D    
O71   S10   D    
H16   O60   S    
C66   C88   S    
Cu3   O9    S    
O74   S2    D    
C57   C59   S    
C72   C101  S    
C11   C120  S    
C58   C60   S    
C7    C24   T    
C22   H8    S    
O70   S9    S    
C56   C78   S    
C48   C81   S    
Cu6   O25   S    
C61   C63   S    
C55   O34   A    
C20   H6    S    
C44   O20   A    
C75   O77   A    
O47   S1    S    
C52   O25   A    
C55   O21   A    
O52   S4    D    
C10   C119  S    
C120  S4    S    
C99   C120  S    
Cu8   O45   S    
O49   S3    D    
C119  S3    S    
C68   O32   A    
Cu4   O17   S    
C111  C112  T    
C16   C17   A    
C115  C117  T    
C96   C98   T    
C62   C64   S    
C41   C46   S    
O44   S1    D    
O68   S9    D    
C102  C108  T    
C84   O13   A    
O58   S6    D    
C89   C91   T    
C43   C48   T    
C69   O35   A    
C70   O36   A    
C94   C96   S    
Cu4   O11   S    
C3    S5    S    
Cu11  O77   S    
O75   S2    D    
H1    O47   S    
Cu8   O36   S    
C21   C22   A    
C53   O26   A    
Cu2   O2    S    
C104  S7    S    
Cu8   O31   S    
H11   O73   S    
H14   O53   S    
C69   C89   S    
C2    C11   S    
C22   C23   A    
O60   S6    S    
C14   H20   S    
C50   C83   S    
C80   O4    A    
C73   O42   A    
C13   C66   S    
C8    S10   S    
C3    C106  S    
C40   C45   S    
H13   O76   S    
C59   C61   T    
C81   O5    A    
C15   C16   A    
C12   C88   S    
C27   C31   T    
C64   C67   T    
C66   C104  S    
C36   C40   T    
O62   S7    D    
O48   S3    D    
O51   S4    D    
C113  C115  S    
C72   O41   A    
Cu3   O10   S    
C19   C99   S    
O46   S1    D    
C47   C51   T    
C82   O10   A    
Cu7   O20   S    
Cu1   O12   S    
C29   C34   T    
C28   C44   S    
C92   C95   T    
Cu12  O6    S    
C65   C74   S    
Cu9   O37   S    
O54   S5    D    
C78   O30   A    
C49   C82   S    
C18   H5    S    
C35   C39   T    
O57   S5    S    
C79   O78   A    
Cu6   O18   S    
C91   C93   S    
C9    C11   S    
C90   C92   S    
Cu1   O22   S    
C14   C15   A    
C74   O45   A    
C28   C32   T    
C118  S1    S    
Cu2   O7    S    
C33   O12   A    
Cu5   O28   S    
C17   C18   A    
H18   O66   S    
C105  C120  S    
C108  C111  S    
C32   C37   S    
O73   S10   S    
C88   C119  S    
C1    O1    A    
C8    C104  S    
C54   C76   S    
Cu3   O16   S    
C73   C102  S    
Cu9   O32   S    
O69   S9    D    
C26   C30   T    
Cu11  O39   S    
C106  S9    S    
Cu4   O4    S    
Cu8   O40   S    
C60   C62   T    
C1    C26   S    
C77   C99   S    
H12   O50   S    
C4    C110  T    
C103  C118  S    
C67   C75   S    
C21   H7    S    
Cu2   Cu4   S    
C76   O29   A    
Cu5   O23   S    
C69   O33   A    
O76   S2    S    
C97   C100  T    
O65   S8    D    
Cu6   O19   S    
C6    C70   S    
C33   O19   A    
C83   O11   A    
C77   C106  S    
Cu2   O8    S    
Cu2   O15   S    
O63   S7    S    
C34   C38   S    
C85   O16   A    
C81   O9    A    
C66   C103  S    
C85   C116  S    
Cu11  O43   S    
C86   O15   A    
C12   C14   A    
Cu10  O42   S    
Cu12  O78   S    
C39   C43   S    
C95   C97   S    
C80   O2    A    
C109  C113  T    
C29   C55   S    
C46   C50   T    
Cu12  O5    S    
H19   O70   S    
C78   O28   A    
C88   C118  S    
O64   S8    D    
C104  C119  S    
C19   C20   A    
C73   O43   A    
Cu10  Cu11  S    
C9    C106  S    
Cu1   Cu6   S    
O72   S10   D    
O50   S3    S    
C7    C71   S    
C68   C87   S    
Cu5   O24   S    
C105  S8    S    
C82   O6    A    
C51   C84   S    
C77   C105  S    
C56   C58   T    
C45   C49   T    
C10   C110  S    
C17   H4    S    
C42   C47   S    
C23   C25   A    
C71   O38   A    
C37   C41   T    
Cu10  O67   S    
C19   C25   A    
C8    C103  S    
C3    C11   S    
C86   C117  S    
Cu9   O56   S    
C79   O3    A    
Cu4   O13   S    
C2    C5    T    
C3    C99   S    
C24   C77   S    
C83   O7    A    
C20   C21   A    
Cu3   O3    S    
C8    C10   S    
C87   C90   T    
C12   C18   A    
Cu5   Cu7   S    
Cu7   O30   S    
O66   S8    S    
C31   C36   S    
Cu5   O34   S    
Cu6   O29   S    
Cu7   O26   S    
C71   O39   A    
C53   O24   A    
H15   O57   S    
C16   H3    S    
C9    C105  S    
H17   O63   S    
C72   O40   A    
C80   C100  S    
Cu10  O38   S    
C70   O37   A    
C23   H9    S    
C6    C13   T    
C54   C57   T    
Cu11  O35   S    
