data_mof_unit_37735.cif
_audit_creation_date              2013-03-05T16:13:54-0500
_audit_creation_method            fapswitch 2.2
_symmetry_space_group_name_H-M    P1
_symmetry_Int_Tables_number       1
_space_group_crystal_system       triclinic
_cell_length_a                    20.24368
_cell_length_b                    22.707221
_cell_length_c                    6.938826
_cell_angle_alpha                 89.999396
_cell_angle_beta                  86.159828
_cell_angle_gamma                 89.999737
_cell_volume                      3182.46220165

loop_
_atom_site_label
_atom_site_type_symbol
_atom_site_description
_atom_site_fract_x
_atom_site_fract_y
_atom_site_fract_z
_atom_type_partial_charge
O1    O     O_R   0.751270 0.447300 0.600030 -0.597768
O2    O     O_R   0.248730 0.947300 0.399970 -0.597779
O3    O     O_R   0.613530 0.440160 0.952150 -0.595420
O4    O     O_R   0.386470 0.940160 0.047850 -0.595420
O5    O     O_R   0.613050 0.552700 0.122560 -0.594543
O6    O     O_R   0.386950 0.052700 0.877440 -0.594549
C1    C     C_R   0.591256 0.425553 0.788310 0.907927
C2    C     C_R   0.408744 0.925553 0.211691 0.907925
O7    O     O_R   0.750780 0.440350 0.929820 -0.596903
O8    O     O_R   0.249220 0.940350 0.070180 -0.596872
O9    O     O_R   0.751280 0.552900 0.100070 -0.558915
O10   O     O_R   0.248720 0.052900 0.899930 -0.558989
C3    C     C_R   0.774251 0.426452 0.756597 0.985030
C4    C     C_R   0.225749 0.926452 0.243405 0.985108
O11   O     O_R   0.613040 0.447100 0.622520 -0.595183
O12   O     O_R   0.386960 0.947100 0.377480 -0.595180
O13   O     O_3   0.682160 0.536920 0.777780 -0.243394
O14   O     O_3   0.317840 0.036920 0.222220 -0.243475
V1    V     V_3+5 0.682160 0.493150 0.052630 1.192676
V2    V     V_3+5 0.317840 0.993150 0.947370 1.192679
O15   O     O_R   0.750790 0.559840 0.429870 -0.560725
O16   O     O_R   0.249210 0.059840 0.570130 -0.560742
C5    C     C_R   0.774319 0.573713 0.256267 0.963079
C6    C     C_R   0.225681 0.073712 0.743728 0.963146
O17   O     O_R   0.613540 0.559650 0.452200 -0.593913
O18   O     O_R   0.386460 0.059650 0.547800 -0.593914
C7    C     C_R   0.591472 0.574374 0.288220 0.913206
C8    C     C_R   0.408528 0.074375 0.711779 0.913200
V3    V     V_3+5 0.682160 0.506850 0.552630 1.202662
V4    V     V_3+5 0.317840 0.006850 0.447370 1.202643
O19   O     O_3   0.682150 0.463080 0.277610 -0.287502
O20   O     O_3   0.317850 0.963080 0.722390 -0.287489
C9    C     C_R   0.575375 0.857456 0.088850 -0.176721
C10   C     C_R   0.424630 0.357452 0.911199 -0.176733
H1    H     H_    0.534076 0.944041 0.075119 0.110198
H2    H     H_    0.465928 0.444037 0.924928 0.110200
H3    H     H_    0.622527 0.872909 0.025740 0.131812
H4    H     H_    0.377480 0.372904 0.974329 0.131814
C11   C     C_R   0.463393 0.882315 0.203643 -0.094645
C12   C     C_R   0.536607 0.382315 0.796364 -0.094653
C13   C     C_R   0.475336 0.598856 0.378380 -0.164176
C14   C     C_R   0.524660 0.098860 0.621575 -0.164163
C15   C     C_R   0.423003 0.638138 0.406185 -0.092685
C16   C     C_R   0.576990 0.138143 0.593750 -0.092691
C17   C     C_R   0.431027 0.697211 0.355908 -0.175395
C18   C     C_R   0.568968 0.197214 0.644043 -0.175397
C19   C     C_R   0.492256 0.718775 0.273853 0.089740
C20   C     C_R   0.507743 0.218776 0.726135 0.089738
C21   C     C_R   0.545386 0.677678 0.241064 0.091897
C22   C     C_R   0.454615 0.177678 0.758944 0.091905
C23   C     C_R   0.502395 0.779638 0.224614 0.080808
C24   C     C_R   0.497606 0.279637 0.775391 0.080804
C25   C     C_R   0.564928 0.797612 0.136750 0.107517
C26   C     C_R   0.435077 0.297608 0.863289 0.107517
C27   C     C_R   0.615976 0.755659 0.099461 -0.030236
C28   C     C_R   0.384032 0.255654 0.900603 -0.030225
C29   C     C_R   0.606189 0.697179 0.155932 -0.289148
C30   C     C_R   0.393817 0.197175 0.844114 -0.289172
C31   C     C_R   0.452303 0.823385 0.257900 -0.233792
C32   C     C_R   0.547695 0.323385 0.742090 -0.233795
C33   C     C_R   0.525046 0.898825 0.119404 -0.161911
C34   C     C_R   0.474958 0.398822 0.880630 -0.161902
C35   C     C_R   0.536603 0.617590 0.295622 -0.164204
C36   C     C_R   0.463396 0.117590 0.704369 -0.164211
H5    H     H_    0.403590 0.813071 0.320652 0.099250
H6    H     H_    0.596406 0.313073 0.679317 0.099258
H7    H     H_    0.468148 0.553439 0.423079 0.109423
H8    H     H_    0.531845 0.053444 0.576861 0.109426
H9    H     H_    0.388119 0.724695 0.383295 0.111709
H10   H     H_    0.611874 0.224700 0.616636 0.111712
H11   H     H_    0.375800 0.622790 0.469683 0.118587
H12   H     H_    0.624190 0.122797 0.530223 0.118586
H13   H     H_    0.646578 0.666409 0.127380 0.137240
H14   H     H_    0.353430 0.166405 0.872686 0.137239
C37   C     C_R   0.169617 0.883897 0.263581 -0.128527
C38   C     C_R   0.830381 0.383894 0.736432 -0.128556
C39   C     C_R   0.146183 0.855952 0.100389 -0.150114
C40   C     C_R   0.853808 0.355945 0.899629 -0.150279
C41   C     C_R   0.092746 0.816674 0.119095 -0.137333
C42   C     C_R   0.907246 0.316666 0.880935 -0.137331
C43   C     C_R   0.061057 0.804426 0.302503 0.224276
C44   C     C_R   0.938941 0.304420 0.697535 0.224282
C45   C     C_R   0.084206 0.832627 0.464533 -0.157602
C46   C     C_R   0.915798 0.332624 0.535499 -0.157609
C47   C     C_R   0.137900 0.871622 0.445994 -0.137514
C48   C     C_R   0.862103 0.371620 0.554026 -0.137504
C49   C     C_R   0.893113 0.696887 0.370848 -0.153592
C50   C     C_R   0.106893 0.196897 0.629206 -0.153600
C51   C     C_R   0.839394 0.657771 0.382749 -0.137382
C52   C     C_R   0.160612 0.157782 0.617278 -0.137410
C53   C     C_R   0.939321 0.695880 0.209411 0.171163
C54   C     C_R   0.060678 0.195875 0.790626 0.171210
N1    N     N_2   0.005803 0.765244 0.330317 -0.102524
N2    N     N_2   0.994196 0.265239 0.669732 -0.102531
N3    N     N_2   0.994428 0.735211 0.185245 -0.096184
N4    N     N_2   0.005568 0.235202 0.814800 -0.096183
C55   C     C_R   0.830415 0.616472 0.235217 -0.305421
C56   C     C_R   0.169584 0.116467 0.764768 -0.305393
H15   H     H_    0.804388 0.660219 0.507499 0.177637
H16   H     H_    0.195625 0.160240 0.492543 0.177579
H17   H     H_    0.897981 0.728034 0.487018 0.124416
H18   H     H_    0.102031 0.228056 0.513068 0.124408
H19   H     H_    0.060537 0.824198 0.606495 0.111904
H20   H     H_    0.939470 0.324197 0.393543 0.111895
H21   H     H_    0.154167 0.892513 0.574875 0.134663
H22   H     H_    0.845841 0.392514 0.425141 0.134628
C57   C     C_R   0.876883 0.615721 0.072750 0.379329
C58   C     C_R   0.123108 0.115696 0.927207 0.379416
C59   C     C_R   0.930225 0.655284 0.062055 -0.267625
C60   C     C_R   0.069768 0.155260 0.937941 -0.267740
H23   H     H_    0.076137 0.796408 0.989657 0.113050
H24   H     H_    0.923850 0.296397 0.010377 0.113055
H25   H     H_    0.965297 0.654249 0.937055 0.155364
H26   H     H_    0.034688 0.154205 0.062922 0.155304
H27   H     H_    0.169061 0.864443 0.957537 0.127843
H28   H     H_    0.830927 0.364435 0.042476 0.127854
N5    N     N_R   0.872450 0.573788 0.920245 0.227035
O21   O     O_R   0.919376 0.535140 0.888744 -0.409692
O22   O     O_R   0.831054 0.582860 0.787976 -0.400718
N6    N     N_R   0.127527 0.073727 0.079610 0.227081
O23   O     O_R   0.080718 0.034943 0.110559 -0.409699
O24   O     O_R   0.168802 0.082827 0.212187 -0.400768
C61   C     C_R   0.680013 0.770570 0.994783 0.145403
C62   C     C_R   0.739340 0.765753 0.087570 -0.164690
C63   C     C_R   0.799811 0.778529 0.987025 -0.089709
C64   C     C_R   0.801554 0.795290 0.792966 -0.086826
C65   C     C_R   0.742805 0.799270 0.698848 -0.125681
C66   C     C_R   0.682169 0.786856 0.799047 -0.155089
H29   H     H_    0.738656 0.752344 0.237466 0.108777
H30   H     H_    0.845326 0.775599 0.059515 0.120464
H31   H     H_    0.848419 0.805256 0.715660 0.103616
H32   H     H_    0.744249 0.812058 0.548393 0.113461
H33   H     H_    0.636972 0.789736 0.724348 0.122448
C67   C     C_R   0.320003 0.270561 0.005337 0.145397
C68   C     C_R   0.260663 0.265729 0.912617 -0.164706
C69   C     C_R   0.200199 0.278500 0.013218 -0.089689
C70   C     C_R   0.198478 0.295272 0.207264 -0.086858
C71   C     C_R   0.257240 0.299265 0.301317 -0.125684
C72   C     C_R   0.317868 0.286855 0.201063 -0.155097
H34   H     H_    0.261331 0.252314 0.762731 0.108779
H35   H     H_    0.154674 0.275558 0.940782 0.120460
H36   H     H_    0.151619 0.305237 0.284612 0.103606
H37   H     H_    0.255812 0.312060 0.451764 0.113475
H38   H     H_    0.363077 0.289745 0.275713 0.122453

loop_
_geom_bond_atom_site_label_1
_geom_bond_atom_site_label_2
_geom_bond_distance
_ccdc_geom_bond_type
C70   H36   1.082072 S    
C64   C65   1.397545 A    
C21   C35   1.423945 A    
C49   C53   1.410673 A    
N5    O21   1.300975 A    
C22   C36   1.423953 A    
C58   N6    1.430796 S    
C10   C34   1.391586 A    
O4    C2    1.294008 A    
V1    O19   1.703873 S    
C12   C34   1.393625 A    
C61   C62   1.404443 A    
C19   C21   1.430612 A    
O9    V1    1.992172 S    
C45   H19   1.083189 S    
C51   H15   1.082779 S    
C6    C56   1.493747 S    
C38   C40   1.407813 A    
O3    C1    1.294006 A    
C71   H37   1.082118 S    
N5    O22   1.300034 A    
C40   C42   1.401339 A    
O12   V4    1.985689 S    
C54   N4    1.430096 S    
C56   C58   1.419109 A    
O17   V3    1.995590 S    
C17   C19   1.416255 A    
C29   H13   1.083616 S    
C37   C39   1.407803 A    
O7    C3    1.301375 A    
C65   H32   1.082116 S    
C24   C32   1.427243 A    
O5    C7    1.298886 A    
C63   H30   1.080950 S    
O7    V1    1.983619 S    
O6    C8    1.298888 A    
C50   C54   1.410677 A    
O8    V2    1.983614 S    
C1    C12   1.477392 S    
C30   H14   1.083616 S    
O3    V1    1.998481 S    
O14   V4    1.704966 S    
C2    C11   1.477386 S    
C60   H26   1.083731 S    
C59   H25   1.083725 S    
C39   C41   1.401331 A    
C32   H6    1.076754 S    
C2    O12   1.299725 A    
C49   H17   1.081839 S    
C14   H8    1.083922 S    
C57   C59   1.402808 A    
C42   H24   1.082574 S    
C48   H22   1.082903 S    
C14   C16   1.388459 A    
C47   H21   1.082899 S    
C52   H16   1.082791 S    
C43   C45   1.401542 A    
C24   C26   1.427381 A    
O11   V3    1.985689 S    
C27   C61   1.482102 S    
C25   C27   1.416532 A    
C9    C25   1.411509 A    
C68   H34   1.082944 S    
C11   C33   1.393620 A    
C18   C20   1.416249 A    
C57   N5    1.430821 S    
C17   H9    1.076100 S    
C22   C30   1.400949 A    
C68   C69   1.398246 A    
C13   H7    1.083921 S    
O8    C4    1.301382 A    
C67   C72   1.405483 A    
C41   C43   1.413903 A    
C19   C23   1.435070 A    
C1    O11   1.299727 A    
C16   C18   1.392768 A    
H2    C34   1.083739 S    
O15   V3    1.986226 S    
C9    H3    1.081680 S    
C51   C55   1.409027 A    
C23   C25   1.427380 A    
O4    V2    1.998466 S    
C66   H33   1.083334 S    
C69   H35   1.080974 S    
C43   N1    1.432157 S    
C72   H38   1.083359 S    
C50   H18   1.081817 S    
C3    C38   1.491061 S    
C11   C31   1.404087 A    
O10   V2    1.992159 S    
O1    V3    1.988865 S    
H1    C33   1.083736 S    
N2    N4    1.249992 D    
C20   C22   1.430608 A    
C15   C17   1.392766 A    
C7    C35   1.480432 S    
C8    C36   1.480435 S    
C42   C44   1.413896 A    
C45   C47   1.401203 A    
C50   C52   1.402239 A    
C10   C26   1.411519 A    
C44   C46   1.401545 A    
C27   C29   1.394908 A    
C63   C64   1.397463 A    
C46   H20   1.083184 S    
O16   C6    1.303929 A    
C23   C31   1.427244 A    
C13   C35   1.397709 A    
C65   C66   1.398312 A    
C14   C36   1.397711 A    
N6    O23   1.300911 A    
N6    O24   1.300039 A    
C37   C47   1.408246 A    
V2    O20   1.703886 S    
C44   N2    1.432153 S    
C15   H11   1.082726 S    
O16   V4    1.986229 S    
C5    C55   1.493790 S    
C10   H4    1.081685 S    
C40   H28   1.082909 S    
C13   C15   1.388463 A    
C46   C48   1.401210 A    
C69   C70   1.397474 A    
C21   C29   1.400948 A    
C28   C67   1.482109 S    
C58   C60   1.402799 A    
C26   C28   1.416533 A    
O18   V4    1.995606 S    
C67   C68   1.404459 A    
O5    V1    1.982501 S    
O17   C7    1.293872 A    
O6    V2    1.982507 S    
C70   C71   1.397560 A    
O10   C6    1.297423 A    
O18   C8    1.293870 A    
C41   H23   1.082578 S    
O2    V4    1.988877 S    
C4    C37   1.491058 S    
C53   C59   1.397986 A    
O15   C5    1.303959 A    
V3    O19   2.151649 S    
O13   V3    1.704980 S    
C31   H5    1.076756 S    
V4    O20   2.151630 S    
C54   C60   1.398010 A    
C61   C66   1.405471 A    
C64   H31   1.082062 S    
C9    C33   1.391586 A    
O9    C5    1.297414 A    
O13   V1    2.150573 S    
C28   C30   1.394914 A    
C62   H29   1.082945 S    
C16   H12   1.082729 S    
O14   V2    2.150591 S    
O2    C4    1.299409 A    
C18   H10   1.076100 S    
C71   C72   1.398327 A    
C53   N3    1.430092 S    
C55   C57   1.419163 A    
C20   C24   1.435082 A    
O1    C3    1.299415 A    
N1    N3    1.249992 D    
C38   C48   1.408243 A    
C12   C32   1.404094 A    
C49   C51   1.402252 A    
C39   H27   1.082908 S    
C52   C56   1.409011 A    
C62   C63   1.398231 A    
