data_mof_unit_64065.cif
_audit_creation_date              2013-03-05T16:28:11-0500
_audit_creation_method            fapswitch 2.2
_symmetry_space_group_name_H-M    P1
_symmetry_Int_Tables_number       1
_space_group_crystal_system       triclinic
_cell_length_a                    17.430426
_cell_length_b                    18.185613
_cell_length_c                    19.454495
_cell_angle_alpha                 90.080693
_cell_angle_beta                  92.183623
_cell_angle_gamma                 85.912256
_cell_volume                      6146.58407683

loop_
_atom_site_label
_atom_site_type_symbol
_atom_site_description
_atom_site_fract_x
_atom_site_fract_y
_atom_site_fract_z
_atom_type_partial_charge
O1    O     O_R   0.500030 0.438020 0.599820 -0.580682
O2    O     O_R   0.499970 0.561980 0.400180 -0.590634
O3    O     O_R   0.500000 0.561930 0.599810 -0.611192
O4    O     O_R   0.500000 0.438070 0.400190 -0.605118
C1    C     C_R   0.498542 0.500221 0.632462 0.827499
C2    C     C_R   0.501638 0.499998 0.367474 0.826644
O5    O     O_R   0.613620 0.430860 0.500010 -0.602285
O6    O     O_R   0.386380 0.569140 0.499990 -0.605003
O7    O     O_R   0.613580 0.554770 0.500010 -0.527311
O8    O     O_R   0.386420 0.445230 0.499990 -0.524851
C3    C     C_R   0.650252 0.490272 0.499803 0.874810
C4    C     C_R   0.349737 0.509746 0.500655 0.875617
Cu1   Cu    Cu3+1 0.500020 0.426640 0.500000 1.000646
Cu2   Cu    Cu3+1 0.499980 0.573360 0.500000 1.002006
C5    C     C_R   0.735297 0.484784 0.502640 -0.301988
C6    C     C_R   0.264647 0.515261 0.499537 -0.302615
C7    C     C_R   0.774276 0.548313 0.518975 0.649584
C8    C     C_R   0.225326 0.451012 0.487360 0.650298
C9    C     C_R   0.853716 0.544316 0.526132 -0.225572
C10   C     C_R   0.145810 0.454796 0.481774 -0.229407
C11   C     C_R   0.896510 0.477838 0.515327 -0.143156
C12   C     C_R   0.103173 0.521773 0.490654 -0.146578
C13   C     C_R   0.859418 0.414200 0.498601 0.670238
C14   C     C_R   0.140612 0.586089 0.503666 0.675235
C15   C     C_R   0.779113 0.417156 0.491315 -0.258296
C16   C     C_R   0.221023 0.583433 0.508952 -0.263487
C17   C     C_2   0.980510 0.475118 0.520143 0.532882
C18   C     C_2   0.019067 0.524653 0.486715 0.533914
H1    H     H_    0.117398 0.404891 0.470308 0.245009
H2    H     H_    0.882036 0.593619 0.540164 0.241610
C19   C     C_R   0.525139 0.561405 0.253637 -0.194003
C20   C     C_R   0.470161 0.563422 0.745956 -0.189989
C21   C     C_R   0.524430 0.558372 0.181722 0.684532
C22   C     C_R   0.471179 0.560512 0.817894 0.688290
C23   C     C_R   0.503646 0.494716 0.147271 0.047605
C24   C     C_R   0.497951 0.495642 0.852460 0.046901
C25   C     C_R   0.484708 0.433421 0.184453 -0.217781
C26   C     C_R   0.522726 0.433170 0.815406 -0.219703
H3    H     H_    0.469312 0.383791 0.158011 0.180242
H4    H     H_    0.542956 0.382716 0.841947 0.179234
C27   C     C_R   0.485422 0.435730 0.255887 -0.149825
C28   C     C_R   0.521644 0.435365 0.743981 -0.143086
H5    H     H_    0.470687 0.387213 0.283097 0.180561
H6    H     H_    0.541201 0.386065 0.716758 0.188235
C29   C     C_R   0.504203 0.499712 0.291575 -0.156995
C30   C     C_R   0.496586 0.500343 0.708253 -0.157098
C31   C     C_R   0.431066 0.493240 0.033870 -0.242103
C32   C     C_R   0.570824 0.491074 0.965826 -0.241659
C33   C     C_R   0.430727 0.493775 0.962044 0.677944
C34   C     C_R   0.571151 0.490866 0.037646 0.678695
C35   C     C_R   0.500219 0.493032 0.927883 -0.130630
C36   C     C_R   0.501622 0.492277 0.071828 -0.131717
C37   C     C_R   0.549226 0.274845 0.543848 0.147075
C38   C     C_R   0.452420 0.724918 0.454637 0.147253
C39   C     C_R   0.549740 0.197452 0.544517 -0.359608
C40   C     C_R   0.451828 0.802306 0.453886 -0.347862
H7    H     H_    0.588698 0.165649 0.579788 0.186767
H8    H     H_    0.414181 0.833979 0.417474 0.187072
C41   C     C_R   0.500338 0.160973 0.499860 0.052746
C42   C     C_R   0.499644 0.838935 0.499846 0.053317
C43   C     C_R   0.450833 0.203828 0.454966 0.592325
C44   C     C_R   0.547481 0.796346 0.546239 0.599615
C45   C     C_R   0.451467 0.281296 0.455510 -0.018175
C46   C     C_R   0.546757 0.718898 0.545932 -0.015414
N1    N     N_R   0.500010 0.316380 0.499980 -0.250802
N2    N     N_R   0.499990 0.683620 0.500020 -0.252145
C47   C     C_R   0.433203 0.043985 0.513785 0.686483
C48   C     C_R   0.566772 0.955805 0.485884 0.687407
C49   C     C_R   0.431944 0.966558 0.513789 -0.265809
C50   C     C_R   0.568013 0.033234 0.485732 -0.265555
C51   C     C_R   0.499061 0.921527 0.499774 -0.103396
C52   C     C_R   0.500902 0.078318 0.499815 -0.103757
F1    F     F_    0.736271 0.615055 0.528143 -0.615285
F2    F     F_    0.263017 0.383670 0.481060 -0.613267
C53   C     C_1   0.358597 0.495595 0.067830 0.423120
N3    N     N_1   0.300613 0.497474 0.095076 -0.193005
C54   C     C_1   0.643152 0.491114 0.931854 0.423382
N4    N     N_1   0.701021 0.491156 0.904596 -0.193040
F3    F     F_    0.362749 0.495189 0.925165 -0.603440
F4    F     F_    0.639139 0.489517 0.074504 -0.603951
C55   C     C_1   0.603024 0.308890 0.589485 0.340000
N5    N     N_1   0.646912 0.335601 0.626134 -0.280212
C56   C     C_1   0.401014 0.690507 0.406962 0.355064
N6    N     N_1   0.359407 0.663346 0.368443 -0.261190
F5    F     F_    0.403319 0.170359 0.409633 -0.610720
F6    F     F_    0.593302 0.830094 0.592815 -0.607561
C57   C     C_1   0.400834 0.322430 0.407106 0.508137
N7    N     N_1   0.359818 0.354734 0.367819 -0.225445
C58   C     C_1   0.594629 0.678058 0.596607 0.526509
N8    N     N_1   0.633019 0.645931 0.637944 -0.207459
F7    F     F_    0.368451 0.086116 0.528916 -0.584383
F8    F     F_    0.631565 0.913588 0.471031 -0.583386
C59   C     C_1   0.361610 0.934188 0.530410 0.431311
N9    N     N_1   0.305309 0.908197 0.543720 -0.174568
C60   C     C_1   0.638321 0.065491 0.468840 0.426152
N10   N     N_1   0.694609 0.091378 0.455314 -0.180879
C61   C     C_1   0.256086 0.650977 0.526746 0.458480
N11   N     N_1   0.283789 0.705161 0.541203 -0.226004
C62   C     C_1   0.744342 0.350710 0.469453 0.456534
N12   N     N_1   0.716823 0.297430 0.451772 -0.236365
F9    F     F_    0.980768 0.578859 0.447947 -0.599858
F10   F     F_    0.018465 0.420953 0.559168 -0.602739
F11   F     F_    0.901700 0.349867 0.487108 -0.580007
F12   F     F_    0.098632 0.651012 0.513275 -0.575983
C63   C     C_1   0.549768 0.627545 0.286513 0.416718
N13   N     N_1   0.569622 0.680537 0.312653 -0.193897
C64   C     C_1   0.439572 0.630845 0.712611 0.399731
N14   N     N_1   0.415020 0.684844 0.686005 -0.222516
F13   F     F_    0.543388 0.617618 0.145033 -0.607044
F14   F     F_    0.446651 0.620936 0.854456 -0.605938

loop_
_geom_bond_atom_site_label_1
_geom_bond_atom_site_label_2
_geom_bond_distance
_ccdc_geom_bond_type
C57   N7    1.157637 T    
C45   N1    1.375166 A    
C59   N9    1.157300 T    
C2    C29   1.478940 S    
C39   C41   1.399707 A    
C27   H5    1.081044 S    
C60   N10   1.157310 T    
O7    Cu2   1.984845 S    
C55   N5    1.157570 T    
C31   C33   1.397169 A    
Cu1   N1    2.005159 S    
C54   N4    1.157368 T    
O5    C3    1.293696 A    
C44   F6    1.359692 S    
O1    C1    1.295583 A    
C37   C55   1.438294 S    
C9    C11   1.394565 A    
C14   C16   1.398847 A    
C26   C28   1.389536 A    
C49   C59   1.444879 S    
C43   F5    1.359731 S    
C5    C15   1.422173 A    
C42   C44   1.400811 A    
C47   C52   1.409281 A    
C28   C30   1.405629 A    
O4    Cu1   1.953122 S    
C49   C51   1.414448 A    
C44   C46   1.409409 A    
C48   F8    1.359783 S    
C3    C5    1.477534 S    
C18   F9    1.362391 S    
C15   C62   1.446261 S    
C32   C35   1.409007 A    
C13   F11   1.360442 S    
C56   N6    1.157633 T    
C33   C35   1.402857 A    
C20   C64   1.446098 S    
C34   C36   1.403051 A    
C64   N14   1.157599 T    
C19   C21   1.399690 A    
C37   N1    1.374206 A    
C8    C10   1.382932 A    
C41   C52   1.502466 S    
C45   C57   1.438674 S    
C32   C34   1.397033 A    
C11   C17   1.460895 S    
C8    F2    1.355507 S    
C12   C18   1.462279 S    
Cu1   Cu2   2.668144 S    
C7    F1    1.355573 S    
C19   C63   1.445884 S    
O2    C2    1.292657 A    
C28   H6    1.081357 S    
C46   C58   1.439028 S    
C38   C56   1.438644 S    
C61   N11   1.157552 T    
C10   H1    1.083390 S    
C37   C39   1.406907 A    
C6    C16   1.422766 A    
C38   C40   1.406743 A    
C41   C43   1.401201 A    
C4    C6    1.478725 S    
O4    C2    1.297005 A    
C7    C9    1.383100 A    
C42   C51   1.501306 S    
C40   C42   1.399459 A    
C14   F12   1.360495 S    
C20   C22   1.399979 A    
C32   C54   1.445617 S    
C53   N3    1.157355 T    
C62   N12   1.157567 T    
O6    C4    1.293747 A    
C47   F7    1.359767 S    
Cu2   N2    2.005156 S    
O7    C3    1.295242 A    
C24   C35   1.467088 S    
O8    C4    1.295837 A    
C48   C50   1.409809 A    
C10   C12   1.394950 A    
C39   H7    1.084454 S    
C22   F14   1.360221 S    
C12   C14   1.397636 A    
C21   F13   1.360294 S    
C17   C18   1.344389 D    
C1    C30   1.476170 S    
C5    C7    1.411308 A    
O6    Cu2   1.987036 S    
C23   C25   1.395599 A    
C20   C30   1.419191 A    
C43   C45   1.409667 A    
O3    C1    1.292603 A    
O8    Cu1   1.984843 S    
C34   F4    1.360256 S    
C31   C36   1.409207 A    
C38   N2    1.374176 A    
O3    Cu2   1.953122 S    
C63   N13   1.157523 T    
C17   F10   1.362082 S    
C11   C13   1.397427 A    
C50   C60   1.444878 S    
C31   C53   1.445582 S    
C25   H3    1.083487 S    
C26   H4    1.083573 S    
C48   C51   1.408617 A    
C24   C26   1.395814 A    
C21   C23   1.399873 A    
C40   H8    1.084442 S    
C22   C24   1.400537 A    
C13   C15   1.398731 A    
C25   C27   1.389889 A    
O2    Cu2   1.952651 S    
C16   C61   1.446324 S    
C33   F3    1.360253 S    
O5    Cu1   1.987035 S    
O1    Cu1   1.952649 S    
C6    C8    1.411403 A    
C19   C29   1.420517 A    
C23   C36   1.467467 S    
C27   C29   1.406320 A    
C50   C52   1.415168 A    
C47   C49   1.409794 A    
C58   N8    1.157760 T    
C9    H2    1.083606 S    
C46   N2    1.375261 A    
