data_mof_unit_23748.cif
_audit_creation_date              2012-12-11T15:08:41-0500
_audit_creation_method            fapswitch 2.2
_symmetry_space_group_name_H-M    P1
_symmetry_Int_Tables_number       1
_space_group_crystal_system       triclinic
_cell_length_a                    25.975371
_cell_length_b                    27.618087
_cell_length_c                    8.357484
_cell_angle_alpha                 89.999932
_cell_angle_beta                  96.117955
_cell_angle_gamma                 90.017992
_cell_volume                      5961.42838536

loop_
_atom_site_label
_atom_site_type_symbol
_atom_type_description
_atom_site_fract_x
_atom_site_fract_y
_atom_site_fract_z
_atom_type_partial_charge
Ba1   Ba    Ba6+2 0.999910 0.465960 0.844870 1.631413
Ba2   Ba    Ba6+2 0.999910 0.534040 0.344870 1.644060
Ba3   Ba    Ba6+2 0.499910 0.965960 0.844870 1.631427
Ba4   Ba    Ba6+2 0.499910 0.034040 0.344870 1.644053
C1    C     C_3   0.042053 0.240758 0.625727 -0.370128
C2    C     C_R   0.844818 0.641852 0.599368 -0.139876
C3    C     C_3   0.517218 0.209530 0.107046 0.352684
C4    C     C_R   0.914249 0.383250 0.298253 -0.288008
C5    C     C_R   0.914042 0.616535 0.798786 -0.287630
C6    C     C_R   0.414255 0.883245 0.298251 -0.288187
C7    C     C_R   0.414032 0.116528 0.798801 -0.287772
C8    C     C_3   0.748260 0.589349 0.176928 0.272160
C9    C     C_3   0.723846 0.573753 0.326284 -0.294441
C10   C     C_3   0.768254 0.417688 0.648353 0.274527
C11   C     C_3   0.733351 0.434094 0.772859 -0.302513
C12   C     C_3   0.248247 0.089324 0.176982 0.272137
C13   C     C_R   0.344690 0.858178 0.099452 -0.129758
C14   C     C_3   0.223847 0.073726 0.326360 -0.294417
C15   C     C_3   0.268257 0.917688 0.648359 0.274532
C16   C     C_3   0.233352 0.934096 0.772856 -0.302506
C17   C     C_R   0.344812 0.141847 0.599373 -0.139802
C18   C     C_R   0.833599 0.318204 0.196541 -0.007088
C19   C     C_R   0.833680 0.681793 0.696447 -0.017701
C20   C     C_R   0.333602 0.818202 0.196545 -0.007057
C21   C     C_R   0.333670 0.181786 0.696461 -0.017721
C22   C     C_R   0.862672 0.312821 0.348480 -0.132232
C23   C     C_R   0.862782 0.687205 0.848353 -0.133962
C24   C     C_R   0.362674 0.812819 0.348484 -0.132298
C25   C     C_3   0.042031 0.759347 0.126356 -0.367047
C26   C     C_R   0.362765 0.187192 0.848378 -0.133997
C27   C     C_R   0.902125 0.345818 0.399990 0.005914
C28   C     C_R   0.902192 0.654188 0.899986 0.005332
C29   C     C_R   0.402130 0.845814 0.399994 0.005838
C30   C     C_R   0.402175 0.154174 0.900012 0.005407
C31   C     C_R   0.795649 0.233549 0.177700 -0.080214
C32   C     C_R   0.795497 0.766384 0.678911 -0.078877
C33   C     C_R   0.295647 0.733548 0.177716 -0.080181
C34   C     C_R   0.295494 0.266379 0.678944 -0.078857
C35   C     C_R   0.255292 0.701016 0.129890 -0.074593
C36   C     C_3   0.542116 0.740800 0.626065 -0.370211
C37   C     C_R   0.255134 0.298887 0.631138 -0.075390
C38   C     C_R   0.755294 0.201016 0.129880 -0.074570
C39   C     C_R   0.755132 0.798889 0.631112 -0.075387
C40   C     C_R   0.208516 0.717228 0.046201 0.061753
C41   C     C_R   0.208569 0.282748 0.545876 0.062217
C42   C     C_R   0.708516 0.217228 0.046208 0.061737
C43   C     C_R   0.708564 0.782743 0.545884 0.062202
C44   C     C_R   0.203461 0.767073 0.012215 -0.079021
C45   C     C_R   0.203797 0.232979 0.510023 -0.080110
C46   C     C_R   0.703457 0.267074 0.012237 -0.079053
C47   C     C_3   0.542081 0.259292 0.126344 -0.367152
C48   C     C_R   0.703793 0.732974 0.510058 -0.080127
C49   C     C_R   0.743771 0.299595 0.060416 -0.075544
C50   C     C_R   0.744151 0.700486 0.558004 -0.080725
C51   C     C_R   0.243776 0.799593 0.060399 -0.075565
C52   C     C_R   0.244149 0.200488 0.557976 -0.080722
C53   C     C_3   0.981662 0.290598 0.081715 0.352573
C54   C     C_3   0.981589 0.709305 0.581341 0.353448
C55   C     C_3   0.481733 0.790520 0.082250 0.352397
C56   C     C_3   0.481651 0.209350 0.581807 0.353206
C57   C     C_R   0.790598 0.283389 0.143549 0.060112
C58   C     C_R   0.884717 0.390888 0.150945 0.053184
C59   C     C_R   0.790708 0.716620 0.643136 0.061816
C60   C     C_R   0.290600 0.783388 0.143551 0.060129
C61   C     C_R   0.290703 0.216616 0.643142 0.061834
C62   C     C_R   0.136307 0.687876 0.841213 -0.135796
C63   C     C_R   0.136337 0.312164 0.340991 -0.135216
C64   C     C_R   0.636308 0.187875 0.841221 -0.135721
C65   C     C_R   0.636320 0.812150 0.341019 -0.135180
C66   C     C_R   0.097075 0.654656 0.789359 0.011135
C67   C     C_R   0.097092 0.345360 0.289266 0.011097
C68   C     C_R   0.597079 0.154653 0.789365 0.011192
C69   C     C_R   0.884640 0.609020 0.651236 0.058643
C70   C     C_R   0.597072 0.845345 0.289295 0.010995
C71   C     C_R   0.114804 0.609491 0.037986 0.063574
C72   C     C_R   0.114812 0.390489 0.537978 0.063379
C73   C     C_R   0.614807 0.109490 0.037990 0.063531
C74   C     C_R   0.614806 0.890485 0.537985 0.063348
C75   C     C_R   0.154628 0.642346 0.089694 -0.126746
C76   C     C_R   0.154617 0.357617 0.589665 -0.127092
C77   C     C_R   0.654629 0.142346 0.089703 -0.126837
C78   C     C_R   0.654611 0.857613 0.589670 -0.127168
C79   C     C_R   0.165521 0.682431 0.992955 -0.015424
C80   C     C_R   0.384720 0.890886 0.150948 0.053224
C81   C     C_R   0.165544 0.317556 0.492790 -0.015181
C82   C     C_R   0.665522 0.182430 0.992963 -0.015450
C83   C     C_R   0.665534 0.817548 0.492805 -0.015158
C84   C     C_R   0.085310 0.616951 0.890585 -0.286548
C85   C     C_R   0.085329 0.383039 0.390557 -0.286519
C86   C     C_R   0.585317 0.116946 0.890584 -0.286390
C87   C     C_R   0.585318 0.883030 0.390574 -0.286366
C88   C     C_3   0.956474 0.240981 0.062294 -0.368686
C89   C     C_3   0.956399 0.758914 0.562253 -0.367842
C90   C     C_3   0.456515 0.740929 0.062232 -0.368697
C91   C     C_R   0.384635 0.109016 0.651243 0.058687
C92   C     C_3   0.456467 0.258960 0.562610 -0.367785
C93   C     C_3   0.147575 0.469478 0.221450 0.314360
C94   C     C_3   0.147575 0.530547 0.721439 0.314307
C95   C     C_3   0.647565 0.969473 0.221439 0.314367
C96   C     C_3   0.647579 0.030544 0.721443 0.314311
C97   C     C_3   0.196488 0.438835 0.242345 -0.395357
C98   C     C_3   0.196486 0.561222 0.742364 -0.395390
C99   C     C_3   0.696476 0.938826 0.242351 -0.395354
C100  C     C_3   0.696490 0.061219 0.742350 -0.395370
C101  C     C_3   0.852246 0.532389 0.982393 0.416811
C102  C     C_R   0.844688 0.358179 0.099446 -0.129859
C103  C     C_3   0.851730 0.469183 0.464861 0.386569
C104  C     C_3   0.352240 0.032388 0.982410 0.416803
C105  C     C_3   0.351735 0.969180 0.464867 0.386584
C106  C     C_3   0.805811 0.564898 0.000250 0.309463
C107  C     C_3   0.801551 0.441489 0.413122 0.288102
C108  C     C_3   0.305803 0.064894 0.000293 0.309488
C109  C     C_3   0.301557 0.941483 0.413128 0.288084
C110  C     C_3   0.017209 0.290523 0.606832 0.355104
C111  C     C_3   0.017151 0.709601 0.106540 0.352501
C112  C     C_3   0.517267 0.790565 0.607288 0.355379
H1    H     H_    0.041244 0.316222 0.685237 0.089462
H2    H     H_    0.187543 0.598283 0.781270 0.066003
H3    H     H_    0.481950 0.198201 0.709650 -0.058588
H4    H     H_    0.955185 0.228848 0.935223 0.147273
H5    H     H_    0.955267 0.771196 0.435377 0.147188
H6    H     H_    0.454810 0.729129 0.934759 0.147373
H7    H     H_    0.455185 0.271147 0.435603 0.147098
H8    H     H_    0.978851 0.214364 0.141395 0.108598
H9    H     H_    0.978679 0.785467 0.641932 0.109012
H10   H     H_    0.479122 0.714129 0.139911 0.108909
H11   H     H_    0.478844 0.285557 0.641841 0.109089
H12   H     H_    0.131682 0.472413 0.338608 0.010876
H13   H     H_    0.687539 0.901765 0.281316 0.066045
H14   H     H_    0.131668 0.527609 0.838577 0.010892
H15   H     H_    0.631666 0.972407 0.338586 0.010861
H16   H     H_    0.631678 0.027606 0.838591 0.010882
H17   H     H_    0.119062 0.451577 0.131991 0.064725
H18   H     H_    0.119071 0.548427 0.631942 0.064677
H19   H     H_    0.619056 0.951576 0.131961 0.064786
H20   H     H_    0.619072 0.048426 0.631960 0.064675
H21   H     H_    0.717579 0.588220 0.072993 0.014851
H22   H     H_    0.762805 0.627096 0.194402 0.042923
H23   H     H_    0.753005 0.574806 0.433435 0.136944
H24   H     H_    0.687549 0.098279 0.781274 0.066002
H25   H     H_    0.691406 0.598437 0.346243 0.039116
H26   H     H_    0.708641 0.536267 0.310551 0.146045
H27   H     H_    0.808583 0.416135 0.707728 0.065626
H28   H     H_    0.756049 0.380847 0.605668 0.038247
H29   H     H_    0.692292 0.433905 0.719769 0.113845
H30   H     H_    0.737693 0.409398 0.877969 0.047420
H31   H     H_    0.744104 0.471278 0.814366 0.140848
H32   H     H_    0.217561 0.088185 0.073064 0.014880
H33   H     H_    0.262781 0.127075 0.194434 0.042894
H34   H     H_    0.253010 0.074793 0.433498 0.136934
H35   H     H_    0.213617 0.436429 0.126362 0.125324
H36   H     H_    0.191399 0.098399 0.346321 0.039119
H37   H     H_    0.208656 0.036235 0.310654 0.146084
H38   H     H_    0.308585 0.916137 0.707738 0.065607
H39   H     H_    0.256053 0.880846 0.605683 0.038239
H40   H     H_    0.192294 0.933903 0.719766 0.113834
H41   H     H_    0.237696 0.909406 0.877977 0.047426
H42   H     H_    0.244101 0.971283 0.814343 0.140845
H43   H     H_    0.213638 0.563617 0.626414 0.125301
H44   H     H_    0.713615 0.936427 0.126383 0.125331
H45   H     H_    0.713634 0.063618 0.626388 0.125307
H46   H     H_    0.861566 0.533505 0.856452 -0.126681
H47   H     H_    0.874235 0.472230 0.360086 -0.073679
H48   H     H_    0.361555 0.033508 0.856464 -0.126686
H49   H     H_    0.041289 0.683748 0.184024 0.088955
H50   H     H_    0.374241 0.972226 0.360095 -0.073681
H51   H     H_    0.885440 0.546296 0.064173 0.042925
H52   H     H_    0.874895 0.449039 0.562310 -0.001454
H53   H     H_    0.385435 0.046294 0.064184 0.042886
H54   H     H_    0.374899 0.949038 0.562322 -0.001457
H55   H     H_    0.774282 0.554964 0.904993 -0.008689
H56   H     H_    0.786039 0.454596 0.291834 0.082750
H57   H     H_    0.274275 0.054964 0.905032 -0.008707
H58   H     H_    0.286047 0.954587 0.291833 0.082753
H59   H     H_    0.817110 0.603214 0.983201 -0.067140
H60   H     H_    0.541227 0.816228 0.686039 0.089897
H61   H     H_    0.809401 0.402200 0.399796 -0.102752
H62   H     H_    0.317100 0.103211 0.983272 -0.067169
H63   H     H_    0.309409 0.902194 0.399813 -0.102748
H64   H     H_    0.016870 0.301664 0.478971 -0.059359
H65   H     H_    0.016618 0.698749 0.978324 -0.058955
H66   H     H_    0.517043 0.801785 0.479548 -0.059430
H67   H     H_    0.516858 0.198487 0.979078 -0.058919
H68   H     H_    0.082147 0.242355 0.591306 0.071166
H69   H     H_    0.081965 0.757914 0.090446 0.071369
H70   H     H_    0.582260 0.742440 0.592074 0.071210
H71   H     H_    0.541253 0.183784 0.185212 0.089600
H72   H     H_    0.582173 0.257733 0.091880 0.071572
H73   H     H_    0.043424 0.228597 0.752783 0.146363
H74   H     H_    0.043853 0.771093 0.254009 0.147510
H75   H     H_    0.543359 0.728554 0.752999 0.146449
H76   H     H_    0.543468 0.271357 0.253523 0.147476
H77   H     H_    0.916329 0.242808 0.096173 0.071462
H78   H     H_    0.916192 0.757000 0.595602 0.072082
H79   H     H_    0.416535 0.742625 0.097467 0.071258
H80   H     H_    0.416320 0.257095 0.596462 0.072026
H81   H     H_    0.177208 0.636304 0.204419 0.083399
H82   H     H_    0.225141 0.455331 0.334622 0.124050
H83   H     H_    0.177152 0.363642 0.704474 0.083347
H84   H     H_    0.677208 0.136305 0.204430 0.083427
H85   H     H_    0.677151 0.863642 0.704469 0.083358
H86   H     H_    0.261204 0.662910 0.155993 0.060109
H87   H     H_    0.260903 0.336932 0.658549 0.060056
H88   H     H_    0.761209 0.162910 0.155971 0.060113
H89   H     H_    0.760900 0.836935 0.658502 0.060054
H90   H     H_    0.831236 0.219470 0.239669 0.061530
H91   H     H_    0.830900 0.780456 0.742120 0.061612
H92   H     H_    0.331231 0.719468 0.239700 0.061516
H93   H     H_    0.225124 0.544759 0.834721 0.124025
H94   H     H_    0.330895 0.280446 0.742180 0.061627
H95   H     H_    0.822139 0.364203 0.984715 0.067851
H96   H     H_    0.822600 0.636056 0.483991 0.086503
H97   H     H_    0.322140 0.864204 0.984723 0.067823
H98   H     H_    0.322599 0.136054 0.483988 0.086495
H99   H     H_    0.167868 0.781184 0.950377 0.061261
H100  H     H_    0.168400 0.218881 0.446849 0.059447
H101  H     H_    0.667861 0.281184 0.950416 0.061282
H102  H     H_    0.668394 0.718871 0.446911 0.059437
H103  H     H_    0.737763 0.337688 0.035441 0.056702
H104  H     H_    0.725123 0.955315 0.334660 0.124037
H105  H     H_    0.738388 0.662458 0.531156 0.050858
H106  H     H_    0.237770 0.837686 0.035412 0.056694
H107  H     H_    0.238386 0.162461 0.531104 0.050851
H108  H     H_    0.145216 0.716701 0.760812 0.076371
H109  H     H_    0.145256 0.283404 0.260388 0.074943
H110  H     H_    0.645217 0.216700 0.760822 0.076365
H111  H     H_    0.645237 0.783388 0.260419 0.074889
H112  H     H_    0.853551 0.284149 0.429173 0.073927
H113  H     H_    0.853720 0.715898 0.929013 0.075054
H114  H     H_    0.353553 0.784147 0.429177 0.073932
H115  H     H_    0.725133 0.044755 0.834687 0.124016
H116  H     H_    0.353702 0.215884 0.929041 0.075108
H117  H     H_    0.055330 0.591259 0.849411 0.066356
H118  H     H_    0.055353 0.408721 0.349419 0.066452
H119  H     H_    0.555338 0.091253 0.849405 0.066319
H120  H     H_    0.555345 0.908715 0.349431 0.066416
H121  H     H_    0.019385 0.214282 0.546779 0.109092
H122  H     H_    0.019100 0.786058 0.049024 0.109594
H123  H     H_    0.519532 0.714368 0.546723 0.109051
H124  H     H_    0.519417 0.285822 0.047622 0.109256
H125  H     H_    0.944524 0.408676 0.339162 0.071135
H126  H     H_    0.187558 0.401776 0.281347 0.066029
H127  H     H_    0.944067 0.590921 0.840101 0.067897
H128  H     H_    0.444531 0.908670 0.339158 0.071170
H129  H     H_    0.444060 0.090916 0.840111 0.067931
H130  H     H_    0.957869 0.316459 0.003312 0.091633
H131  H     H_    0.957879 0.683498 0.502428 0.089788
H132  H     H_    0.457841 0.816499 0.004616 0.090958
H133  H     H_    0.457864 0.183508 0.503254 0.089348
H134  H     H_    0.981978 0.301687 0.209615 -0.058036
H135  H     H_    0.981769 0.698075 0.709068 -0.058635
H136  H     H_    0.482236 0.801392 0.210401 -0.058070
O1    O     O_2   0.898940 0.431940 0.867860 -0.463921
O2    O     O_3   0.032144 0.711832 0.536236 -0.599567
O3    O     O_3   0.532137 0.788191 0.035875 -0.599977
O4    O     O_3   0.532148 0.211824 0.536216 -0.599525
O5    O     O_3   0.058810 0.523750 0.066650 -0.494878
O6    O     O_3   0.058810 0.476250 0.566650 -0.494980
O7    O     O_3   0.558810 0.023750 0.066650 -0.494883
O8    O     O_3   0.558810 0.976250 0.566650 -0.494979
O9    O     O_3   0.941140 0.476130 0.123050 -0.492550
O10   O     O_3   0.941140 0.523870 0.623050 -0.492996
O11   O     O_3   0.441140 0.976130 0.123050 -0.492553
O12   O     O_2   0.898940 0.568060 0.367860 -0.441527
O13   O     O_3   0.441140 0.023870 0.623050 -0.492996
O14   O     O_3   0.982430 0.389880 0.635700 -0.488038
O15   O     O_3   0.982430 0.610120 0.135700 -0.493443
O16   O     O_3   0.482430 0.889880 0.635700 -0.488090
O17   O     O_3   0.482430 0.110120 0.135700 -0.493552
O18   O     O_2   0.897645 0.349868 0.732483 -0.497193
O19   O     O_2   0.897602 0.650043 0.232342 -0.482988
O20   O     O_2   0.397655 0.849858 0.732508 -0.497010
O21   O     O_2   0.397617 0.150065 0.232411 -0.482897
O22   O     O_3   0.839039 0.484945 0.020327 -0.645437
O23   O     O_2   0.398940 0.931940 0.867860 -0.463910
O24   O     O_3   0.839083 0.515050 0.519520 -0.606900
O25   O     O_3   0.339037 0.984942 0.020331 -0.645443
O26   O     O_3   0.339085 0.015048 0.519516 -0.606901
O27   O     O_3   0.966753 0.288368 0.652892 -0.598209
O28   O     O_3   0.966782 0.711616 0.153362 -0.599631
O29   O     O_3   0.466757 0.788360 0.652874 -0.598235
O30   O     O_3   0.466770 0.211630 0.153179 -0.599709
O31   O     O_2   0.100770 0.431440 0.821660 -0.459575
O32   O     O_2   0.100770 0.568560 0.321660 -0.459780
O33   O     O_2   0.600770 0.931440 0.821660 -0.459572
O34   O     O_2   0.398940 0.068060 0.367860 -0.441544
O35   O     O_2   0.600770 0.068560 0.321660 -0.459781
O36   O     O_3   0.017130 0.389790 0.053700 -0.489590
O37   O     O_3   0.017130 0.610210 0.553700 -0.493174
O38   O     O_3   0.517130 0.889790 0.053700 -0.489479
O39   O     O_3   0.517130 0.110210 0.553700 -0.493119
O40   O     O_2   0.101668 0.349385 0.956902 -0.485716
O41   O     O_2   0.101659 0.650670 0.456932 -0.485159
O42   O     O_2   0.601682 0.849406 0.956975 -0.485803
O43   O     O_2   0.601670 0.150660 0.456960 -0.485315
O44   O     O_3   0.789654 0.557877 0.154723 -0.616081
O45   O     O_3   0.160630 0.484603 0.668472 -0.635386
O46   O     O_3   0.763544 0.450704 0.518673 -0.625922
O47   O     O_3   0.289647 0.057863 0.154761 -0.616095
O48   O     O_3   0.263547 0.950700 0.518669 -0.625932
O49   O     O_3   0.160625 0.515423 0.168437 -0.635436
O50   O     O_3   0.660631 0.984602 0.668465 -0.635380
O51   O     O_3   0.660623 0.015420 0.168448 -0.635426
O52   O     O_3   0.032151 0.288177 0.036065 -0.600072
P1    P     P_3+3 0.893960 0.447890 0.040050 0.980729
P2    P     P_3+3 0.063042 0.656615 0.584278 0.942288
P3    P     P_3+3 0.563037 0.843405 0.084217 0.942346
P4    P     P_3+3 0.563047 0.156610 0.584287 0.942159
P5    P     P_3+3 0.936215 0.656244 0.105091 0.941464
P6    P     P_3+3 0.936193 0.343753 0.605020 0.938250
P7    P     P_3+3 0.436211 0.156243 0.105092 0.941577
P8    P     P_3+3 0.436198 0.843748 0.605028 0.938409
P9    P     P_3+3 0.893960 0.552110 0.540050 1.021177
P10   P     P_3+3 0.393960 0.947890 0.040050 0.980768
P11   P     P_3+3 0.393960 0.052110 0.540050 1.021202
P12   P     P_3+3 0.105800 0.447360 0.649510 0.982943
P13   P     P_3+3 0.105800 0.552640 0.149510 0.982633
P14   P     P_3+3 0.605800 0.947360 0.649510 0.982921
P15   P     P_3+3 0.605800 0.052640 0.149510 0.982597
P16   P     P_3+3 0.063043 0.343407 0.084215 0.942455

loop_
_geom_bond_atom_site_label_1
_geom_bond_atom_site_label_2
_ccdc_geom_bond_type
C95   C99   S    
C101  C106  S    
C15   H39   S    
C15   C16   S    
C105  O26   S    
C104  H48   S    
C12   O47   S    
O27   P6    S    
C101  O22   S    
C9    H23   S    
Ba2   O37   S    
C54   H131  S    
C89   H5    S    
C36   H123  S    
O31   P12   D    
O6    P12   S    
C50   C59   A    
C78   C83   A    
C96   C100  S    
C107  H56   S    
C31   C38   A    
C66   P2    S    
C103  H52   S    
C23   H113  S    
Ba2   O12   S    
C12   H33   S    
C111  H49   S    
O11   P10   S    
C80   P10   S    
C77   C82   A    
O3    P3    S    
C106  H55   S    
O43   P4    D    
Ba4   O8    S    
C16   H42   S    
C112  O29   S    
C14   H36   S    
C71   P13   S    
C27   P6    S    
C10   H28   S    
C63   C81   A    
C46   C49   A    
C55   O3    S    
C7    H129  S    
Ba3   P10   S    
O28   P5    S    
C94   C98   S    
C97   H35   S    
C100  H24   S    
C92   H11   S    
C74   C78   A    
C64   C68   A    
C65   C70   A    
C9    H26   S    
O16   P8    S    
C90   H6    S    
O18   P6    D    
C24   C29   A    
C109  O48   S    
C110  H64   S    
O1    P1    D    
C33   H92   S    
C24   H114  S    
C2    C69   A    
C108  H62   S    
Ba1   O6    S    
O33   P14   D    
Ba3   O16   S    
C50   H105  S    
O5    P13   S    
C96   H16   S    
C43   C48   A    
C58   C102  A    
O7    P15   S    
C3    H67   S    
Ba4   O39   S    
C1    H73   S    
C62   C66   A    
Ba1   P1    S    
Ba3   O7    S    
O49   P13   S    
C86   H119  S    
C54   O2    S    
C64   H110  S    
C105  H50   S    
C68   P4    S    
C91   P11   S    
C35   H86   S    
O39   P4    S    
C107  H61   S    
C37   C41   A    
O24   P9    S    
C14   H34   S    
C71   C75   A    
Ba1   O36   S    
C40   C44   A    
C4    C58   A    
C111  O28   S    
C11   H31   S    
C53   C88   S    
C38   H88   S    
C89   H78   S    
O29   P8    S    
C93   H17   S    
C40   C79   S    
O30   P7    S    
C77   H84   S    
C84   H117  S    
O50   P14   S    
C3    H71   S    
C36   H70   S    
C56   O4    S    
C56   H3    S    
C47   H72   S    
C49   C57   A    
C112  H66   S    
C47   H124  S    
C53   O52   S    
C20   C24   A    
O21   P7    D    
C1    H68   S    
O15   P5    S    
C99   H104  S    
C58   P1    S    
C25   C111  S    
C44   H99   S    
O9    P1    S    
C54   H135  S    
C93   H12   S    
Ba4   O35   S    
C26   C30   A    
C34   C37   A    
Ba1   O31   S    
C100  H115  S    
Ba2   O32   S    
C17   C91   A    
C76   H83   S    
C106  O44   S    
C43   C83   S    
C68   C86   A    
C31   H90   S    
C34   C61   A    
C107  O46   S    
C31   C57   A    
C34   H94   S    
C97   H126  S    
C3    O30   S    
C55   H132  S    
C110  O27   S    
C51   H106  S    
C103  H47   S    
C56   H133  S    
C8    H22   S    
Ba3   Ba4   S    
C5    H127  S    
C25   H122  S    
Ba4   O17   S    
C17   C21   A    
C92   H7    S    
C4    C27   A    
C103  C107  S    
C72   C76   A    
C53   H130  S    
C32   C39   A    
C52   H107  S    
C98   H93   S    
Ba3   O23   S    
C35   C40   A    
C46   H101  S    
C41   C81   S    
C10   O46   S    
C13   C80   A    
C88   H4    S    
C18   C57   S    
O41   P2    D    
C39   C43   A    
C4    H125  S    
C102  H95   S    
C25   H69   S    
O2    P2    S    
C6    C29   A    
O14   P6    S    
C110  H1    S    
Ba1   O10   S    
Ba2   O5    S    
C8    C9    S    
Ba1   P12   S    
C10   C11   S    
Ba3   O38   S    
C94   O45   S    
C104  O25   S    
C109  H58   S    
C49   H103  S    
C44   C51   A    
C1    H121  S    
Ba3   O13   S    
C54   C89   S    
C88   H8    S    
C99   H44   S    
C63   H109  S    
C15   O48   S    
C38   C42   A    
C5    C28   A    
C62   C79   A    
Ba1   O14   S    
C22   H112  S    
C55   C90   S    
C9    H25   S    
C65   C83   A    
O32   P13   D    
C19   C59   S    
C20   C60   S    
Ba4   P11   S    
Ba1   O1    S    
Ba1   O5    S    
O23   P10   D    
C73   C86   A    
C90   H79   S    
C108  O47   S    
O35   P15   D    
C6    H128  S    
O36   P16   S    
C88   H77   S    
C100  H45   S    
O42   P3    D    
O37   P2    S    
C17   H98   S    
Ba4   O34   S    
C104  C108  S    
O13   P11   S    
C70   C87   A    
C76   C81   A    
O12   P9    D    
C11   H30   S    
C72   P12   S    
C41   C45   A    
O34   P11   D    
C94   H14   S    
Ba2   P9    S    
C95   H19   S    
C103  O24   S    
C99   H13   S    
C56   C92   S    
Ba4   O7    S    
C16   H41   S    
C33   C60   A    
C21   C26   A    
Ba3   O33   S    
C94   H18   S    
C10   H27   S    
C23   C28   A    
O45   P12   S    
C98   H43   S    
C78   H85   S    
O4    P4    S    
C48   H102  S    
C3    C47   S    
O25   P10   S    
C33   C35   A    
C75   C79   A    
C36   H75   S    
Ba2   O15   S    
C63   C67   A    
C89   H9    S    
C92   H80   S    
C73   C77   A    
C18   C22   A    
C15   H38   S    
C25   H74   S    
C72   C85   A    
C53   H134  S    
O40   P16   D    
C52   C61   A    
O22   P1    S    
C8    O44   S    
C75   H81   S    
C1    C110  S    
C39   H89   S    
C64   C82   A    
C66   C84   A    
C106  H59   S    
C45   H100  S    
O38   P3    S    
O19   P5    D    
O51   P15   S    
O52   P16   S    
Ba2   O9    S    
C2    H96   S    
Ba3   O8    S    
C73   P15   S    
O8    P14   S    
C28   P5    S    
Ba1   Ba2   S    
Ba3   P14   S    
C26   H116  S    
C19   C23   A    
C37   H87   S    
C32   C59   A    
C98   H2    S    
C105  C109  S    
C108  H57   S    
C22   C27   A    
C104  H53   S    
O10   P9    S    
C5    C69   A    
C13   H97   S    
C65   H111  S    
C111  H65   S    
C48   C50   A    
C90   H10   S    
C13   C20   A    
C112  H60   S    
C21   C61   S    
C62   H108  S    
O26   P11   S    
C11   H29   S    
C97   H82   S    
C18   C102  A    
C87   H120  S    
C101  H51   S    
C32   H91   S    
C85   H118  S    
C69   P9    S    
O20   P8    D    
C67   P16   S    
C67   C85   A    
C51   C60   A    
Ba4   P15   S    
C14   H37   S    
Ba2   O6    S    
C93   O49   S    
C95   O51   S    
C105  H54   S    
C7    C91   A    
C16   H40   S    
C109  H63   S    
C8    H21   S    
C7    C30   A    
C74   C87   A    
C45   C52   A    
C42   C46   A    
C74   P14   S    
Ba2   P13   S    
C95   H15   S    
C12   H32   S    
C29   P8    S    
C30   P7    S    
C36   C112  S    
Ba4   O11   S    
C2    C19   A    
C6    C80   A    
C96   O50   S    
C70   P3    S    
C96   H20   S    
C71   C84   A    
C12   C14   S    
C55   H136  S    
C101  H46   S    
C42   C82   S    
C93   C97   S    
C47   H76   S    
O17   P7    S    
