data_mof_unit_30919.cif
_audit_creation_date              2012-10-26T20:42:54-0400
_audit_creation_method            fapswitch 2.2
_symmetry_space_group_name_H-M    P1
_symmetry_Int_Tables_number       1
_space_group_crystal_system       triclinic
_cell_length_a                    10.805292
_cell_length_b                    9.604352
_cell_length_c                    15.024407
_cell_angle_alpha                 91.020373
_cell_angle_beta                  93.630679
_cell_angle_gamma                 90.216424
_cell_volume                      1555.80540297

loop_
_atom_site_label
_atom_site_type_symbol
_atom_type_description
_atom_site_fract_x
_atom_site_fract_y
_atom_site_fract_z
_atom_type_partial_charge
C1    C     C_R   0.262401 0.500094 0.500221 0.535726
C2    C     C_R   0.128527 0.501040 0.500723 0.013612
C3    C     C_R   0.421810 0.072672 0.441255 0.326988
C4    C     C_R   0.585325 0.927761 0.552807 0.341073
C5    C     C_R   0.573095 0.075818 0.561738 0.348455
C6    C     C_R   0.425289 0.923183 0.439153 0.329441
C7    C     C_R   0.497915 0.498498 0.329099 0.533184
C8    C     C_R   0.503153 0.500943 0.671311 0.508117
C9    C     C_R   0.596350 0.572825 0.820314 -0.104464
C10   C     C_R   0.411394 0.415925 0.181855 -0.093655
C11   C     C_R   0.504186 0.501568 0.768335 -0.034083
C12   C     C_R   0.737644 0.500210 0.499620 0.515587
C13   C     C_R   0.499792 0.493992 0.232947 -0.042820
C14   C     C_R   0.415044 0.424443 0.808553 -0.094967
C15   C     C_R   0.592082 0.566019 0.193074 -0.129301
C16   C     C_R   0.412372 0.422743 0.901342 -0.014188
C17   C     C_R   0.598440 0.560864 0.100714 -0.017652
C18   C     C_R   0.506590 0.492772 0.954451 -0.051788
C19   C     C_R   0.504972 0.489384 0.047646 -0.048862
C20   C     C_R   0.601067 0.567917 0.914040 -0.017822
C21   C     C_R   0.410746 0.413884 0.088211 -0.026209
C22   C     C_R   0.316374 0.351835 0.940994 0.273850
C23   C     C_R   0.318481 0.340307 0.034369 0.284089
C24   C     C_R   0.697566 0.626105 0.061472 0.265351
C25   C     C_3   0.126250 0.389891 0.869806 0.032332
C26   C     C_3   0.072106 0.369374 0.774354 -0.376209
C27   C     C_3   0.882360 0.585611 0.137398 0.034880
C28   C     C_3   0.981595 0.649589 0.202098 -0.346980
C29   C     C_3   0.217300 0.134282 0.408947 0.032320
C30   C     C_3   0.133879 0.044106 0.345445 -0.371174
C31   C     C_3   0.732851 0.834128 0.652374 0.019980
C32   C     C_3   0.873681 0.836533 0.669719 -0.363318
C33   C     C_3   0.714900 0.182591 0.664085 -0.012392
C34   C     C_R   0.697299 0.634981 0.968163 0.296531
C35   C     C_3   0.743374 0.191129 0.764623 -0.365142
C36   C     C_3   0.399932 0.870145 0.289555 0.016596
C37   C     C_3   0.319118 0.790129 0.219223 -0.346913
C38   C     C_R   0.066400 0.385492 0.531804 -0.163094
C39   C     C_R   0.933714 0.617260 0.469260 -0.146409
C40   C     C_R   0.938426 0.384128 0.529435 -0.141328
C41   C     C_R   0.061973 0.617369 0.469757 -0.143580
C42   C     C_R   0.871612 0.500514 0.499233 0.022476
Cu1   Cu    Cu3+1 0.500000 0.640660 0.500000 1.016548
Cu2   Cu    Cu3+1 0.500000 0.359340 0.500000 1.018315
H1    H     H_    0.666033 0.627110 0.786544 0.168918
H2    H     H_    0.051733 0.372539 0.916150 0.205318
H3    H     H_    0.985666 0.430626 0.763900 0.145146
H4    H     H_    0.138916 0.405716 0.726628 0.132342
H5    H     H_    0.051284 0.257544 0.760352 0.165428
H6    H     H_    0.927259 0.548427 0.076667 0.190619
H7    H     H_    0.841513 0.494629 0.170232 0.124462
H8    H     H_    0.054452 0.571569 0.219204 0.135638
H9    H     H_    0.024735 0.740328 0.171179 0.182776
H10   H     H_    0.939715 0.684693 0.264239 0.139571
H11   H     H_    0.063298 0.083857 0.040009 0.367725
H12   H     H_    0.341363 0.362305 0.216589 0.208450
H13   H     H_    0.981985 0.849136 0.960961 0.365263
H14   H     H_    0.177999 0.240144 0.403561 0.176371
H15   H     H_    0.209291 0.100293 0.479053 0.102670
H16   H     H_    0.145051 0.932228 0.359945 0.166202
H17   H     H_    0.035307 0.070206 0.354376 0.104880
H18   H     H_    0.153209 0.063878 0.275275 0.227941
H19   H     H_    0.701870 0.725910 0.660025 0.174257
H20   H     H_    0.689118 0.900769 0.702434 0.178920
H21   H     H_    0.914482 0.932641 0.643824 0.136654
H22   H     H_    0.899657 0.832229 0.741947 0.204222
H23   H     H_    0.347326 0.366427 0.766513 0.167276
H24   H     H_    0.915057 0.745581 0.636363 0.155063
H25   H     H_    0.722376 0.290050 0.640797 0.173783
H26   H     H_    0.785227 0.117452 0.632799 0.123338
H27   H     H_    0.739109 0.086899 0.794283 0.207591
H28   H     H_    0.837300 0.234821 0.779882 0.100279
H29   H     H_    0.675238 0.259670 0.795932 0.180468
H30   H     H_    0.497405 0.834215 0.287237 0.149370
H31   H     H_    0.398082 0.981097 0.270581 0.204325
H32   H     H_    0.228109 0.842158 0.208621 0.152651
H33   H     H_    0.364815 0.787096 0.155056 0.141956
H34   H     H_    0.660121 0.624174 0.235078 0.153483
H35   H     H_    0.302966 0.682139 0.240845 0.159386
H36   H     H_    0.116644 0.296349 0.558075 0.111482
H37   H     H_    0.883282 0.707678 0.444978 0.153142
H38   H     H_    0.892452 0.292545 0.552019 0.105205
H39   H     H_    0.108837 0.707518 0.445267 0.143360
H40   H     H_    0.157292 0.500839 0.877816 0.128851
N1    N     N_R   0.500000 0.852070 0.500000 -0.251125
N2    N     N_R   0.500000 0.147930 0.500000 -0.256445
O1    O     O_R   0.319640 0.618740 0.499990 -0.470290
O2    O     O_3   0.791931 0.687554 0.115278 -0.512187
O3    O     O_2   0.278823 0.130019 0.142890 -0.330039
O4    O     O_2   0.124718 0.316747 0.136176 -0.359282
O5    O     O_3   0.122772 0.136097 0.005582 -0.469965
O6    O     O_2   0.883456 0.640874 0.859295 -0.389788
O7    O     O_2   0.752593 0.848535 0.868035 -0.348371
O8    O     O_3   0.917612 0.807173 0.996339 -0.474757
O9    O     O_3   0.340947 0.142386 0.382227 -0.531313
O10   O     O_3   0.703958 0.874685 0.564108 -0.572695
O11   O     O_3   0.592689 0.132910 0.646845 -0.544251
O12   O     O_R   0.680360 0.381260 0.500010 -0.529816
O13   O     O_3   0.354471 0.848347 0.374833 -0.546797
O14   O     O_R   0.680360 0.618740 0.500010 -0.470483
O15   O     O_R   0.319640 0.381260 0.499990 -0.502144
O16   O     O_R   0.499970 0.618800 0.370260 -0.482131
O17   O     O_R   0.500030 0.381200 0.629740 -0.459188
O18   O     O_R   0.500030 0.618800 0.629740 -0.516701
O19   O     O_R   0.499970 0.381200 0.370260 -0.454843
O20   O     O_3   0.221611 0.291157 0.887186 -0.509825
S1    S     S_3+6 0.209095 0.229534 0.082445 -0.014896
S2    S     S_3+6 0.814882 0.734148 0.920483 -0.030545

loop_
_geom_bond_atom_site_label_1
_geom_bond_atom_site_label_2
_ccdc_geom_bond_type
C1    O1    A    
C9    H1    S    
C3    C6    A    
C39   C41   A    
Cu2   O19   S    
C37   H35   S    
O8    S2    S    
C6    N1    A    
C36   C37   S    
C19   C21   A    
O4    S1    D    
C18   C19   A    
O7    S2    D    
C11   C14   A    
C15   H34   S    
C2    C41   A    
C31   O10   S    
C41   H39   S    
C1    C2    S    
Cu1   O18   S    
C12   C42   S    
C33   C35   S    
C4    O10   S    
Cu2   O12   S    
O6    S2    D    
C29   H15   S    
C7    O16   A    
C30   H16   S    
C25   H40   S    
H11   O5    S    
C14   H23   S    
C7    O19   A    
C10   H12   S    
C12   O12   A    
C27   H6    S    
C33   H25   S    
C32   H24   S    
C20   C34   A    
C40   C42   A    
C35   H27   S    
C3    N2    A    
Cu2   N2    S    
Cu2   O17   S    
C27   H7    S    
C25   O20   S    
C39   C42   A    
C10   C21   A    
C17   C24   A    
Cu1   N1    S    
C40   H38   S    
Cu1   O14   S    
C39   H37   S    
C26   H5    S    
C29   O9    S    
C28   H10   S    
C4    N1    A    
C25   C26   S    
C22   O20   S    
C37   H33   S    
C24   C34   A    
Cu1   Cu2   S    
C29   C30   S    
C36   H31   S    
C31   H19   S    
C9    C11   A    
C2    C38   A    
C9    C20   A    
C31   C32   S    
C13   C15   A    
C28   H9    S    
C23   S1    S    
O3    S1    D    
C8    O18   A    
C36   H30   S    
C26   H3    S    
C5    N2    A    
C33   H26   S    
C37   H32   S    
C5    O11   S    
C35   H28   S    
H13   O8    S    
C30   H18   S    
C14   C16   A    
C1    O15   A    
C32   H22   S    
C15   C17   A    
C35   H29   S    
C16   C22   A    
C31   H20   S    
C24   O2    S    
C4    C5    A    
C10   C13   A    
Cu2   O15   S    
C26   H4    S    
Cu1   O1    S    
C6    O13   S    
C21   C23   A    
Cu1   O16   S    
C34   S2    S    
C38   C40   A    
C28   H8    S    
C38   H36   S    
C8    C11   S    
C17   C19   A    
C36   O13   S    
C18   C20   A    
C27   O2    S    
C8    O17   A    
C12   O14   A    
C7    C13   S    
C29   H14   S    
C16   C18   A    
C30   H17   S    
C27   C28   S    
C22   C23   A    
C3    O9    S    
C33   O11   S    
C25   H2    S    
C32   H21   S    
O5    S1    S    
