data_mof_unit_51693.cif
_audit_creation_date              2012-12-11T15:29:18-0500
_audit_creation_method            fapswitch 2.2
_symmetry_space_group_name_H-M    P1
_symmetry_Int_Tables_number       1
_space_group_crystal_system       triclinic
_cell_length_a                    13.480409
_cell_length_b                    13.495603
_cell_length_c                    27.585407
_cell_angle_alpha                 90.576429
_cell_angle_beta                  90.106942
_cell_angle_gamma                 60.05974
_cell_volume                      4348.52183981

loop_
_atom_site_label
_atom_site_type_symbol
_atom_type_description
_atom_site_fract_x
_atom_site_fract_y
_atom_site_fract_z
_atom_type_partial_charge
C1    C     C_R   0.620446 0.101160 0.569866 0.546811
C2    C     C_1   0.632580 0.728475 0.615269 -0.017105
C3    C     C_3   0.691980 0.557226 0.766536 -0.099576
C4    C     C_3   0.680660 0.648696 0.803400 0.052823
C5    C     C_3   0.585625 0.650014 0.739577 -0.097357
C6    C     C_3   0.665006 0.675574 0.708880 0.052804
C7    C     C_3   0.574519 0.740954 0.777184 -0.103667
C8    C     C_3   0.653634 0.766889 0.745724 -0.105121
C9    C     C_1   0.689258 0.629615 0.855785 -0.065184
C10   C     C_1   0.651242 0.698692 0.656870 -0.059729
C11   C     C_3   0.090829 0.134174 0.737341 -0.101261
C12   C     C_R   0.600026 0.778698 0.568297 0.546147
C13   C     C_3   0.182218 0.059457 0.775303 -0.101022
C14   C     C_1   0.097928 0.199937 0.900317 -0.017904
C15   C     C_1   0.230378 0.137352 0.617233 -0.016684
C16   C     C_3   0.057151 0.242059 0.768910 -0.101001
C17   C     C_3   0.148956 0.167184 0.806033 0.052644
C18   C     C_3   0.147179 0.261180 0.742357 -0.099063
C19   C     C_3   0.180461 0.153574 0.711543 0.053210
C20   C     C_3   0.238537 0.186558 0.780176 -0.102297
C21   C     C_3   0.272328 0.078642 0.748634 -0.103265
C22   C     C_1   0.126050 0.180602 0.858298 -0.060229
C23   C     C_R   0.277955 0.121552 0.569441 0.546381
C24   C     C_1   0.202837 0.146034 0.659281 -0.059056
C25   C     C_3   0.614523 0.281023 0.739005 -0.107661
C26   C     C_3   0.551857 0.248036 0.777231 -0.110957
C27   C     C_1   0.691829 0.208000 0.901237 -0.021330
C28   C     C_1   0.636079 0.133248 0.617721 -0.016126
C29   C     C_3   0.725919 0.220630 0.769343 -0.113881
C30   C     C_3   0.663081 0.187649 0.806834 0.062337
C31   C     C_3   0.763012 0.106874 0.741627 -0.101581
C32   C     C_3   0.651757 0.167448 0.712101 0.040590
C33   C     C_3   0.699611 0.075361 0.779546 0.051270
C34   C     C_R   0.620582 0.099241 0.430898 0.540677
C35   C     C_3   0.588704 0.134155 0.749382 -0.087018
C36   C     C_1   0.674742 0.198286 0.859096 -0.061885
C37   C     C_1   0.644715 0.152256 0.659814 -0.059297
C38   C     C_R   0.637929 0.725616 0.382256 0.021594
C39   C     C_R   0.720415 0.740322 0.357378 -0.126668
C40   C     C_R   0.731808 0.724839 0.307668 -0.125679
C41   C     C_R   0.663721 0.690682 0.282274 0.035942
C42   C     C_R   0.588928 0.665489 0.307688 -0.125506
C43   C     C_R   0.575428 0.683708 0.357481 -0.135736
C44   C     C_R   0.572774 0.711787 0.201617 -0.124437
C45   C     C_R   0.601583 0.777417 0.430259 0.537721
C46   C     C_R   0.582993 0.686360 0.152335 -0.133211
C47   C     C_R   0.787826 0.613028 0.157269 -0.129113
C48   C     C_R   0.778003 0.635901 0.206536 -0.125929
C49   C     C_R   0.671176 0.681010 0.229386 0.036323
C50   C     C_R   0.691483 0.631709 0.130502 0.023216
C51   C     C_R   0.238224 0.130880 0.381243 0.025031
C52   C     C_R   0.288962 0.034002 0.350801 -0.125536
C53   C     C_R   0.271065 0.045113 0.301252 -0.127627
C54   C     C_R   0.198911 0.152853 0.281376 0.029361
C55   C     C_R   0.143416 0.249165 0.312257 -0.124220
C56   C     C_R   0.280586 0.119247 0.430602 0.537294
C57   C     C_R   0.164708 0.238505 0.361873 -0.135004
C58   C     C_R   0.166485 0.263056 0.205674 -0.135786
C59   C     C_R   0.134004 0.281928 0.157520 -0.140221
C60   C     C_R   0.148751 0.094637 0.151905 0.010666
C61   C     C_R   0.177122 0.079074 0.201110 -0.097815
C62   C     C_R   0.181356 0.164785 0.228637 0.020883
C63   C     C_R   0.117196 0.202094 0.130860 0.026779
C64   C     C_R   0.632264 0.134567 0.382317 0.009357
C65   C     C_R   0.531728 0.208375 0.357049 -0.114747
C66   C     C_R   0.533891 0.226848 0.307613 0.004489
C67   C     C_3   0.771216 0.583177 0.734998 -0.102037
C68   C     C_R   0.640749 0.172819 0.283454 0.037352
C69   C     C_R   0.741771 0.102485 0.309079 -0.133896
C70   C     C_R   0.737550 0.082486 0.358176 -0.139243
C71   C     C_R   0.700023 0.093858 0.200369 -0.125722
C72   C     C_R   0.716790 0.108554 0.151842 -0.136896
C73   C     C_R   0.627422 0.313582 0.165707 -0.129569
C74   C     C_R   0.613715 0.298436 0.214309 -0.125269
C75   C     C_R   0.649995 0.188720 0.231785 0.025702
C76   C     C_R   0.681828 0.218420 0.134528 0.024041
C77   C     C_R   0.049870 0.234847 0.947965 0.543612
C78   C     C_3   0.760112 0.674168 0.772707 -0.102230
C79   C     C_R   0.712099 0.561455 0.946243 0.544737
C80   C     C_R   0.722587 0.224278 0.949095 0.545659
C81   C     C_R   0.051079 0.241954 0.085554 0.536769
C82   C     C_R   0.709113 0.572667 0.084126 0.539356
C83   C     C_R   0.719742 0.233220 0.087252 0.540027
C84   C     C_1   0.697978 0.605174 0.898062 -0.019658
Cr1   Cr    Cr6+3 0.417550 0.169090 0.500530 1.018918
Cr2   Cr    Cr6+3 0.669180 0.913420 0.499920 1.019806
Cr3   Cr    Cr6+3 0.413260 0.917540 0.499520 1.021118
Cr4   Cr    Cr6+3 0.909770 0.175810 0.018240 1.007448
Cr5   Cr    Cr6+3 0.913300 0.427650 0.016090 1.016500
Cr6   Cr    Cr6+3 0.657770 0.431010 0.016900 1.020027
H1    H     H_    0.831755 0.684046 0.786988 0.101957
H2    H     H_    0.299552 0.207594 0.798195 0.100944
H3    H     H_    0.132308 0.344278 0.728291 0.104026
H4    H     H_    0.968259 0.309625 0.777817 0.100348
H5    H     H_    0.465230 0.305789 0.792362 0.102556
H6    H     H_    0.579837 0.365893 0.721755 0.106929
H7    H     H_    0.532406 0.098237 0.740617 0.096228
H8    H     H_    0.849744 0.048722 0.726661 0.098346
H9    H     H_    0.782788 0.255879 0.778042 0.098205
H10   H     H_    0.769775 0.772942 0.375516 0.135087
H11   H     H_    0.851718 0.518127 0.717169 0.102561
H12   H     H_    0.488830 0.750758 0.218352 0.096148
H13   H     H_    0.507437 0.702818 0.132075 0.119743
H14   H     H_    0.789875 0.745136 0.288956 0.099188
H15   H     H_    0.855293 0.611130 0.227081 0.098246
H16   H     H_    0.872682 0.570940 0.141283 0.129782
H17   H     H_    0.538587 0.634896 0.288923 0.098409
H18   H     H_    0.511904 0.671099 0.376045 0.124732
H19   H     H_    0.348951 0.950339 0.364820 0.139159
H20   H     H_    0.175520 0.327757 0.225380 0.100813
H21   H     H_    0.115292 0.363009 0.142189 0.129910
H22   H     H_    0.636747 0.853447 0.735832 0.103712
H23   H     H_    0.317274 0.969740 0.278527 0.100900
H24   H     H_    0.192462 0.000689 0.218078 0.099746
H25   H     H_    0.084973 0.332971 0.298046 0.104821
H26   H     H_    0.126102 0.314129 0.384885 0.119522
H27   H     H_    0.449137 0.245989 0.374981 0.141147
H28   H     H_    0.728764 0.008585 0.213765 0.110684
H29   H     H_    0.760399 0.034233 0.128284 0.119395
H30   H     H_    0.578235 0.371701 0.238562 0.110760
H31   H     H_    0.494058 0.806167 0.794991 0.100156
H32   H     H_    0.602777 0.398760 0.153336 0.135357
H33   H     H_    0.823923 0.061398 0.290695 0.111727
H34   H     H_    0.815686 0.024195 0.376864 0.126093
H35   H     H_    0.514279 0.639511 0.725366 0.103982
H36   H     H_    0.707610 0.470758 0.775791 0.098950
H37   H     H_    0.197032 0.976451 0.789447 0.102841
H38   H     H_    0.029878 0.113132 0.719276 0.101904
H39   H     H_    0.361246 0.011180 0.739702 0.098832
O1    O     O_R   0.301780 0.195490 0.553940 -0.506729
O2    O     O_R   0.658840 0.818280 0.449970 -0.506258
O3    O     O_R   0.503160 0.801780 0.445740 -0.524164
O4    O     O_R   0.319320 0.022190 0.450230 -0.504267
O5    O     O_3   0.499990 0.000010 0.499990 -0.245744
O6    O     O_R   0.819250 0.149410 0.965240 -0.508214
O7    O     O_R   0.006940 0.180310 0.968270 -0.497233
O8    O     O_R   0.028420 0.332670 0.963010 -0.506894
O9    O     O_R   0.810130 0.520390 0.966030 -0.494695
O10   O     O_R   0.636050 0.541380 0.962520 -0.507573
O11   O     O_R   0.666480 0.323610 0.968170 -0.493404
O12   O     O_R   0.522450 0.158840 0.550250 -0.493129
O13   O     O_R   0.817280 0.156800 0.072180 -0.529157
O14   O     O_R   0.005110 0.187160 0.067410 -0.502946
O15   O     O_R   0.026450 0.340060 0.069950 -0.525152
O16   O     O_R   0.808300 0.527240 0.065170 -0.505578
O17   O     O_R   0.634070 0.548770 0.069460 -0.522985
O18   O     O_R   0.664650 0.330470 0.067300 -0.501931
O19   O     O_3   0.826940 0.344820 0.017080 -0.240757
O20   O     O_R   0.694460 0.003360 0.553820 -0.506701
O21   O     O_R   0.657750 0.819520 0.549120 -0.494055
O22   O     O_R   0.501990 0.803120 0.552700 -0.506476
O23   O     O_R   0.318230 0.023430 0.549370 -0.492994
O24   O     O_R   0.302950 0.194150 0.446980 -0.521636
O25   O     O_R   0.523540 0.157600 0.451100 -0.508906
O26   O     O_R   0.695630 0.002030 0.446860 -0.518562
C85   C     C_3   0.751003 0.957424 0.802536 -0.282064
C86   C     C_3   0.665370 0.948197 0.835643 -0.434388
H40   H     H_    0.640307 0.009927 0.866333 0.159458
H41   H     H_    0.587469 0.965357 0.815186 0.142521
H42   H     H_    0.705050 0.860591 0.850610 0.146465
H43   H     H_    0.778758 0.891882 0.773280 0.133762
H44   H     H_    0.827675 0.940878 0.823843 0.147460
C87   C     C_3   0.155133 0.994177 0.124152 -0.267047
C88   C     C_3   0.055914 0.975385 0.137631 -0.410875
H45   H     H_    0.066280 0.942973 0.175213 0.126334
H46   H     H_    0.973277 0.056557 0.135326 0.201380
H47   H     H_    0.054080 0.911464 0.112553 0.130910
H48   H     H_    0.158105 0.003658 0.084422 0.160575
H49   H     H_    0.237034 0.915652 0.132941 0.121660
C89   C     C_3   0.420004 0.295624 0.281915 -0.259391
C90   C     C_3   0.360628 0.422374 0.296971 -0.299446
C91   C     C_3   0.245603 0.491175 0.271625 -0.459735
H50   H     H_    0.256976 0.482556 0.231635 0.149415
H51   H     H_    0.186138 0.461156 0.282999 0.144050
H52   H     H_    0.207086 0.582930 0.281763 0.139674
H53   H     H_    0.345610 0.431439 0.336773 0.160771
H54   H     H_    0.415782 0.459001 0.287733 0.155479
H55   H     H_    0.429663 0.287931 0.241924 0.157635
H56   H     H_    0.364033 0.259891 0.291449 0.153285

loop_
_geom_bond_atom_site_label_1
_geom_bond_atom_site_label_2
_ccdc_geom_bond_type
C44   C49   A    
C58   C62   A    
Cr5   O19   S    
C66   C68   A    
C23   O23   A    
C86   H40   S    
C73   C74   A    
Cr3   O4    S    
C79   O10   A    
C87   C88   S    
Cr3   O5    S    
C72   C76   A    
C2    C12   S    
C60   C87   S    
Cr6   O10   S    
C3    H36   S    
C7    C8    S    
C53   C54   A    
C91   H50   S    
C68   C75   S    
Cr5   O16   S    
C20   H2    S    
C11   C19   S    
Cr6   O18   S    
C80   O6    A    
C63   C81   S    
C60   C63   A    
C28   C37   T    
C88   H45   S    
C19   C21   S    
C77   O8    A    
C18   C19   S    
Cr2   O21   S    
C79   C84   S    
Cr2   O2    S    
C31   H8    S    
C89   C90   S    
C69   H33   S    
C17   C20   S    
C51   C56   S    
C41   C42   A    
C14   C77   S    
C41   C49   S    
C38   C45   S    
Cr6   O19   S    
C33   C35   S    
C15   C24   T    
Cr2   O5    S    
C81   O15   A    
C47   C48   A    
C53   H23   S    
C16   C17   S    
C1    C28   S    
C59   H21   S    
C31   C33   S    
C1    O20   A    
C51   C57   A    
C77   O7    A    
C64   C70   A    
C57   H26   S    
C42   H17   S    
Cr4   O14   S    
C30   C33   S    
C91   H52   S    
Cr1   O5    S    
C43   H18   S    
C25   C32   S    
C15   C23   S    
C85   H44   S    
C86   H41   S    
C48   H15   S    
Cr3   O22   S    
C8    C78   S    
C12   O22   A    
C61   C62   A    
C67   C78   S    
C90   H54   S    
C7    H31   S    
C4    C7    S    
C76   C83   S    
Cr4   O13   S    
C82   O17   A    
C44   C46   A    
C56   O4    A    
C47   C50   A    
C34   O25   A    
C25   C29   S    
C38   C39   A    
C33   C85   S    
C74   C75   A    
C29   H9    S    
C73   H32   S    
C51   C52   A    
C32   C35   S    
C12   O21   A    
Cr4   O7    S    
C27   C80   S    
Cr2   O20   S    
Cr1   O12   S    
C39   C40   A    
C5    C7    S    
C44   H12   S    
C68   C69   A    
C6    C8    S    
C54   C62   S    
C50   C82   S    
C58   C59   A    
C34   O26   A    
C23   O1    A    
C60   C61   A    
Cr3   O3    S    
Cr2   O26   S    
C4    C78   S    
C29   C30   S    
Cr1   O1    S    
C40   H14   S    
C11   C16   S    
C31   C32   S    
C47   H16   S    
C34   C64   S    
Cr4   O19   S    
C13   C21   S    
Cr1   O24   S    
C32   C37   S    
C90   C91   S    
C21   H39   S    
C25   H6    S    
C83   O18   A    
C16   C18   S    
C40   C41   A    
C89   H55   S    
C85   H43   S    
C45   O2    A    
C86   H42   S    
Cr5   O8    S    
Cr3   O23   S    
C55   C57   A    
C27   C36   T    
C73   C76   A    
C42   C43   A    
C3    C4    S    
C2    C10   T    
C6    C67   S    
C82   O16   A    
C52   C53   A    
C67   H11   S    
C90   H53   S    
C26   H5    S    
C54   C55   A    
C85   C86   S    
C71   H28   S    
C58   H20   S    
C59   C63   A    
C66   C89   S    
C88   H47   S    
C3    C67   S    
Cr4   O6    S    
C56   O24   A    
C3    C5    S    
C6    C10   S    
C83   O13   A    
Cr6   O11   S    
C26   C30   S    
C13   C17   S    
C78   H1    S    
Cr5   O15   S    
C74   H30   S    
C46   H13   S    
C46   C50   A    
C16   H4    S    
C17   C22   S    
C30   C36   S    
C89   H56   S    
C64   C65   A    
C14   C22   T    
C8    H22   S    
C11   H38   S    
C25   C26   S    
C38   C43   A    
Cr6   O17   S    
C80   O11   A    
C71   C75   A    
C11   C13   S    
C39   H10   S    
C5    C6    S    
C55   H25   S    
C52   H19   S    
C48   C49   A    
C72   H29   S    
C88   H46   S    
C91   H51   S    
C87   H48   S    
C18   C20   S    
Cr1   O25   S    
C65   C66   A    
C69   C70   A    
C87   H49   S    
C1    O12   A    
C9    C84   T    
C13   H37   S    
C70   H34   S    
C26   C35   S    
C81   O14   A    
C79   O9    A    
C71   C72   A    
C20   C21   S    
C45   O3    A    
C29   C31   S    
Cr5   O9    S    
C5    H35   S    
C61   H24   S    
C18   H3    S    
C65   H27   S    
C19   C24   S    
C4    C9    S    
C35   H7    S    
