data_mof_unit_21469.cif
_audit_creation_date              2012-12-10T16:59:13-0500
_audit_creation_method            fapswitch 2.2
_symmetry_space_group_name_H-M    P1
_symmetry_Int_Tables_number       1
_space_group_crystal_system       triclinic
_cell_length_a                    8.114954
_cell_length_b                    8.593759
_cell_length_c                    27.7847
_cell_angle_alpha                 102.542313
_cell_angle_beta                  80.90784
_cell_angle_gamma                 92.231658
_cell_volume                      1867.62183725

loop_
_atom_site_label
_atom_site_type_symbol
_atom_type_description
_atom_site_fract_x
_atom_site_fract_y
_atom_site_fract_z
_atom_type_partial_charge
C1    C     C_R   0.542970 0.793446 0.499167 0.928988
C2    C     C_R   0.485289 0.640734 0.137977 -0.029836
C3    C     C_R   0.480566 0.501971 0.647528 -0.079292
C4    C     C_R   0.519433 0.498027 0.352472 -0.079286
C5    C     C_R   0.466444 0.642912 0.037182 0.043088
C6    C     C_R   0.533545 0.357086 0.962819 0.043086
C7    C     C_R   0.544110 0.357636 0.013385 0.051524
C8    C     C_R   0.455876 0.642361 0.986615 0.051523
C9    C     C_R   0.509934 0.500418 0.050245 0.072849
C10   C     C_R   0.490054 0.499579 0.949756 0.072849
C11   C     C_R   0.435332 0.781753 0.075487 -0.226376
C12   C     C_R   0.457030 0.206554 0.500833 0.928985
C13   C     C_R   0.564663 0.218246 0.924514 -0.226374
C14   C     C_R   0.444746 0.780322 0.124761 -0.117142
C15   C     C_R   0.555254 0.219678 0.875239 -0.117140
C16   C     C_R   0.493736 0.500606 0.593950 0.824341
C17   C     C_R   0.506264 0.499393 0.406050 0.824340
C18   C     C_R   0.411580 0.780107 0.971385 -0.224985
C19   C     C_R   0.588399 0.219889 0.028616 -0.224984
C20   C     C_2   0.566194 0.955899 0.498487 -0.371864
C21   C     C_2   0.433807 0.044101 0.501512 -0.371864
C22   C     C_R   0.434267 0.637556 0.835065 0.505961
C23   C     C_R   0.481057 0.499395 0.899113 -0.048540
C24   C     C_R   0.565723 0.362442 0.164936 0.505961
C25   C     C_R   0.508262 0.362507 0.812182 0.510346
C26   C     C_R   0.491739 0.637494 0.187818 0.510347
C27   C     C_R   0.326842 0.468649 0.727244 -0.153615
C28   C     C_R   0.673153 0.531367 0.272758 -0.153617
C29   C     C_R   0.329299 0.467630 0.676820 -0.033994
C30   C     C_R   0.670697 0.532383 0.323181 -0.033997
C31   C     C_R   0.625072 0.537202 0.670024 -0.213964
C32   C     C_R   0.374931 0.462781 0.329975 -0.213964
C33   C     C_R   0.620714 0.537585 0.720160 -0.109228
C34   C     C_R   0.518934 0.500603 0.100888 -0.048541
C35   C     C_R   0.379289 0.462398 0.279839 -0.109227
C36   C     C_R   0.472063 0.503032 0.748649 0.312206
C37   C     C_R   0.527936 0.496968 0.251351 0.312206
C38   C     C_R   0.996780 0.312594 0.446252 0.261590
C39   C     C_R   0.871485 0.227280 0.420260 -0.131039
C40   C     C_R   0.895841 0.083034 0.385200 -0.215598
C41   C     C_R   0.051840 0.015487 0.371795 -0.031368
C42   C     C_R   0.182411 0.095697 0.392537 -0.208750
C43   C     C_R   0.155225 0.240264 0.427499 -0.170406
C44   C     C_R   0.003220 0.687407 0.553748 0.261589
C45   C     C_R   0.439015 0.639496 0.885359 -0.018711
C46   C     C_R   0.128516 0.772722 0.579739 -0.131036
C47   C     C_R   0.104162 0.916971 0.614796 -0.215602
C48   C     C_R   0.948164 0.984520 0.628200 -0.031370
C49   C     C_R   0.817592 0.904308 0.607460 -0.208746
C50   C     C_R   0.844776 0.759738 0.572500 -0.170400
C51   C     C_1   0.823802 0.572876 0.343531 0.195631
C52   C     C_1   0.176191 0.427147 0.656471 0.195635
C53   C     C_R   0.560972 0.360502 0.114642 -0.018710
C54   C     C_R   0.403711 0.778336 0.921802 -0.157804
C55   C     C_R   0.596270 0.221660 0.078199 -0.157804
C56   C     C_R   0.514708 0.359266 0.862023 -0.029837
H1    H     H_    0.742188 0.565132 0.648916 0.185780
H2    H     H_    0.580804 0.110215 0.847402 0.211402
H3    H     H_    0.402921 0.894813 0.069062 0.145487
H4    H     H_    0.597078 0.105187 0.930938 0.145489
H5    H     H_    0.381477 0.892501 0.996662 0.143597
H6    H     H_    0.618495 0.107492 0.003340 0.143595
H7    H     H_    0.693164 0.002543 0.495389 0.203480
H8    H     H_    0.306836 0.997456 0.504610 0.203481
H9    H     H_    0.749414 0.264382 0.424349 0.206730
H10   H     H_    0.792396 0.024666 0.368001 0.151224
H11   H     H_    0.072538 0.904856 0.344340 0.162227
H12   H     H_    0.257817 0.434840 0.351082 0.185774
H13   H     H_    0.307423 0.047687 0.380654 0.151561
H14   H     H_    0.267792 0.285635 0.434492 0.208566
H15   H     H_    0.250584 0.735618 0.575651 0.206729
H16   H     H_    0.207607 0.975341 0.631995 0.151224
H17   H     H_    0.927467 0.095153 0.655654 0.162228
H18   H     H_    0.692580 0.952319 0.619342 0.151559
H19   H     H_    0.732208 0.714366 0.565508 0.208565
H20   H     H_    0.733088 0.564187 0.736943 0.141630
H21   H     H_    0.266918 0.435784 0.263056 0.141629
H22   H     H_    0.369659 0.887107 0.912158 0.187443
H23   H     H_    0.630318 0.112887 0.087843 0.187441
H24   H     H_    0.787360 0.558598 0.249990 0.138912
H25   H     H_    0.212632 0.441430 0.750012 0.138911
H26   H     H_    0.419201 0.889787 0.152598 0.211404
N1    N     N_R   0.469679 0.500601 0.799862 -0.354022
N2    N     N_R   0.530318 0.499399 0.200138 -0.354022
N3    N     N_2   0.950320 0.457960 0.486880 -0.104428
N4    N     N_2   0.049680 0.542040 0.513120 -0.104428
N5    N     N_1   0.946494 0.605028 0.359828 -0.209684
N6    N     N_1   0.053498 0.395002 0.640174 -0.209696
O1    O     O_R   0.389250 0.738570 0.503220 -0.636753
O2    O     O_2   0.604119 0.228631 0.178711 -0.555515
O3    O     O_2   0.458661 0.770645 0.223792 -0.552738
O4    O     O_2   0.541346 0.229358 0.776208 -0.552737
O5    O     O_R   0.610750 0.261430 0.496780 -0.636754
O6    O     O_R   0.678390 0.711630 0.494810 -0.634395
O7    O     O_R   0.321610 0.288370 0.505190 -0.634396
O8    O     O_R   0.355440 0.513440 0.575450 -0.639436
O9    O     O_R   0.644560 0.486560 0.424550 -0.639436
O10   O     O_R   0.644590 0.486500 0.567040 -0.637142
O11   O     O_R   0.355410 0.513500 0.432960 -0.637140
O12   O     O_2   0.395867 0.771366 0.821290 -0.555514
Zn1   Zn    Zn3+2 0.306940 0.517990 0.505620 0.922068
Zn2   Zn    Zn3+2 0.693060 0.482010 0.494380 0.922067

loop_
_geom_bond_atom_site_label_1
_geom_bond_atom_site_label_2
_ccdc_geom_bond_type
C30   C51   S    
C23   C45   A    
C27   C29   A    
C41   C42   A    
C25   C56   A    
C23   C56   A    
C41   H11   S    
C13   H4    S    
N3    N4    D    
C35   C37   A    
C5    C11   A    
C38   C39   A    
C11   C14   A    
C44   N4    S    
C36   N1    S    
C19   C55   A    
C33   C36   A    
C3    C29   A    
C21   H8    S    
C3    C16   S    
C1    O6    A    
C1    C20   S    
C1    O1    A    
C31   C33   A    
C37   N2    S    
O9    Zn2   S    
C32   H12   S    
C2    C34   A    
C40   H10   S    
O8    Zn1   S    
C39   H9    S    
C11   H3    S    
C44   C46   A    
C53   C55   A    
C16   O8    A    
C22   O12   S    
C38   N3    S    
C32   C35   A    
C27   H25   S    
C2    C26   A    
C51   N5    T    
C39   C40   A    
C26   O3    S    
O10   Zn2   S    
C12   C21   S    
C35   H21   S    
C42   H13   S    
C8    C18   A    
C5    C9    A    
C55   H23   S    
C33   H20   S    
C47   C48   A    
C52   N6    T    
C12   O7    A    
C3    C31   A    
C17   O11   A    
C46   H15   S    
C4    C32   A    
C4    C17   S    
C40   C41   A    
O11   Zn1   S    
C45   C54   A    
C43   H14   S    
C7    C19   A    
C13   C15   A    
C9    C34   A    
C10   C23   A    
C15   H2    S    
C12   O5    A    
C42   C43   A    
C14   H26   S    
C28   H24   S    
C44   C50   A    
C7    C9    A    
C46   C47   A    
C48   C49   A    
C25   O4    S    
C26   N2    A    
O1    Zn1   S    
C48   H17   S    
C24   O2    S    
O5    Zn2   S    
C6    C10   A    
C5    C8    A    
C18   H5    S    
C6    C7    A    
C27   C36   A    
C15   C56   A    
C31   H1    S    
C20   H7    S    
C28   C30   A    
C24   C53   A    
C38   C43   A    
C50   H19   S    
C22   N1    A    
C6    C13   A    
C16   O10   A    
C28   C37   A    
C24   N2    A    
C2    C14   A    
C47   H16   S    
C18   C54   A    
C22   C45   A    
C20   C21   D    
O6    Zn2   S    
C34   C53   A    
C8    C10   A    
C49   C50   A    
C25   N1    A    
C49   H18   S    
C19   H6    S    
N4    Zn1   S    
C17   O9    A    
C4    C30   A    
N3    Zn2   S    
O7    Zn1   S    
C54   H22   S    
C29   C52   S    
