data_mof_unit_17866.cif
_audit_creation_date              2012-12-11T16:24:14-0500
_audit_creation_method            fapswitch 2.2
_symmetry_space_group_name_H-M    P1
_symmetry_Int_Tables_number       1
_space_group_crystal_system       triclinic
_cell_length_a                    14.72408
_cell_length_b                    14.73111
_cell_length_c                    33.441123
_cell_angle_alpha                 96.174606
_cell_angle_beta                  96.449012
_cell_angle_gamma                 61.205407
_cell_volume                      6304.43828648

loop_
_atom_site_label
_atom_site_type_symbol
_atom_type_description
_atom_site_fract_x
_atom_site_fract_y
_atom_site_fract_z
_atom_type_partial_charge
C1    C     C_R   0.391083 0.699422 0.445833 0.581777
C2    C     C_R   0.349380 0.346536 0.307564 0.061169
C3    C     C_R   0.401932 0.257685 0.329942 0.240675
C4    C     C_R   0.414430 0.268755 0.372285 0.103877
C5    C     C_R   0.409202 0.264911 0.162493 -0.154088
C6    C     C_R   0.394444 0.249716 0.120773 0.035260
C7    C     C_R   0.209657 0.373127 0.124477 0.214718
C8    C     C_R   0.226341 0.387408 0.166299 0.272514
C9    C     C_R   0.325107 0.329566 0.185212 -0.018978
C10   C     C_1   0.338980 0.332729 0.228269 0.123547
C11   C     C_1   0.345271 0.337284 0.264404 0.178204
C12   C     C_R   0.405902 0.386404 0.433980 0.569766
C13   C     C_R   0.292974 0.298138 0.101539 0.019999
C14   C     C_R   0.734633 0.383117 0.405830 -0.021489
C15   C     C_R   0.797553 0.418500 0.391342 0.214110
C16   C     C_R   0.810308 0.408741 0.349617 0.066203
C17   C     C_R   0.759027 0.364760 0.322528 0.043342
C18   C     C_R   0.699100 0.326773 0.337642 0.202701
C19   C     C_R   0.688876 0.334786 0.378738 -0.142698
C20   C     C_R   0.788812 0.341469 0.198374 0.366485
C21   C     C_R   0.768614 0.357543 0.278783 0.394183
C22   C     C_R   0.785952 0.406406 0.130706 0.250812
C23   C     C_R   0.698397 0.411074 0.446857 0.585018
C24   C     C_R   0.829715 0.385641 0.093162 0.088133
C25   C     C_R   0.925575 0.201472 0.105522 0.192767
C26   C     C_R   0.881712 0.222841 0.142196 -0.115774
C27   C     C_R   0.816005 0.324653 0.156107 -0.009022
C28   C     C_R   0.903440 0.283241 0.081108 0.043948
C29   C     C_R   0.372112 0.752543 0.408011 0.051674
C30   C     C_R   0.274265 0.789982 0.385920 0.065591
C31   C     C_R   0.264624 0.813551 0.345404 0.093736
C32   C     C_R   0.351421 0.802143 0.327405 0.058528
C33   C     C_R   0.445756 0.776192 0.350521 0.059956
C34   C     C_R   0.393606 0.701352 0.561280 0.595561
C35   C     C_R   0.455923 0.752390 0.390743 0.087325
C36   C     C_R   0.343386 0.822647 0.203607 0.364161
C37   C     C_R   0.344926 0.812120 0.283985 0.364456
C38   C     C_R   0.282424 0.801016 0.130765 0.150903
C39   C     C_R   0.263663 0.833701 0.091150 0.098643
C40   C     C_R   0.367067 0.922887 0.109437 0.065827
C41   C     C_R   0.386523 0.888150 0.148005 -0.118335
C42   C     C_R   0.339078 0.834043 0.159972 0.045784
C43   C     C_R   0.299814 0.901526 0.081064 0.068481
C44   C     C_R   0.374876 0.372350 0.586828 0.063670
C45   C     C_R   0.407680 0.389378 0.549349 0.563343
C46   C     C_R   0.293216 0.454247 0.607856 0.082553
C47   C     C_R   0.283542 0.444815 0.648095 -0.093934
C48   C     C_R   0.353377 0.355084 0.667807 0.019573
C49   C     C_R   0.427424 0.270326 0.645737 -0.125606
C50   C     C_R   0.437550 0.278688 0.605578 -0.155204
C51   C     C_R   0.340257 0.346967 0.791418 0.413056
C52   C     C_R   0.350394 0.352006 0.711461 0.340633
C53   C     C_R   0.220311 0.363691 0.841318 0.212137
C54   C     C_R   0.203122 0.344110 0.879062 0.055439
C55   C     C_R   0.386352 0.282700 0.900577 0.214562
C56   C     C_R   0.702931 0.412629 0.562625 0.597153
C57   C     C_R   0.403639 0.301132 0.862383 0.073294
C58   C     C_R   0.320939 0.339879 0.832679 0.031733
C59   C     C_R   0.286508 0.301246 0.908651 0.021838
C60   C     C_R   0.758564 0.377559 0.602885 0.016532
C61   C     C_R   0.805337 0.432288 0.626312 0.246011
C62   C     C_R   0.830003 0.418574 0.667808 0.074284
C63   C     C_R   0.812138 0.347297 0.685916 0.015027
C64   C     C_R   0.778318 0.283503 0.662332 0.094021
C65   C     C_R   0.752696 0.297224 0.620710 0.052383
C66   C     C_R   0.876979 0.223318 0.822079 0.215734
C67   C     C_R   0.373367 0.369063 0.391796 -0.012107
C68   C     C_R   0.904695 0.207053 0.863474 0.087122
C69   C     C_R   0.867555 0.386950 0.875545 -0.130390
C70   C     C_R   0.840862 0.402848 0.834618 0.206684
C71   C     C_R   0.849559 0.319971 0.807566 0.037588
C72   C     C_1   0.836031 0.332131 0.764840 0.139637
C73   C     C_1   0.826148 0.340029 0.728998 0.091147
C74   C     C_R   0.905773 0.288026 0.890151 -0.021786
C75   C     C_R   0.377538 0.752814 0.602420 0.023072
C76   C     C_R   0.276918 0.826222 0.613997 0.221377
C77   C     C_R   0.260099 0.857738 0.655020 0.268980
C78   C     C_R   0.314304 0.456294 0.369030 -0.133605
C79   C     C_R   0.343652 0.816948 0.684203 -0.014247
C80   C     C_R   0.443524 0.749993 0.672618 -0.149865
C81   C     C_R   0.461359 0.717195 0.632227 0.031708
C82   C     C_R   0.390522 0.882078 0.830251 0.277431
C83   C     C_R   0.378239 0.905697 0.871892 0.249114
C84   C     C_R   0.221166 0.887673 0.863179 -0.168995
C85   C     C_R   0.233806 0.864565 0.822098 -0.142906
C86   C     C_R   0.315898 0.865340 0.805360 0.001430
C87   C     C_1   0.321854 0.850626 0.762416 0.088670
C88   C     C_1   0.329273 0.837533 0.726590 0.092849
C89   C     C_R   0.302987 0.445577 0.327258 0.211375
C90   C     C_R   0.289333 0.914046 0.888348 -0.018335
C91   C     C_R   0.963948 0.263939 0.045742 0.605781
C92   C     C_R   0.272886 0.260262 0.060070 0.590087
C93   C     C_R   0.259865 0.959133 0.043791 0.572918
C94   C     C_R   0.961472 0.268020 0.930819 0.569180
C95   C     C_R   0.270368 0.263805 0.945131 0.604110
C96   C     C_R   0.256403 0.964632 0.928910 0.553539
Cr1   Cr    Cr6+3 0.576280 0.580550 0.506370 1.136152
Cr2   Cr    Cr6+3 0.346780 0.572400 0.496520 1.107352
Cr3   Cr    Cr6+3 0.576960 0.347070 0.497150 1.073725
Cr4   Cr    Cr6+3 0.087320 0.083240 0.984860 1.100874
Cr5   Cr    Cr6+3 0.087720 0.316210 0.996740 1.124011
Cr6   Cr    Cr6+3 0.317350 0.090340 0.995890 1.158154
H1    H     H_    0.638221 0.309244 0.389123 0.180853
H2    H     H_    0.904794 0.158892 0.161111 0.195536
H3    H     H_    0.486216 0.223440 0.177303 0.168771
H4    H     H_    0.434940 0.909546 0.169453 0.164803
H5    H     H_    0.498984 0.213603 0.589978 0.147328
H6    H     H_    0.223199 0.509802 0.664221 0.160303
H7    H     H_    0.480795 0.199096 0.659923 0.158878
H8    H     H_    0.864985 0.450972 0.895535 0.192712
H9    H     H_    0.507877 0.719211 0.695297 0.164262
H10   H     H_    0.177316 0.849369 0.803122 0.178947
H11   H     H_    0.154368 0.889957 0.874829 0.167808
H12   H     H_    0.282541 0.533934 0.383391 0.172515
N1    N     N_R   0.776831 0.428318 0.220961 -0.108639
N2    N     N_R   0.288875 0.439311 0.733514 -0.204322
N3    N     N_R   0.409283 0.262697 0.730462 -0.199137
N4    N     N_R   0.403855 0.260082 0.769738 -0.151315
N5    N     N_R   0.766081 0.436585 0.260393 -0.165100
N6    N     N_R   0.780774 0.270849 0.256240 -0.136408
N7    N     N_R   0.790671 0.262977 0.216876 -0.218063
N8    N     N_R   0.316222 0.757034 0.217991 -0.134663
N9    N     N_R   0.317262 0.751641 0.257524 -0.132265
N10   N     N_R   0.371204 0.878168 0.269761 -0.202533
N11   N     N_R   0.370158 0.883419 0.230350 -0.209516
N12   N     N_R   0.283556 0.436804 0.772739 -0.149162
O1    O     O_R   0.679450 0.499830 0.463150 -0.439360
O2    O     O_R   0.356040 0.477400 0.534170 -0.455660
O3    O     O_R   0.495910 0.323070 0.537100 -0.513982
O4    O     O_R   0.663920 0.359620 0.542290 -0.463804
O5    O     O_3   0.500010 0.500010 0.500010 -0.300820
O6    O     O_R   0.170070 0.978950 0.027680 -0.486050
O7    O     O_R   0.001760 0.175230 0.026640 -0.453790
O8    O     O_R   0.984760 0.333570 0.037150 -0.445030
O9    O     O_R   0.183410 0.309240 0.041890 -0.459335
O10   O     O_R   0.340240 0.172500 0.045430 -0.453462
O11   O     O_R   0.309670 0.000990 0.032050 -0.461937
O12   O     O_R   0.480650 0.664000 0.464630 -0.476690
O13   O     O_R   0.168330 0.982130 0.939200 -0.518044
O14   O     O_R   0.000140 0.178170 0.944610 -0.459543
O15   O     O_R   0.983010 0.336750 0.948660 -0.505081
O16   O     O_R   0.181800 0.312190 0.959860 -0.478717
O17   O     O_R   0.338500 0.175680 0.956950 -0.428122
O18   O     O_R   0.308050 0.003930 0.950020 -0.448653
O19   O     O_3   0.164130 0.163270 0.992500 -0.300316
O20   O     O_R   0.323930 0.675950 0.455370 -0.472853
O21   O     O_R   0.354700 0.475360 0.451930 -0.508994
O22   O     O_R   0.494470 0.320860 0.448390 -0.478338
O23   O     O_R   0.662580 0.357570 0.460050 -0.515630
O24   O     O_R   0.680900 0.502040 0.551870 -0.434052
O25   O     O_R   0.481990 0.666040 0.546870 -0.465616
O26   O     O_R   0.325370 0.678160 0.544080 -0.459962
N13   N     N_3   0.482881 0.183649 0.098197 -0.554558
H13   H     H_    0.520574 0.110797 0.110307 0.244439
H14   H     H_    0.534136 0.214697 0.102242 0.256780
N14   N     N_3   0.800042 0.468272 0.067152 -0.557541
H15   H     H_    0.719849 0.502087 0.060207 0.265712
H16   H     H_    0.817242 0.524269 0.082658 0.309198
N15   N     N_3   0.875680 0.442680 0.334528 -0.558088
H17   H     H_    0.847171 0.521741 0.342658 0.287321
H18   H     H_    0.950599 0.402047 0.348174 0.281069
Cl1   Cl    Cl    0.626284 0.277387 0.306233 -0.539702
Cl2   Cl    Cl    0.692445 0.534495 0.144773 -0.537322
Cl3   Cl    Cl    0.015396 0.070749 0.094386 -0.584932
N16   N     N_3   0.185405 0.802206 0.404495 -0.572873
H19   H     H_    0.127629 0.879612 0.403595 0.246987
H20   H     H_    0.157337 0.755030 0.388302 0.254980
N17   N     N_3   0.553518 0.723982 0.413492 -0.548853
H21   H     H_    0.611425 0.658685 0.398859 0.276871
H22   H     H_    0.570733 0.785214 0.414107 0.266132
N18   N     N_3   0.207660 0.796977 0.061959 -0.608544
H23   H     H_    0.132892 0.857384 0.055961 0.306303
H24   H     H_    0.246693 0.770997 0.035434 0.242300
N19   N     N_3   0.167006 0.848652 0.322035 -0.567106
H25   H     H_    0.142830 0.792383 0.321140 0.290587
H26   H     H_    0.111948 0.917309 0.336003 0.242074
N20   N     N_3   0.534829 0.767311 0.333166 -0.610648
H27   H     H_    0.551366 0.715209 0.307816 0.265386
H28   H     H_    0.518046 0.840164 0.324532 0.288247
N21   N     N_3   0.239861 0.738348 0.141605 -0.539486
H29   H     H_    0.269267 0.669552 0.123284 0.271823
H30   H     H_    0.159217 0.778252 0.135814 0.284825
N22   N     N_3   0.411101 0.985863 0.100442 -0.567129
H31   H     H_    0.491910 0.943124 0.104964 0.246402
H32   H     H_    0.385497 0.050799 0.120867 0.235906
N23   N     N_3   0.222890 0.549116 0.589392 -0.557564
H33   H     H_    0.147252 0.561184 0.590787 0.266574
H34   H     H_    0.229267 0.610023 0.606319 0.249805
N24   N     N_3   0.102062 0.360494 0.886370 -0.569141
H35   H     H_    0.048374 0.438388 0.882534 0.290324
H36   H     H_    0.082523 0.313932 0.865234 0.259021
Cl4   Cl    Cl    0.455940 0.132633 0.305036 -0.545684
Cl5   Cl    Cl    0.115849 0.408444 0.803721 -0.524592
Cl6   Cl    Cl    0.490673 0.236506 0.937951 -0.522232
N25   N     N_3   0.505181 0.279896 0.853223 -0.570113
H37   H     H_    0.529153 0.324508 0.873574 0.272133
H38   H     H_    0.556536 0.201461 0.857182 0.301793
N26   N     N_3   0.935518 0.107584 0.878069 -0.557511
H39   H     H_    0.998939 0.051943 0.862614 0.260930
H40   H     H_    0.874009 0.090580 0.871552 0.280555
Cl7   Cl    Cl    0.882016 0.120383 0.788183 -0.533636
N27   N     N_3   0.767213 0.206736 0.681324 -0.549554
H41   H     H_    0.689682 0.222477 0.677264 0.232101
H42   H     H_    0.813944 0.133609 0.667715 0.280331
N28   N     N_3   0.718429 0.231057 0.596788 -0.573324
H43   H     H_    0.652102 0.238760 0.608499 0.224212
H44   H     H_    0.777007 0.154119 0.598340 0.258891
Cl8   Cl    Cl    0.835149 0.518586 0.604826 -0.476225
Cl9   Cl    Cl    0.803234 0.526241 0.817830 -0.496203
N29   N     N_3   0.470293 0.179023 0.395507 -0.567230
H45   H     H_    0.433488 0.132980 0.389834 0.267198
H46   H     H_    0.545588 0.136549 0.385863 0.285273
N30   N     N_3   0.871166 0.479478 0.691417 -0.514568
H47   H     H_    0.942616 0.429003 0.705555 0.280856
H48   H     H_    0.820304 0.523745 0.713732 0.268578
Cl10  Cl    Cl    0.474834 0.925352 0.902004 -0.424367
Cl11  Cl    Cl    0.497790 0.876744 0.808922 -0.436057
N31   N     N_3   0.564071 0.641845 0.622169 -0.561051
H49   H     H_    0.586581 0.576266 0.638196 0.215071
H50   H     H_    0.614176 0.672603 0.631995 0.283999
Cl12  Cl    Cl    0.171363 0.879424 0.577497 -0.465835
Cl13  Cl    Cl    0.134145 0.945755 0.669982 -0.466249
Cl14  Cl    Cl    0.121948 0.474956 0.195561 -0.405592
Cl15  Cl    Cl    0.082267 0.449025 0.102842 -0.469202
Cl16  Cl    Cl    0.235145 0.558776 0.300286 -0.526518
Cl17  Cl    Cl    0.861472 0.474083 0.424932 -0.539025

loop_
_geom_bond_atom_site_label_1
_geom_bond_atom_site_label_2
_ccdc_geom_bond_type
C7    C13   A    
C66   C68   A    
N18   H23   S    
C45   O3    A    
N16   H19   S    
C22   Cl2   S    
C54   N24   S    
C55   C59   A    
C94   O14   A    
C41   C42   A    
C74   C94   S    
C36   C42   S    
C36   N11   A    
Cr1   O1    S    
C85   H10   S    
C96   O13   A    
C83   Cl10  S    
C57   C58   A    
C7    C8    A    
C5    H3    S    
N28   H43   S    
N6    N7    A    
C25   C28   A    
C95   O17   A    
Cr3   O23   S    
Cr3   O22   S    
Cr5   O19   S    
C26   C27   A    
C29   C30   A    
Cr5   O9    S    
N27   H42   S    
C57   N25   S    
C12   O21   A    
C49   H7    S    
N14   H15   S    
C38   C42   A    
C21   N6    A    
N22   H32   S    
Cr6   O19   S    
C5    C6    A    
C65   N28   S    
Cr2   O21   S    
C25   Cl3   S    
C68   C74   A    
C15   C16   A    
C51   N4    A    
C4    N29   S    
C68   N26   S    
C18   C19   A    
Cr5   O16   S    
N24   H36   S    
N19   H25   S    
C39   N18   S    
Cr4   O14   S    
C26   H2    S    
C37   N9    A    
C66   Cl7   S    
Cr5   O15   S    
C40   C43   A    
N15   H17   S    
C53   C54   A    
C44   C46   A    
C16   C17   A    
N20   H28   S    
Cr2   O5    S    
Cr1   O24   S    
N15   H18   S    
C70   C71   A    
N13   H14   S    
C93   O6    A    
C9    C10   S    
C61   C62   A    
C34   C75   S    
C72   C73   T    
C40   N22   S    
C52   N3    A    
Cr2   O2    S    
C23   O23   A    
N16   H20   S    
N2    N12   A    
C78   H12   S    
C63   C64   A    
C16   N15   S    
C51   N12   A    
C1    O20   A    
C92   O10   A    
C67   C78   A    
C84   C90   A    
C2    C11   S    
C79   C88   S    
N21   H30   S    
C17   C18   A    
N19   H26   S    
C54   C59   A    
C52   N2    A    
C78   C89   A    
C38   C39   A    
C12   C67   S    
C38   N21   S    
N27   H41   S    
Cr3   O3    S    
C15   Cl17  S    
C33   N20   S    
C76   C77   A    
Cr1   O5    S    
C20   N1    A    
C41   H4    S    
C34   O26   A    
C86   C87   S    
C8    C9    A    
Cr2   O26   S    
C63   C73   S    
C25   C26   A    
C85   C86   A    
C19   H1    S    
C17   C21   S    
C56   C60   S    
C60   C61   A    
Cr6   O11   S    
C14   C23   S    
C2    C89   A    
C36   N8    A    
C75   C76   A    
N22   H31   S    
C5    C9    A    
C62   C63   A    
Cr4   O13   S    
Cr4   O7    S    
C96   O18   A    
C37   N10   A    
N18   H24   S    
C69   H8    S    
N31   H50   S    
C47   C48   A    
C91   O7    A    
N30   H47   S    
Cr4   O19   S    
C34   O25   A    
C1    C29   S    
C35   N17   S    
Cr1   O25   S    
C77   C79   A    
C69   C74   A    
C51   C58   S    
C32   C37   S    
C84   C85   A    
C20   N7    A    
N26   H39   S    
C8    Cl14  S    
C66   C71   A    
C59   C95   S    
C40   C41   A    
C60   C65   A    
C82   C83   A    
N1    N5    A    
C22   C27   A    
C55   C57   A    
C13   C92   S    
C50   H5    S    
C62   N30   S    
C22   C24   A    
C79   C80   A    
C92   O9    A    
Cr6   O17   S    
N23   H34   S    
C3    C4    A    
Cr1   O12   S    
N21   H29   S    
C23   O1    A    
C44   C50   A    
N24   H35   S    
C47   H6    S    
C83   C90   A    
C64   N27   S    
C46   C47   A    
N17   H21   S    
Cr3   O4    S    
C94   O15   A    
C14   C19   A    
C31   C32   A    
C75   C81   A    
C44   C45   S    
C24   C28   A    
C30   N16   S    
C89   Cl16  S    
C80   C81   A    
C4    C67   A    
C39   C43   A    
C53   C58   A    
Cr4   O6    S    
C90   C96   S    
C20   C27   S    
C76   Cl12  S    
Cr2   O20   S    
C29   C35   A    
N29   H46   S    
Cr3   O5    S    
C43   C93   S    
Cr6   O18   S    
C64   C65   A    
C12   O22   A    
N14   H16   S    
C2    C3    A    
N23   H33   S    
N30   H48   S    
C71   C72   S    
C21   N5    A    
C84   H11   S    
Cr5   O8    S    
C53   Cl5   S    
C32   C33   A    
C6    C13   A    
C82   C86   A    
C7    Cl15  S    
C18   Cl1   S    
N31   H49   S    
C30   C31   A    
C82   Cl11  S    
C3    Cl4   S    
C48   C49   A    
C81   N31   S    
C80   H9    S    
N17   H22   S    
C33   C35   A    
C91   O8    A    
C28   C91   S    
N29   H45   S    
C69   C70   A    
Cr6   O10   S    
C6    N13   S    
C93   O11   A    
C10   C11   T    
N20   H27   S    
C61   Cl8   S    
N25   H37   S    
C77   Cl13  S    
C48   C52   S    
C55   Cl6   S    
C46   N23   S    
C87   C88   T    
C49   C50   A    
C95   O16   A    
N8    N9    A    
C70   Cl9   S    
C14   C15   A    
N26   H40   S    
C45   O2    A    
N13   H13   S    
N3    N4    A    
N28   H44   S    
C56   O24   A    
C56   O4    A    
C1    O12   A    
C24   N14   S    
N10   N11   A    
N25   H38   S    
C31   N19   S    
