data_mof_unit_27934.cif
_audit_creation_date              2012-12-10T20:37:27-0500
_audit_creation_method            fapswitch 2.2
_symmetry_space_group_name_H-M    P1
_symmetry_Int_Tables_number       1
_space_group_crystal_system       triclinic
_cell_length_a                    15.696941
_cell_length_b                    10.690932
_cell_length_c                    9.909814
_cell_angle_alpha                 90.726751
_cell_angle_beta                  90.842308
_cell_angle_gamma                 90.894044
_cell_volume                      1662.4939018

loop_
_atom_site_label
_atom_site_type_symbol
_atom_type_description
_atom_site_fract_x
_atom_site_fract_y
_atom_site_fract_z
_atom_type_partial_charge
C1    C     C_R   0.498929 0.260316 0.499406 0.879452
C2    C     C_3   0.082356 0.495328 0.499649 0.214603
C3    C     C_3   0.973488 0.604244 0.553828 -0.173734
C4    C     C_3   0.917097 0.495065 0.502734 0.218856
C5    C     C_3   0.027518 0.590407 0.425418 -0.164096
C6    C     C_3   0.969339 0.481205 0.374350 -0.164070
C7    C     C_1   0.173365 0.496467 0.497969 -0.087803
C8    C     C_1   0.826243 0.496105 0.503256 -0.086700
C9    C     C_R   0.512836 0.065564 0.617505 0.099579
C10   C     C_R   0.491525 0.128468 0.500161 -0.101482
C11   C     C_R   0.457597 0.062400 0.388352 -0.242447
C12   C     C_R   0.337934 0.499563 0.499144 0.907813
C13   C     C_R   0.456958 0.932799 0.389377 -0.228499
C14   C     C_R   0.488992 0.871198 0.503170 -0.092006
C15   C     C_R   0.509181 0.938347 0.620635 0.103502
C16   C     C_3   0.584171 0.930561 0.714994 -0.517453
C17   C     C_3   0.589853 0.072851 0.709310 -0.105160
C18   C     C_R   0.435180 0.443343 0.068502 0.218904
C19   C     C_R   0.559561 0.565107 0.076212 -0.155550
C20   C     C_R   0.560581 0.565725 0.932943 0.116378
C21   C     C_R   0.434934 0.443791 0.926375 0.199649
C22   C     C_3   0.408987 0.309278 0.917773 -0.500505
C23   C     C_R   0.498457 0.739730 0.500718 0.869947
C24   C     C_3   0.410088 0.308396 0.071024 -0.523310
C25   C     C_R   0.661982 0.499826 0.500875 0.894289
C26   C     C_3   0.971802 0.399946 0.577050 -0.168722
C27   C     C_3   0.025928 0.386083 0.448607 -0.165936
C28   C     C_1   0.248814 0.497934 0.497628 -0.192001
C29   C     C_1   0.750907 0.497828 0.502626 -0.206856
C30   C     C_3   0.030072 0.509164 0.628104 -0.165189
H1    H     H_    0.049530 0.296965 0.405530 0.130258
H2    H     H_    0.638086 0.878835 0.671244 0.189800
H3    H     H_    0.574562 0.117433 0.807783 0.142404
H4    H     H_    0.607858 0.616218 0.134448 0.155169
H5    H     H_    0.344105 0.296073 0.872921 0.203050
H6    H     H_    0.458637 0.249722 0.872539 0.210823
H7    H     H_    0.345984 0.293495 0.114759 0.200865
H8    H     H_    0.461185 0.249299 0.113807 0.211873
H9    H     H_    0.946675 0.322276 0.639067 0.125861
H10   H     H_    0.942217 0.469753 0.270741 0.130535
H11   H     H_    0.052437 0.668213 0.363391 0.131017
H12   H     H_    0.949717 0.693241 0.596992 0.132980
H13   H     H_    0.057063 0.520619 0.731787 0.130896
H14   H     H_    0.435227 0.110009 0.299225 0.164168
H15   H     H_    0.435131 0.881547 0.300068 0.171172
H16   H     H_    0.564408 0.897170 0.815627 0.181551
N1    N     N_R   0.499430 0.499140 0.142800 -0.120209
N2    N     N_R   0.499430 0.499180 0.857150 -0.125562
O1    O     O_R   0.500010 0.316790 0.614690 -0.629825
O2    O     O_R   0.500000 0.316760 0.385350 -0.619123
O3    O     O_R   0.376780 0.500010 0.614650 -0.609298
O4    O     O_R   0.376770 0.499970 0.385310 -0.612799
O5    O     O_R   0.500000 0.683240 0.614650 -0.634281
O6    O     O_R   0.499990 0.683210 0.385310 -0.623009
O7    O     O_R   0.623230 0.500030 0.614690 -0.632668
O8    O     O_R   0.623220 0.499990 0.385350 -0.613503
Zn1   Zn    Zn3+2 0.500010 0.500020 0.653130 0.927063
Zn2   Zn    Zn3+2 0.499990 0.499980 0.346870 0.938787
C31   C     C_3   0.672129 0.129527 0.648522 -0.357546
C32   C     C_3   0.703192 0.067461 0.517105 -0.329623
C33   C     C_3   0.770578 0.148847 0.449681 -0.901609
H17   H     H_    0.742149 0.237741 0.415805 0.267095
H18   H     H_    0.824408 0.169844 0.520825 0.260364
H19   H     H_    0.795506 0.098859 0.360018 0.248712
H20   H     H_    0.732125 0.975850 0.539726 0.210717
H21   H     H_    0.649834 0.051352 0.444154 0.238478
H22   H     H_    0.661212 0.230491 0.631164 0.209838
H23   H     H_    0.723890 0.124199 0.725873 0.188063
C34   C     C_3   0.630867 0.642405 0.871126 -0.386373
C35   C     C_3   0.716981 0.576747 0.881945 -0.328249
C36   C     C_3   0.788138 0.657100 0.822787 -0.899182
H24   H     H_    0.772749 0.681356 0.716696 0.261948
H25   H     H_    0.796943 0.744847 0.882936 0.255532
H26   H     H_    0.848738 0.604872 0.824989 0.252072
H27   H     H_    0.733011 0.558821 0.989540 0.207221
H28   H     H_    0.713746 0.485071 0.827988 0.242003
H29   H     H_    0.616206 0.666004 0.766217 0.257225
H30   H     H_    0.636073 0.733594 0.926066 0.163868

loop_
_geom_bond_atom_site_label_1
_geom_bond_atom_site_label_2
_ccdc_geom_bond_type
C3    H12   S    
C33   H19   S    
C18   C21   A    
C34   H29   S    
C2    C7    S    
C25   O8    A    
C4    C8    S    
C18   N1    A    
N2    Zn1   S    
C22   H5    S    
C26   C27   S    
C12   C28   S    
C18   C24   S    
C8    C29   T    
C5    C6    S    
C19   N1    A    
C26   H9    S    
C15   C16   S    
O1    Zn1   S    
C33   H18   S    
C31   H22   S    
C19   C20   A    
C16   C17   S    
C24   H8    S    
C35   C36   S    
O3    Zn1   S    
C1    O2    A    
C21   N2    A    
C32   H21   S    
C31   C32   S    
C21   C22   S    
C34   H30   S    
C34   C35   S    
C17   H3    S    
C9    C10   A    
C12   O4    A    
C23   O5    A    
C25   C29   S    
C27   H1    S    
O2    Zn2   S    
C4    C6    S    
C16   H16   S    
C36   H25   S    
O5    Zn1   S    
C7    C28   T    
C32   C33   S    
C14   C23   S    
C3    C30   S    
C31   H23   S    
C6    C27   S    
C24   H7    S    
C11   H14   S    
C20   N2    A    
O4    Zn2   S    
C17   C31   S    
C9    C17   S    
C32   H20   S    
C26   C30   S    
O7    Zn1   S    
C2    C27   S    
C35   H28   S    
C6    H10   S    
C20   C34   S    
C2    C5    S    
C3    C4    S    
C12   O3    A    
C23   O6    A    
O6    Zn2   S    
C5    H11   S    
C1    C10   S    
C25   O7    A    
C3    C5    S    
C19   H4    S    
C36   H26   S    
C4    C26   S    
C16   H2    S    
C22   H6    S    
C2    C30   S    
C9    C15   A    
C36   H24   S    
N1    Zn2   S    
C13   H15   S    
C11   C13   A    
O8    Zn2   S    
C22   C24   S    
C33   H17   S    
C30   H13   S    
C10   C11   A    
C35   H27   S    
C14   C15   A    
C13   C14   A    
C1    O1    A    
