data_mof_unit_11192.cif
_audit_creation_date              2012-12-10T21:05:43-0500
_audit_creation_method            fapswitch 2.2
_symmetry_space_group_name_H-M    P1
_symmetry_Int_Tables_number       1
_space_group_crystal_system       triclinic
_cell_length_a                    15.880484
_cell_length_b                    15.081136
_cell_length_c                    17.457615
_cell_angle_alpha                 90.36691
_cell_angle_beta                  90.740789
_cell_angle_gamma                 90.412334
_cell_volume                      4180.47844308

loop_
_atom_site_label
_atom_site_type_symbol
_atom_type_description
_atom_site_fract_x
_atom_site_fract_y
_atom_site_fract_z
_atom_type_partial_charge
C1    C     C_R   0.338949 0.499847 0.499569 0.941466
C2    C     C_R   0.421664 0.045963 0.505974 0.295098
C3    C     C_R   0.498977 0.905286 0.493302 -0.322467
C4    C     C_R   0.497006 0.094933 0.492854 -0.316951
C5    C     C_1   0.500006 0.807050 0.497248 0.393160
C6    C     C_1   0.498406 0.192993 0.497056 0.410955
C7    C     C_R   0.499554 0.499816 0.353064 1.013371
C8    C     C_R   0.500192 0.500316 0.647450 1.058617
C9    C     C_R   0.554311 0.586319 0.842710 0.315631
C10   C     C_R   0.422572 0.548810 0.155918 0.333359
C11   C     C_R   0.577350 0.550457 0.159084 0.308331
C12   C     C_R   0.661000 0.500230 0.498842 0.987549
C13   C     C_R   0.456956 0.460719 0.857973 0.334965
C14   C     C_R   0.565282 0.560203 0.766341 0.306518
C15   C     C_R   0.421779 0.514224 0.230799 0.177835
C16   C     C_R   0.577174 0.514180 0.233086 0.296836
C17   C     C_R   0.448038 0.454388 0.777405 0.198608
C18   C     C_R   0.505044 0.502944 0.731536 -0.410714
C19   C     C_R   0.499350 0.501662 0.269842 -0.367413
C20   C     C_R   0.503376 0.533029 0.889181 -0.286006
C21   C     C_R   0.500355 0.559603 0.119413 -0.268941
C22   C     C_1   0.502168 0.549627 0.969712 0.277550
C23   C     C_1   0.823939 0.501312 0.497789 0.243828
C24   C     C_1   0.501501 0.558716 0.037711 0.287254
C25   C     C_R   0.956585 0.583382 0.507108 0.254857
C26   C     C_R   0.043220 0.420553 0.504116 0.208522
C27   C     C_R   0.044377 0.583943 0.497222 0.279445
C28   C     C_R   0.955739 0.420659 0.491266 0.296086
C29   C     C_R   0.913106 0.501917 0.498284 -0.225599
C30   C     C_R   0.086855 0.502135 0.500693 -0.243273
C31   C     C_1   0.176026 0.501282 0.500356 0.250719
C32   C     C_1   0.250753 0.500012 0.499964 0.076306
C33   C     C_1   0.749193 0.500685 0.498028 0.026068
C34   C     C_R   0.421406 0.951330 0.497106 0.226858
C35   C     C_R   0.571718 0.048609 0.474942 0.230753
C36   C     C_R   0.574922 0.954598 0.484783 0.240071
H1    H     H_    0.650116 0.807806 0.831652 0.404388
H2    H     H_    0.788326 0.289662 0.396397 0.440806
H3    H     H_    0.768657 0.675524 0.561223 0.406284
H4    H     H_    0.147271 0.368710 0.637395 0.387238
H5    H     H_    0.296571 0.225246 0.591294 0.450875
H6    H     H_    0.653013 0.844120 0.601085 0.362138
H7    H     H_    0.590960 0.171196 0.343078 0.371723
H8    H     H_    0.351642 0.822176 0.381556 0.357736
H9    H     H_    0.211262 0.645448 0.143423 0.409967
H10   H     H_    0.792773 0.643652 0.153571 0.407216
H11   H     H_    0.374664 0.241141 0.910482 0.412754
H12   H     H_    0.688382 0.719081 0.678192 0.411292
H13   H     H_    0.335059 0.603223 0.342705 0.350263
H14   H     H_    0.795211 0.434131 0.243741 0.412118
H15   H     H_    0.458819 0.294378 0.703185 0.362187
H16   H     H_    0.190753 0.720468 0.391990 0.427260
N1    N     N_1   0.500000 0.270550 0.500000 -0.048349
N2    N     N_1   0.500000 0.729450 0.500000 -0.038716
O1    O     O_R   0.378020 0.573650 0.500020 -0.611598
O2    O     O_2   0.684426 0.664914 0.916133 -0.168932
O3    O     O_3   0.616082 0.759253 0.808172 -0.504788
O4    O     O_2   0.349942 0.654901 0.049440 -0.250761
O5    O     O_2   0.284660 0.509987 0.070978 -0.172883
O6    O     O_3   0.264115 0.634545 0.172490 -0.454591
O7    O     O_2   0.707201 0.526125 0.064629 -0.205910
O8    O     O_2   0.647488 0.675207 0.071522 -0.208601
O9    O     O_3   0.742743 0.625872 0.183257 -0.430083
O10   O     O_2   0.466692 0.368156 0.990677 -0.284249
O11   O     O_2   0.326428 0.406757 0.942467 -0.174771
O12   O     O_R   0.621980 0.426350 0.499980 -0.582171
O13   O     O_3   0.407313 0.279323 0.875532 -0.444588
O14   O     O_2   0.730937 0.604940 0.773070 -0.173043
O15   O     O_2   0.684268 0.510600 0.667277 -0.315962
O16   O     O_3   0.643208 0.676714 0.662970 -0.503645
O17   O     O_2   0.261923 0.449804 0.217388 -0.119169
O18   O     O_2   0.339970 0.408956 0.331888 -0.275628
O19   O     O_3   0.285662 0.570120 0.322005 -0.469762
O20   O     O_2   0.708132 0.552876 0.326137 -0.273238
O21   O     O_2   0.654651 0.400287 0.329508 -0.266773
O22   O     O_3   0.743158 0.445647 0.213657 -0.428379
O23   O     O_R   0.621980 0.573650 0.499980 -0.584638
O24   O     O_2   0.290512 0.384559 0.787268 -0.143250
O25   O     O_2   0.334146 0.432264 0.661597 -0.319018
O26   O     O_3   0.398511 0.287567 0.715721 -0.416086
O27   O     O_2   0.045759 0.751834 0.441330 -0.165636
O28   O     O_2   0.134712 0.721484 0.553947 -0.161598
O29   O     O_3   0.182933 0.665091 0.421315 -0.506497
O30   O     O_2   0.955688 0.257034 0.424781 -0.141239
O31   O     O_2   0.863650 0.280355 0.534964 -0.188317
O32   O     O_3   0.819760 0.346134 0.403539 -0.526104
O33   O     O_2   0.956355 0.746674 0.575108 -0.117729
O34   O     O_R   0.378020 0.426350 0.500020 -0.559469
O35   O     O_2   0.867691 0.724412 0.460597 -0.182981
O36   O     O_3   0.819681 0.657003 0.589850 -0.500972
O37   O     O_2   0.041783 0.253128 0.563018 -0.144144
O38   O     O_2   0.137184 0.283753 0.457046 -0.141286
O39   O     O_3   0.176200 0.344312 0.592050 -0.520826
O40   O     O_2   0.279534 0.126822 0.461395 -0.177582
O41   O     O_2   0.274727 0.047718 0.583720 -0.143381
O42   O     O_3   0.351739 0.198085 0.580500 -0.522451
O43   O     O_2   0.691127 0.859032 0.411341 -0.163456
O44   O     O_2   0.744646 0.957246 0.513514 -0.129872
O45   O     O_R   0.500000 0.573690 0.389120 -0.647679
O46   O     O_3   0.667851 0.814598 0.552285 -0.543009
O47   O     O_2   0.713414 0.142692 0.501457 -0.169388
O48   O     O_2   0.710088 0.052353 0.384272 -0.157944
O49   O     O_3   0.625113 0.196990 0.385673 -0.526065
O50   O     O_2   0.299758 0.858703 0.566828 -0.150954
O51   O     O_2   0.255464 0.942414 0.453778 -0.149707
O52   O     O_3   0.338130 0.798570 0.432809 -0.554689
O53   O     O_R   0.500000 0.426310 0.610880 -0.612903
O54   O     O_R   0.500000 0.573690 0.610880 -0.570567
O55   O     O_R   0.500000 0.426310 0.389120 -0.543706
O56   O     O_2   0.545008 0.728555 0.937349 -0.227109
S1    S     S_3+6 0.601134 0.686208 0.879092 0.141817
S2    S     S_3+6 0.899257 0.321993 0.464294 0.152239
S3    S     S_3+6 0.900667 0.681705 0.532487 0.167212
S4    S     S_3+6 0.098720 0.321497 0.528241 0.148702
S5    S     S_3+6 0.328499 0.103892 0.532718 0.152581
S6    S     S_3+6 0.673033 0.897469 0.488966 0.146678
S7    S     S_3+6 0.658579 0.109340 0.436519 0.120668
S8    S     S_3+6 0.325348 0.888742 0.488552 0.138081
S9    S     S_3+6 0.328945 0.587063 0.109116 0.137402
S10   S     S_3+6 0.670378 0.594608 0.117135 0.149111
S11   S     S_3+6 0.413159 0.378593 0.919708 0.130537
S12   S     S_3+6 0.659657 0.587062 0.717485 0.118499
S13   S     S_3+6 0.325522 0.482364 0.275613 0.127784
S14   S     S_3+6 0.672139 0.477983 0.278580 0.108955
S15   S     S_3+6 0.364350 0.390579 0.734627 0.137789
S16   S     S_3+6 0.101388 0.684421 0.479335 0.159517
Zn1   Zn    Zn3+2 0.500000 0.598370 0.500000 1.121576
Zn2   Zn    Zn3+2 0.500000 0.401630 0.500000 1.154194

loop_
_geom_bond_atom_site_label_1
_geom_bond_atom_site_label_2
_ccdc_geom_bond_type
C9    S1    S    
O20   S14   D    
H9    O6    S    
C34   S8    S    
C14   S12   S    
O27   S16   D    
C14   C18   A    
C2    C4    A    
C35   C36   A    
O46   S6    S    
H4    O39   S    
O31   S2    D    
C28   S2    S    
C15   C19   A    
O30   S2    D    
C7    O45   A    
H2    O32   S    
C23   C29   S    
O17   S13   D    
C28   C29   A    
O53   Zn2   S    
H6    O46   S    
C10   C15   A    
C30   C31   S    
C27   S16   S    
H5    O42   S    
O26   S15   S    
O10   S11   D    
O13   S11   S    
O6    S9    S    
C11   C16   A    
O36   S3    S    
H15   O26   S    
O28   S16   D    
C10   S9    S    
O55   Zn2   S    
O56   S1    D    
O41   S5    D    
O19   S13   S    
O42   S5    S    
H12   O16   S    
O11   S11   D    
H3    O36   S    
O8    S10   D    
O23   Zn1   S    
C2    C34   A    
C1    O34   A    
O25   S15   D    
C4    C35   A    
O52   S8    S    
O7    S10   D    
O49   S7    S    
C11   S10   S    
C8    O54   A    
H11   O13   S    
O50   S8    D    
C10   C21   A    
C25   C29   A    
O35   S3    D    
O21   S14   D    
O22   S14   S    
C5    N2    T    
C4    C6    S    
O14   S12   D    
O45   Zn1   S    
C3    C34   A    
C23   C33   T    
C12   O12   A    
C11   C21   A    
C1    C32   S    
C8    C18   S    
C7    O55   A    
H16   O29   S    
O32   S2    S    
C9    C14   A    
C26   S4    S    
N1    Zn2   S    
H14   O22   S    
C13   S11   S    
C2    S5    S    
O16   S12   S    
C9    C20   A    
O44   S6    D    
C31   C32   T    
C12   O23   A    
C17   C18   A    
O43   S6    D    
O48   S7    D    
C15   S13   S    
C25   S3    S    
C3    C36   A    
O1    Zn1   S    
C26   C30   A    
C7    C19   S    
O18   S13   D    
C22   C24   T    
O51   S8    D    
C35   S7    S    
O29   S16   S    
C36   S6    S    
C8    O53   A    
O5    S9    D    
O2    S1    D    
C13   C20   A    
C20   C22   S    
C3    C5    S    
O40   S5    D    
H8    O52   S    
C25   C27   A    
N2    Zn1   S    
C26   C28   A    
O37   S4    D    
C13   C17   A    
H10   O9    S    
O47   S7    D    
C1    O1    A    
O34   Zn2   S    
O9    S10   S    
C17   S15   S    
O3    S1    S    
O15   S12   D    
C16   C19   A    
O4    S9    D    
O12   Zn2   S    
H13   O19   S    
O39   S4    S    
O54   Zn1   S    
C16   S14   S    
H7    O49   S    
O33   S3    D    
C21   C24   S    
C6    N1    T    
C12   C33   S    
O24   S15   D    
O38   S4    D    
H1    O3    S    
C27   C30   A    
