data_mof_unit_58732.cif
_audit_creation_date              2012-12-11T15:37:25-0500
_audit_creation_method            fapswitch 2.2
_symmetry_space_group_name_H-M    P1
_symmetry_Int_Tables_number       1
_space_group_crystal_system       triclinic
_cell_length_a                    17.272666
_cell_length_b                    24.274358
_cell_length_c                    14.656362
_cell_angle_alpha                 89.977302
_cell_angle_beta                  125.556975
_cell_angle_gamma                 89.956212
_cell_volume                      4999.31631932

loop_
_atom_site_label
_atom_site_type_symbol
_atom_type_description
_atom_site_fract_x
_atom_site_fract_y
_atom_site_fract_z
_atom_type_partial_charge
C1    C     C_R   0.808832 0.624807 0.908791 -0.132773
C2    C     C_3   0.598622 0.500700 0.531671 0.187770
C3    C     C_3   0.070891 0.987031 0.414349 -0.145639
C4    C     C_3   0.924894 0.999365 0.354116 0.186789
C5    C     C_3   0.098539 0.000684 0.531740 0.187792
C6    C     C_R   0.654973 0.318703 0.901906 -0.255447
C7    C     C_R   0.200945 0.770067 0.098851 -0.259608
C8    C     C_R   0.200679 0.229692 0.099188 -0.259044
C9    C     C_R   0.654750 0.681267 0.902189 -0.254982
C10   C     C_R   0.154974 0.818703 0.901913 -0.255433
C11   C     C_R   0.700941 0.270069 0.098845 -0.259614
C12   C     C_R   0.700679 0.729691 0.099185 -0.259049
C13   C     C_R   0.146837 0.346378 0.090883 -0.146707
C14   C     C_R   0.154751 0.181267 0.902192 -0.254973
C15   C     C_R   0.103620 0.773118 0.896172 0.040965
C16   C     C_R   0.751822 0.315882 0.104212 0.040268
C17   C     C_R   0.751770 0.683946 0.104496 0.039999
C18   C     C_R   0.103138 0.226750 0.896513 0.041646
C19   C     C_R   0.603621 0.273117 0.896165 0.040972
C20   C     C_R   0.251829 0.815878 0.104219 0.040268
C21   C     C_R   0.251773 0.183949 0.104499 0.040003
C22   C     C_R   0.603140 0.726751 0.896510 0.041644
C23   C     C_R   0.135310 0.744139 0.995702 0.111478
C24   C     C_R   0.146959 0.653523 0.090737 -0.146187
C25   C     C_R   0.737508 0.335124 0.004821 0.114608
C26   C     C_R   0.737480 0.664866 0.005048 0.114954
C27   C     C_R   0.134864 0.255668 0.996039 0.111706
C28   C     C_R   0.635309 0.244139 0.995697 0.111480
C29   C     C_R   0.237514 0.835120 0.004828 0.114612
C30   C     C_R   0.237484 0.164869 0.005051 0.114959
C31   C     C_R   0.634866 0.755669 0.996037 0.111707
C32   C     C_R   0.132732 0.449491 0.650595 -0.015459
C33   C     C_R   0.143866 0.548615 0.562659 0.005178
C34   C     C_R   0.139012 0.449309 0.559139 -0.014014
C35   C     C_R   0.808809 0.375350 0.908708 -0.131168
C36   C     C_R   0.137050 0.548721 0.653266 -0.000887
C37   C     C_R   0.632733 0.949491 0.650596 -0.015449
C38   C     C_R   0.643867 0.048615 0.562659 0.005176
C39   C     C_R   0.639012 0.949309 0.559139 -0.014016
C40   C     C_R   0.637050 0.048720 0.653266 -0.000883
C41   C     C_R   0.125186 0.499194 0.501666 0.018570
C42   C     C_R   0.111965 0.499387 0.681473 0.025355
C43   C     C_R   0.625187 0.999194 0.501667 0.018542
C44   C     C_R   0.611965 0.999387 0.681473 0.025354
C45   C     C_R   0.904993 0.376041 0.096268 -0.128001
C46   C     C_R   0.308836 0.124812 0.908793 -0.132739
C47   C     C_R   0.052587 0.651647 0.904870 -0.150262
C48   C     C_R   0.052338 0.348247 0.905080 -0.139456
C49   C     C_R   0.905073 0.624055 0.096296 -0.126026
C50   C     C_R   0.404996 0.876040 0.096270 -0.128004
C51   C     C_R   0.552586 0.151647 0.904869 -0.150253
C52   C     C_R   0.552339 0.848248 0.905080 -0.139459
C53   C     C_R   0.405076 0.124056 0.096297 -0.126028
C54   C     C_R   0.056006 0.545474 0.309551 -0.153884
C55   C     C_R   0.020392 0.453742 0.751150 -0.118845
C56   C     C_R   0.020009 0.546044 0.750315 -0.152779
C57   C     C_R   0.646838 0.846379 0.090883 -0.146728
C58   C     C_R   0.056821 0.454124 0.309394 -0.130598
C59   C     C_R   0.556007 0.045474 0.309551 -0.153884
C60   C     C_R   0.520393 0.953742 0.751150 -0.118846
C61   C     C_R   0.520009 0.046044 0.750315 -0.152792
C62   C     C_R   0.556822 0.954124 0.309394 -0.130614
C63   C     C_R   0.740484 0.454680 0.697078 -0.155627
C64   C     C_R   0.268409 0.545540 0.245826 -0.141574
C65   C     C_R   0.268253 0.453977 0.246720 -0.123210
C66   C     C_R   0.740287 0.545853 0.698088 -0.142043
C67   C     C_R   0.240448 0.954673 0.697124 -0.155486
C68   C     C_R   0.646958 0.153524 0.090736 -0.146221
C69   C     C_R   0.768397 0.045543 0.245778 -0.141383
C70   C     C_R   0.768250 0.953985 0.246663 -0.123395
C71   C     C_R   0.240241 0.045847 0.698122 -0.142223
C72   C     C_R   0.812990 0.636895 0.004463 0.061661
C73   C     C_R   0.112767 0.314435 0.996317 0.070855
C74   C     C_R   0.113085 0.685416 0.996049 0.071056
C75   C     C_R   0.812936 0.363223 0.004361 0.063009
C76   C     C_R   0.312993 0.136899 0.004465 0.061654
C77   C     C_R   0.612768 0.814435 0.996317 0.070853
C78   C     C_R   0.613084 0.185417 0.996046 0.071060
C79   C     C_R   0.308814 0.875343 0.908711 -0.131137
C80   C     C_R   0.312941 0.863218 0.004365 0.063008
C81   C     C_R   0.080251 0.499652 0.378472 0.083699
C82   C     C_R   0.055309 0.499801 0.728545 0.077264
C83   C     C_R   0.580251 0.999652 0.378472 0.083680
C84   C     C_R   0.555309 0.999801 0.728545 0.077266
C85   C     C_R   0.690531 0.500457 0.637657 0.038893
C86   C     C_R   0.323821 0.499548 0.269776 0.027829
C87   C     C_R   0.190451 0.000446 0.637735 0.038929
C88   C     C_R   0.823806 0.999559 0.269659 0.027764
C89   C     C_3   0.520879 0.463351 0.516933 -0.153909
C90   C     C_3   0.424924 0.499345 0.354155 0.186808
C91   C     C_3   0.502146 0.536875 0.368009 -0.156448
C92   C     C_3   0.490987 0.449153 0.398080 -0.168383
C93   C     C_3   0.532507 0.550824 0.487471 -0.169843
C94   C     C_3   0.020947 0.963005 0.516506 -0.154247
C95   C     C_3   0.001970 0.037225 0.368482 -0.156749
C96   C     C_3   0.991184 0.949286 0.397511 -0.168318
C97   C     C_3   0.032182 0.050693 0.488062 -0.169714
C98   C     C_3   0.454299 0.513365 0.472368 -0.134808
C99   C     C_3   0.570835 0.486567 0.414408 -0.145809
C100  C     C_3   0.954125 0.012907 0.472456 -0.134600
H1    H     H_    0.749850 0.630500 0.822501 0.091435
H2    H     H_    0.003279 0.663540 0.818546 0.108580
H3    H     H_    0.002799 0.336336 0.818872 0.105967
H4    H     H_    0.935977 0.629480 0.183834 0.111258
H5    H     H_    0.435817 0.870696 0.183841 0.110343
H6    H     H_    0.503278 0.163539 0.818545 0.108579
H7    H     H_    0.502799 0.836336 0.818872 0.105969
H8    H     H_    0.435979 0.129480 0.183835 0.111260
H9    H     H_    0.071389 0.587873 0.334538 0.084858
H10   H     H_    0.028658 0.411048 0.739721 0.109878
H11   H     H_    0.027869 0.588612 0.737492 0.095542
H12   H     H_    0.185515 0.332541 0.176757 0.084566
H13   H     H_    0.074227 0.411713 0.333891 0.104063
H14   H     H_    0.571389 0.087872 0.334539 0.084861
H15   H     H_    0.528658 0.911048 0.739722 0.109880
H16   H     H_    0.527869 0.088612 0.737492 0.095543
H17   H     H_    0.574228 0.911713 0.333891 0.104066
H18   H     H_    0.726410 0.412615 0.667271 0.092243
H19   H     H_    0.291249 0.588036 0.261674 0.101773
H20   H     H_    0.290456 0.411351 0.262875 0.095503
H21   H     H_    0.726866 0.588053 0.669021 0.085617
H22   H     H_    0.226377 0.912610 0.667312 0.092168
H23   H     H_    0.185679 0.667323 0.176585 0.084125
H24   H     H_    0.791234 0.088040 0.261637 0.101732
H25   H     H_    0.790475 0.911363 0.262833 0.095626
H26   H     H_    0.226795 0.088044 0.669029 0.085699
H27   H     H_    0.404884 0.524277 0.494878 0.113699
H28   H     H_    0.621866 0.475717 0.394428 0.111356
H29   H     H_    0.904604 0.023438 0.495005 0.113786
H30   H     H_    0.122014 0.976559 0.394311 0.111373
H31   H     H_    0.530211 0.433464 0.580036 0.107711
H32   H     H_    0.491525 0.566632 0.304110 0.112830
H33   H     H_    0.471960 0.407678 0.358967 0.107455
H34   H     H_    0.749854 0.369865 0.822333 0.091773
H35   H     H_    0.550510 0.592474 0.525804 0.102668
H36   H     H_    0.030379 0.932832 0.579245 0.107589
H37   H     H_    0.991251 0.067268 0.304949 0.112777
H38   H     H_    0.972331 0.907927 0.357896 0.107582
H39   H     H_    0.049982 0.092227 0.526886 0.102702
H40   H     H_    0.633717 0.337850 0.823972 0.116445
H41   H     H_    0.218791 0.753154 0.177044 0.116421
H42   H     H_    0.218535 0.246552 0.177386 0.116408
H43   H     H_    0.633512 0.662194 0.824251 0.117581
H44   H     H_    0.133717 0.837851 0.823980 0.116448
H45   H     H_    0.249857 0.130513 0.822505 0.091406
H46   H     H_    0.718786 0.253157 0.177037 0.116422
H47   H     H_    0.718534 0.746551 0.177384 0.116413
H48   H     H_    0.133512 0.162194 0.824254 0.117554
H49   H     H_    0.044879 0.747883 0.737309 0.091334
H50   H     H_    0.974098 0.788542 0.753548 0.101424
H51   H     H_    0.868363 0.311090 0.264415 0.088406
H52   H     H_    0.782552 0.354090 0.243885 0.107977
H53   H     H_    0.782774 0.645529 0.244190 0.108803
H54   H     H_    0.868330 0.688634 0.264665 0.088257
H55   H     H_    0.973573 0.211251 0.754181 0.107689
H56   H     H_    0.685519 0.832542 0.176758 0.084579
H57   H     H_    0.043854 0.252064 0.737489 0.089084
H58   H     H_    0.544890 0.247879 0.737306 0.091344
H59   H     H_    0.474101 0.288536 0.753534 0.101422
H60   H     H_    0.368373 0.811082 0.264419 0.088410
H61   H     H_    0.282568 0.854084 0.243897 0.107983
H62   H     H_    0.282784 0.145532 0.244196 0.108798
H63   H     H_    0.368335 0.188640 0.264667 0.088256
H64   H     H_    0.473576 0.711255 0.754175 0.107687
H65   H     H_    0.543863 0.752067 0.737488 0.089090
H66   H     H_    0.104199 0.369404 0.660617 0.087065
H67   H     H_    0.685675 0.167325 0.176583 0.084130
H68   H     H_    0.220712 0.387268 0.749039 0.109802
H69   H     H_    0.125891 0.625434 0.498143 0.090986
H70   H     H_    0.212264 0.586990 0.503067 0.099981
H71   H     H_    0.229506 0.385934 0.595665 0.101269
H72   H     H_    0.112097 0.369477 0.508654 0.088707
H73   H     H_    0.184262 0.588118 0.801478 0.116651
H74   H     H_    0.111191 0.626199 0.681616 0.091815
H75   H     H_    0.604201 0.869404 0.660619 0.087065
H76   H     H_    0.720713 0.887268 0.749041 0.109801
H77   H     H_    0.625892 0.125434 0.498144 0.090988
H78   H     H_    0.249863 0.869848 0.822339 0.091752
H79   H     H_    0.712265 0.086990 0.503067 0.099992
H80   H     H_    0.729503 0.885933 0.595664 0.101261
H81   H     H_    0.612094 0.869477 0.508653 0.088712
H82   H     H_    0.684262 0.088118 0.801478 0.116658
H83   H     H_    0.611190 0.126199 0.681615 0.091813
H84   H     H_    0.935813 0.370697 0.183838 0.110339
N1    N     N_R   0.892620 0.603790 0.941800 -0.039579
N2    N     N_R   0.047790 0.602400 0.942090 -0.038482
N3    N     N_R   0.047790 0.397600 0.942090 -0.040091
N4    N     N_R   0.952210 0.602400 0.057910 -0.041989
N5    N     N_R   0.452210 0.897600 0.057910 -0.042821
N6    N     N_R   0.547790 0.102400 0.942090 -0.038478
N7    N     N_R   0.547790 0.897600 0.942090 -0.040088
N8    N     N_R   0.452210 0.102400 0.057910 -0.041988
N9    N     N_R   0.026300 0.529110 0.206760 -0.037536
N10   N     N_R   0.973700 0.470890 0.793240 -0.045058
N11   N     N_R   0.973700 0.529110 0.793240 -0.039114
N12   N     N_R   0.107380 0.396210 0.058200 -0.037112
N13   N     N_R   0.026300 0.470890 0.206760 -0.042272
N14   N     N_R   0.526300 0.029110 0.206760 -0.037535
N15   N     N_R   0.473700 0.970890 0.793240 -0.045066
N16   N     N_R   0.473700 0.029110 0.793240 -0.039119
N17   N     N_R   0.526300 0.970890 0.206760 -0.042268
N18   N     N_R   0.818530 0.472270 0.792960 -0.033893
N19   N     N_R   0.181470 0.527730 0.207040 -0.039135
N20   N     N_R   0.181470 0.472270 0.207040 -0.039263
N21   N     N_R   0.818530 0.527730 0.792960 -0.034036
N22   N     N_R   0.318530 0.972270 0.792960 -0.033892
N23   N     N_R   0.107380 0.603790 0.058200 -0.036494
N24   N     N_R   0.681470 0.027730 0.207040 -0.039155
N25   N     N_R   0.681470 0.972270 0.207040 -0.039271
N26   N     N_R   0.318530 0.027730 0.792960 -0.034020
N27   N     N_3   0.022692 0.755906 0.788918 -0.233474
N28   N     N_3   0.819031 0.341045 0.210574 -0.226890
N29   N     N_3   0.819149 0.658696 0.210839 -0.226932
N30   N     N_3   0.021927 0.243938 0.789321 -0.232572
N31   N     N_3   0.522698 0.255902 0.788910 -0.233475
N32   N     N_3   0.319043 0.841038 0.210582 -0.226892
N33   N     N_3   0.319157 0.158701 0.210843 -0.226933
N34   N     N_R   0.892620 0.396210 0.941800 -0.039774
N35   N     N_3   0.521932 0.743940 0.789318 -0.232572
N36   N     N_3   0.151047 0.400193 0.714219 -0.218537
N37   N     N_3   0.180949 0.596900 0.544187 -0.209146
N38   N     N_3   0.162766 0.399562 0.527938 -0.226552
N39   N     N_3   0.166328 0.597304 0.721666 -0.206404
N40   N     N_3   0.651048 0.900193 0.714220 -0.218538
N41   N     N_3   0.680951 0.096899 0.544188 -0.209144
N42   N     N_3   0.662764 0.899561 0.527937 -0.226562
N43   N     N_3   0.666328 0.097304 0.721666 -0.206402
N44   N     N_R   0.392620 0.103790 0.941800 -0.039576
N45   N     N_R   0.607380 0.896210 0.058200 -0.037102
N46   N     N_R   0.607380 0.103790 0.058200 -0.036494
N47   N     N_R   0.392620 0.896210 0.941800 -0.039778
N48   N     N_R   0.952210 0.397600 0.057910 -0.042823
Ni1   Ni    Ni4+2 0.934150 0.565840 0.869060 0.210039
Ni2   Ni    Ni4+2 0.065850 0.434160 0.130940 0.207513
Ni3   Ni    Ni4+2 0.065850 0.565840 0.130940 0.205139
Ni4   Ni    Ni4+2 0.934150 0.434160 0.869060 0.209322
Ni5   Ni    Ni4+2 0.434150 0.065840 0.869060 0.210046
Ni6   Ni    Ni4+2 0.565850 0.934160 0.130940 0.207504
Ni7   Ni    Ni4+2 0.565850 0.065840 0.130940 0.205143
Ni8   Ni    Ni4+2 0.434150 0.934160 0.869060 0.209332

loop_
_geom_bond_atom_site_label_1
_geom_bond_atom_site_label_2
_ccdc_geom_bond_type
N1    Ni1   S    
C62   C83   A    
C35   N34   A    
C58   N13   A    
C63   N18   A    
C1    H1    S    
N3    N12   A    
C2    C89   S    
C3    H30   S    
C43   C83   S    
C14   C18   A    
C36   C42   A    
C92   H33   S    
C42   C82   S    
N19   N20   A    
C70   C88   A    
N15   Ni8   S    
C97   C100  S    
C49   H4    S    
C46   C76   A    
C5    C94   S    
C9    H43   S    
N23   Ni3   S    
N17   Ni6   S    
N1    N4    A    
C6    C19   A    
C34   C41   A    
C35   C75   A    
H57   N30   S    
C64   H19   S    
N2    N23   A    
C17   C26   A    
C20   N32   S    
C12   H47   S    
N5    N47   A    
C59   C83   A    
C13   H12   S    
C10   C15   A    
C51   H6    S    
C96   H38   S    
N9    N13   A    
C9    C22   A    
C46   H45   S    
C91   C93   S    
C59   N14   A    
C56   N11   A    
C14   H48   S    
N7    Ni8   S    
C33   C36   A    
C57   N45   A    
C35   H34   S    
C2    C85   S    
C49   N4    A    
C50   N5    A    
N16   Ni5   S    
C8    C27   A    
C62   H17   S    
C15   N27   S    
C25   C75   S    
C60   N15   A    
C4    C96   S    
H69   N37   S    
C52   H7    S    
N24   N25   A    
C39   N42   S    
C49   C72   A    
C12   C17   A    
C50   H5    S    
C94   H36   S    
H75   N40   S    
C71   H26   S    
C46   N44   A    
C3    C96   S    
C45   N48   A    
C22   N35   S    
C28   C78   S    
C56   H11   S    
N3    Ni4   S    
N2    Ni1   S    
C15   C23   A    
N10   N11   A    
H52   N28   S    
H62   N33   S    
N15   N16   A    
C47   H2    S    
C21   N33   S    
H53   N29   S    
C63   C85   A    
N46   Ni7   S    
C18   N30   S    
N6    Ni5   S    
C66   C85   A    
H54   N29   S    
C17   N29   S    
N5    Ni6   S    
C61   N16   A    
C64   C86   A    
C51   N6    A    
C68   N46   A    
C9    C26   A    
C31   C77   S    
C40   C44   A    
C20   C29   A    
C68   C78   A    
C57   H56   S    
C95   H37   S    
C1    C72   A    
H59   N31   S    
H51   N28   S    
C18   C27   A    
N26   Ni5   S    
C57   C77   A    
C65   C86   A    
N25   Ni6   S    
C47   C74   A    
C48   N3    A    
C86   C90   S    
C58   C81   A    
H83   N43   S    
C63   H18   S    
C100  H29   S    
C16   N28   S    
C39   C43   A    
C91   H32   S    
C69   H24   S    
C93   H35   S    
H58   N31   S    
C14   C30   A    
C48   H3    S    
H77   N41   S    
C13   N12   A    
C24   H23   S    
C54   H9    S    
C47   N2    A    
N47   Ni8   S    
C89   C92   S    
C52   N7    A    
C32   C34   A    
H79   N41   S    
H55   N30   S    
C62   N17   A    
N19   Ni3   S    
N8    Ni7   S    
C58   H13   S    
C4    C95   S    
C30   C76   S    
C11   C16   A    
N22   N26   A    
C90   C92   S    
C94   C100  S    
N7    N45   A    
C71   N26   A    
C41   C81   S    
C22   C31   A    
C61   H16   S    
N48   Ni2   S    
C8    C21   A    
C5    C87   S    
C66   H21   S    
C10   H44   S    
C26   C72   S    
H68   N36   S    
C55   C82   A    
C94   C96   S    
C19   C28   A    
N4    Ni3   S    
C36   N39   S    
C79   N47   A    
C32   N36   S    
C69   C88   A    
C38   N41   S    
C71   C87   A    
H63   N33   S    
H64   N35   S    
C98   H27   S    
C64   N19   A    
C5    C97   S    
C2    C99   S    
C4    C100  S    
C12   C31   A    
C38   C43   A    
C53   C76   A    
N22   Ni8   S    
C23   C74   S    
N20   Ni2   S    
C52   C77   A    
H73   N39   S    
C67   H22   S    
H66   N36   S    
C7    H41   S    
H71   N38   S    
C97   H39   S    
C70   H25   S    
N34   N48   A    
C16   C25   A    
C66   N21   A    
N24   Ni7   S    
C69   N24   A    
N10   Ni4   S    
H76   N40   S    
C13   C73   A    
C48   C73   A    
H61   N32   S    
C2    C93   S    
H74   N39   S    
H49   N27   S    
C37   N40   S    
C79   H78   S    
C3    C5    S    
C61   C84   A    
C50   C80   A    
C3    C95   S    
N13   Ni2   S    
C95   C97   S    
C11   H46   S    
C56   C82   A    
C99   H28   S    
C4    C88   S    
C1    N1    A    
H81   N42   S    
C67   N22   A    
C21   C30   A    
C24   N23   A    
C67   C87   A    
C89   H31   S    
C44   C84   S    
C89   C98   S    
C45   C75   A    
C33   C41   A    
H50   N27   S    
C40   N43   S    
N21   Ni1   S    
C51   C78   A    
N34   Ni4   S    
N44   Ni5   S    
C55   H10   S    
C91   C99   S    
C38   C40   A    
C60   C84   A    
C53   H8    S    
C24   C74   A    
C90   C91   S    
C65   N20   A    
N12   Ni2   S    
C11   C28   A    
C37   C44   A    
C59   H14   S    
C7    C23   A    
H80   N42   S    
C65   H20   S    
C90   C98   S    
N14   N17   A    
C19   N31   S    
H70   N37   S    
C6    H40   S    
H82   N43   S    
C53   N8    A    
H72   N38   S    
N14   Ni7   S    
H65   N35   S    
N18   Ni4   S    
C79   C80   A    
C6    C25   A    
C68   H67   S    
C10   C29   A    
N8    N44   A    
C55   N10   A    
C92   C99   S    
C37   C39   A    
C7    C20   A    
C54   N9    A    
C70   N25   A    
C32   C42   A    
N11   Ni1   S    
C60   H15   S    
C8    H42   S    
N18   N21   A    
N6    N46   A    
N45   Ni6   S    
C27   C73   S    
C29   C80   S    
C93   C98   S    
N9    Ni3   S    
C54   C81   A    
C34   N38   S    
C45   H84   S    
C33   N37   S    
H60   N32   S    
