data_mof_unit_40224.cif
_audit_creation_date              2012-12-11T15:39:16-0500
_audit_creation_method            fapswitch 2.2
_symmetry_space_group_name_H-M    P1
_symmetry_Int_Tables_number       1
_space_group_crystal_system       triclinic
_cell_length_a                    17.327683
_cell_length_b                    24.291602
_cell_length_c                    14.92088
_cell_angle_alpha                 89.935815
_cell_angle_beta                  125.261582
_cell_angle_gamma                 90.067477
_cell_volume                      5128.1431829

loop_
_atom_site_label
_atom_site_type_symbol
_atom_type_description
_atom_site_fract_x
_atom_site_fract_y
_atom_site_fract_z
_atom_type_partial_charge
C1    C     C_R   0.353717 0.347200 0.910147 -0.037274
C2    C     C_R   0.439557 0.499767 0.634752 0.008907
C3    C     C_R   0.186405 0.861915 0.997830 0.133209
C4    C     C_R   0.971045 0.999818 0.298637 0.021934
C5    C     C_R   0.926664 0.999591 0.629864 -0.001234
C6    C     C_R   0.174170 0.501852 0.721632 -0.107395
C7    C     C_R   0.804346 0.501215 0.365520 -0.113714
C8    C     C_R   0.673676 0.001531 0.685552 -0.076036
C9    C     C_R   0.297322 0.001627 0.369200 -0.082386
C10   C     C_R   0.025323 0.554812 0.612268 0.137563
C11   C     C_R   0.932543 0.554324 0.522547 0.148959
C12   C     C_R   0.525913 0.054323 0.592769 0.214607
C13   C     C_R   0.647166 0.347936 0.091104 -0.093201
C14   C     C_R   0.429649 0.055269 0.518011 0.122306
C15   C     C_R   0.071846 0.505349 0.662950 0.065469
C16   C     C_R   0.884079 0.504464 0.480781 0.068400
C17   C     C_R   0.572893 0.004054 0.631740 0.046664
C18   C     C_R   0.379072 0.005617 0.481910 0.049872
C19   C     C_R   0.016396 0.458099 0.640267 -0.161819
C20   C     C_R   0.922140 0.457556 0.548465 -0.160946
C21   C     C_R   0.520513 0.957092 0.620309 -0.161027
C22   C     C_R   0.422470 0.958008 0.545291 -0.134739
C23   C     C_3   0.948149 0.599982 0.467168 -0.474965
C24   C     C_R   0.817062 0.867169 0.909504 -0.154067
C25   C     C_3   0.049913 0.600452 0.565064 -0.467908
C26   C     C_3   0.435879 0.101870 0.455861 -0.436574
C27   C     C_3   0.541209 0.100878 0.539067 -0.474186
C28   C     C_R   0.289959 0.769544 0.895547 0.748569
C29   C     C_R   0.707569 0.768515 0.104473 0.751718
C30   C     C_R   0.661086 0.191912 0.899231 0.722515
C31   C     C_R   0.345633 0.186599 0.105046 0.721581
C32   C     C_R   0.606994 0.233311 0.899642 -0.308005
C33   C     C_R   0.391106 0.233155 0.104158 -0.312215
C34   C     C_R   0.238233 0.812757 0.895878 -0.319194
C35   C     C_R   0.189553 0.875214 0.090732 -0.121788
C36   C     C_R   0.766642 0.806406 0.103802 -0.340047
C37   C     C_R   0.637160 0.258471 0.998995 -0.047188
C38   C     C_R   0.361532 0.257708 0.004280 -0.042175
C39   C     C_R   0.259102 0.832889 0.995325 -0.037511
C40   C     C_R   0.749511 0.822538 0.003798 -0.032876
C41   C     C_R   0.446005 0.653106 0.090315 0.728128
C42   C     C_R   0.554630 0.652814 0.909750 0.759556
C43   C     C_R   0.910757 0.135498 0.090742 0.759754
C44   C     C_R   0.098852 0.125457 0.909642 0.772921
C45   C     C_R   0.703910 0.232059 0.097842 -0.328840
C46   C     C_R   0.388320 0.686774 0.999283 -0.044764
C47   C     C_R   0.301961 0.228221 0.906802 -0.346995
C48   C     C_R   0.345022 0.818609 0.092775 -0.359439
C49   C     C_R   0.661354 0.811487 0.906243 -0.373609
C50   C     C_R   0.398499 0.776005 0.093002 0.805541
C51   C     C_R   0.601606 0.773937 0.906982 0.809447
C52   C     C_R   0.757743 0.190216 0.097804 0.791689
C53   C     C_R   0.257118 0.180972 0.907603 0.813599
C54   C     C_R   0.363528 0.745676 0.995860 -0.280060
C55   C     C_R   0.633340 0.745205 0.004477 -0.258973
C56   C     C_R   0.745875 0.176622 0.998904 -0.280919
C57   C     C_R   0.610805 0.686397 0.001133 -0.084474
C58   C     C_R   0.267792 0.165229 0.005094 -0.276513
C59   C     C_R   0.395570 0.549426 0.466092 -0.145511
C60   C     C_R   0.394557 0.549361 0.372708 -0.147090
C61   C     C_R   0.889707 0.049344 0.465875 -0.129681
C62   C     C_R   0.906119 0.049443 0.385782 -0.109878
C63   C     C_R   0.405716 0.499571 0.334041 0.129979
C64   C     C_R   0.406258 0.499630 0.519769 0.127991
C65   C     C_R   0.925311 0.999646 0.355081 0.111561
C66   C     C_R   0.893868 0.999477 0.515650 0.111261
C67   C     C_R   0.395564 0.449728 0.373638 -0.150310
C68   C     C_R   0.821950 0.150011 0.999742 -0.040277
C69   C     C_R   0.396571 0.449728 0.467015 -0.144208
C70   C     C_R   0.906329 0.949701 0.385827 -0.142614
C71   C     C_R   0.890181 0.949621 0.466226 -0.116464
C72   C     C_R   0.479958 0.453752 0.248141 -0.093723
C73   C     C_R   0.454559 0.453980 0.698226 -0.106195
C74   C     C_R   0.998137 0.954144 0.268290 -0.087778
C75   C     C_R   0.946997 0.954099 0.695063 -0.113854
C76   C     C_R   0.233191 0.546881 0.753463 -0.246436
C77   C     C_R   0.754660 0.546369 0.301681 -0.234412
C78   C     C_R   0.732127 0.046612 0.725363 -0.228274
C79   C     C_R   0.190609 0.136654 0.001655 -0.056153
C80   C     C_R   0.249167 0.046261 0.304585 -0.255119
C81   C     C_R   0.479375 0.545844 0.247617 -0.107855
C82   C     C_R   0.454079 0.545687 0.697707 -0.085135
C83   C     C_R   0.995969 0.045696 0.266079 -0.125459
C84   C     C_R   0.945311 0.045310 0.694025 0.013147
C85   C     C_R   0.229930 0.455204 0.746406 0.719571
C86   C     C_R   0.756795 0.454942 0.302704 0.724415
C87   C     C_R   0.730160 0.955182 0.722194 0.680492
C88   C     C_R   0.253263 0.955265 0.305564 0.700287
C89   C     C_R   0.356325 0.653079 0.909007 -0.203635
C90   C     C_R   0.448408 0.499698 0.273540 0.007667
C91   C     C_R   0.644645 0.652616 0.091620 -0.171534
C92   C     C_R   0.818538 0.133966 0.908622 -0.178646
C93   C     C_R   0.190726 0.122950 0.092498 -0.184905
C94   C     C_R   0.443847 0.348064 0.092173 -0.157917
C95   C     C_R   0.555961 0.348161 0.908214 -0.134679
C96   C     C_R   0.910741 0.865378 0.092117 -0.117490
C97   C     C_R   0.096764 0.875294 0.906864 -0.114989
C98   C     C_R   0.383757 0.315564 0.001939 0.120813
C99   C     C_R   0.614935 0.315913 0.999483 0.128876
C100  C     C_R   0.822810 0.850315 0.001697 0.141970
F1    F     F_    0.261679 0.749503 0.796340 -0.685450
F2    F     F_    0.496076 0.668412 0.803635 -0.653220
F3    F     F_    0.960836 0.163748 0.186554 -0.669956
F4    F     F_    0.060148 0.140109 0.804417 -0.668412
F5    F     F_    0.199785 0.402443 0.721138 -0.734906
F6    F     F_    0.769613 0.402337 0.338770 -0.737012
F7    F     F_    0.703711 0.905248 0.672848 -0.720365
F8    F     F_    0.263130 0.903039 0.342683 -0.724671
F9    F     F_    0.728511 0.752384 0.203136 -0.677519
F10   F     F_    0.632306 0.169961 0.801090 -0.732544
F11   F     F_    0.374973 0.165722 0.204146 -0.723465
F12   F     F_    0.481996 0.764705 0.188903 -0.593080
F13   F     F_    0.515438 0.765417 0.812424 -0.600827
F14   F     F_    0.823286 0.165668 0.194548 -0.673799
F15   F     F_    0.202201 0.152317 0.812916 -0.623919
F16   F     F_    0.508559 0.669349 0.195335 -0.642614
H1    H     H_    0.318558 0.332276 0.827172 0.159409
H2    H     H_    0.099153 0.587530 0.543929 0.211160
H3    H     H_    0.402736 0.140258 0.459206 0.213237
H4    H     H_    0.580100 0.088428 0.503610 0.203527
H5    H     H_    0.548162 0.248871 0.821584 0.167100
H6    H     H_    0.443686 0.251887 0.182108 0.170719
H7    H     H_    0.177169 0.826588 0.817778 0.173880
H8    H     H_    0.828241 0.819982 0.181766 0.166957
H9    H     H_    0.721204 0.246662 0.175843 0.179105
H10   H     H_    0.285283 0.243016 0.829126 0.181507
H11   H     H_    0.368386 0.837748 0.170000 0.188422
H12   H     H_    0.685093 0.334311 0.175255 0.166769
H13   H     H_    0.639976 0.829593 0.828855 0.184417
H14   H     H_    0.396767 0.588757 0.500579 0.137394
H15   H     H_    0.395293 0.588617 0.339074 0.132238
H16   H     H_    0.885547 0.088613 0.496792 0.140641
H17   H     H_    0.912090 0.088745 0.356382 0.190431
H18   H     H_    0.397133 0.410462 0.340759 0.118210
H19   H     H_    0.398593 0.410429 0.502259 0.118783
H20   H     H_    0.912103 0.910500 0.355943 0.121013
H21   H     H_    0.886273 0.910331 0.497441 0.131058
H22   H     H_    0.470072 0.411013 0.258580 0.101080
H23   H     H_    0.762573 0.856582 0.826385 0.193347
H24   H     H_    0.438383 0.411589 0.671909 0.098823
H25   H     H_    0.002047 0.912546 0.294804 0.100995
H26   H     H_    0.928944 0.911812 0.668617 0.115255
H27   H     H_    0.215338 0.589608 0.750449 0.163826
H28   H     H_    0.761882 0.588422 0.328992 0.168953
H29   H     H_    0.712714 0.088763 0.703548 0.157776
H30   H     H_    0.252950 0.088005 0.331844 0.163133
H31   H     H_    0.468365 0.588413 0.257230 0.160247
H32   H     H_    0.436948 0.587839 0.670249 0.170598
H33   H     H_    0.995534 0.087503 0.288233 0.204374
H34   H     H_    0.248206 0.870093 0.175410 0.167260
H35   H     H_    0.923701 0.087027 0.665473 0.151042
H36   H     H_    0.321903 0.665416 0.824885 0.246931
H37   H     H_    0.681875 0.664318 0.176479 0.241523
H38   H     H_    0.769691 0.147512 0.825834 0.203816
H39   H     H_    0.247281 0.126166 0.178059 0.220551
H40   H     H_    0.047466 0.420124 0.684726 0.205506
H41   H     H_    0.883960 0.419131 0.525789 0.214808
H42   H     H_    0.554787 0.918679 0.660374 0.188109
H43   H     H_    0.384141 0.919912 0.528003 0.221042
H44   H     H_    0.491173 0.334658 0.176317 0.112467
H45   H     H_    0.939364 0.586838 0.390374 0.208701
H46   H     H_    0.509847 0.335021 0.823748 0.099816
H47   H     H_    0.943693 0.851933 0.175152 0.101078
H48   H     H_    0.068860 0.870714 0.821371 0.105105
H49   H     H_    0.069804 0.639010 0.613813 0.216715
H50   H     H_    0.415398 0.090206 0.372746 0.240320
H51   H     H_    0.568269 0.138504 0.590916 0.244694
H52   H     H_    0.909648 0.638147 0.460148 0.217377
N1    N     N_R   0.394180 0.396910 0.943210 -0.060951
N2    N     N_R   0.474350 0.471570 0.793850 -0.049758
N3    N     N_R   0.025650 0.971570 0.206150 -0.047372
N4    N     N_R   0.974350 0.971570 0.793850 -0.055259
N5    N     N_R   0.319480 0.528420 0.793810 -0.068618
N6    N     N_R   0.680520 0.528420 0.206190 -0.071487
N7    N     N_R   0.819480 0.028420 0.793810 -0.076871
N8    N     N_R   0.180520 0.028420 0.206190 -0.072594
N9    N     N_R   0.525640 0.528390 0.206120 -0.040377
N10   N     N_R   0.474360 0.528390 0.793880 -0.046251
N11   N     N_R   0.025640 0.028390 0.206120 -0.055010
N12   N     N_R   0.605820 0.396910 0.056790 -0.052562
N13   N     N_R   0.974360 0.028390 0.793880 -0.060136
N14   N     N_R   0.319490 0.471590 0.793840 -0.111318
N15   N     N_R   0.680510 0.471590 0.206160 -0.108460
N16   N     N_R   0.819490 0.971590 0.793840 -0.106763
N17   N     N_R   0.180510 0.971590 0.206160 -0.108681
N18   N     N_R   0.394130 0.603080 0.943110 -0.098755
N19   N     N_R   0.605870 0.603080 0.056890 -0.098117
N20   N     N_R   0.894130 0.103080 0.943110 -0.091956
N21   N     N_R   0.105870 0.103080 0.056890 -0.089478
N22   N     N_R   0.450990 0.396900 0.056840 -0.053946
N23   N     N_R   0.894180 0.896910 0.943210 -0.052314
N24   N     N_R   0.549010 0.396900 0.943160 -0.052406
N25   N     N_R   0.950990 0.896900 0.056840 -0.046690
N26   N     N_R   0.049010 0.896900 0.943160 -0.049472
N27   N     N_R   0.105820 0.896910 0.056790 -0.045850
N28   N     N_R   0.450950 0.603070 0.056740 -0.127656
N29   N     N_R   0.549050 0.603070 0.943260 -0.126142
N30   N     N_R   0.950950 0.103070 0.056740 -0.122399
N31   N     N_R   0.049050 0.103070 0.943260 -0.127727
N32   N     N_R   0.525650 0.471570 0.206150 -0.048572
Ni1   Ni    Ni4+2 0.434860 0.434850 0.869700 0.224076
Ni2   Ni    Ni4+2 0.565140 0.434850 0.130300 0.246624
Ni3   Ni    Ni4+2 0.934860 0.934850 0.869700 0.250084
Ni4   Ni    Ni4+2 0.065140 0.934850 0.130300 0.272994
Ni5   Ni    Ni4+2 0.565130 0.565140 0.130240 0.259738
Ni6   Ni    Ni4+2 0.434870 0.565140 0.869760 0.250260
Ni7   Ni    Ni4+2 0.065130 0.065140 0.130240 0.240688
Ni8   Ni    Ni4+2 0.934870 0.065140 0.869760 0.222337

loop_
_geom_bond_atom_site_label_1
_geom_bond_atom_site_label_2
_ccdc_geom_bond_type
C70   H20   S    
C59   H14   S    
C13   C99   A    
C77   N6    A    
C53   C58   A    
N14   Ni1   S    
C21   H42   S    
C14   C18   A    
C19   C20   A    
C50   C54   A    
C47   C53   A    
C38   C98   S    
C25   H2    S    
N23   N25   A    
C44   F4    S    
N8    N17   A    
C71   H21   S    
C46   C89   A    
C27   H4    S    
C15   C19   A    
C29   C36   A    
C26   C27   S    
C85   N14   A    
C6    C85   A    
C30   F10   S    
C60   C63   A    
N1    N22   A    
C31   C58   A    
N18   N28   A    
C76   N5    A    
C36   H8    S    
C91   H37   S    
C41   N28   A    
N12   Ni2   S    
C10   C15   A    
C9    C88   A    
C4    C65   S    
C88   F8    S    
C95   C99   A    
C84   H35   S    
C7    C86   A    
C22   H43   S    
C94   C98   A    
C40   C49   A    
C96   C100  A    
N28   Ni5   S    
C61   C66   A    
C42   C57   A    
C89   N18   A    
C1    N1    A    
N3    Ni4   S    
N2    Ni1   S    
C78   H29   S    
C6    C15   S    
C13   H12   S    
N4    N13   A    
C89   H36   S    
N20   Ni8   S    
C45   H9    S    
C43   C68   A    
C49   C51   A    
N9    N32   A    
C12   C17   A    
N6    Ni5   S    
C41   C46   A    
C31   C33   A    
N5    Ni6   S    
C35   H34   S    
N20   N30   A    
C43   N30   A    
C4    C74   A    
C46   C54   S    
C61   H16   S    
C35   N27   A    
C7    C77   A    
N21   N31   A    
C80   H30   S    
N26   N27   A    
C28   C34   A    
C59   C60   A    
C69   H19   S    
N16   Ni3   S    
C24   C100  A    
C21   C22   A    
C8    C78   A    
C19   H40   S    
N3    N11   A    
N29   Ni6   S    
C86   F6    S    
N23   Ni3   S    
N7    Ni8   S    
C85   F5    S    
C42   F2    S    
C60   H15   S    
C2    C64   S    
C53   F15   S    
C63   C67   A    
C42   N29   A    
C24   H23   S    
N11   Ni7   S    
C33   H6    S    
N18   Ni6   S    
C12   C27   S    
C52   C56   A    
C34   C39   A    
C93   H39   S    
N13   Ni8   S    
C26   H3    S    
C80   N8    A    
N12   N24   A    
C95   H46   S    
C87   N16   A    
C5    C84   A    
C28   C54   A    
N22   Ni2   S    
N27   Ni4   S    
C29   C55   A    
C45   C52   A    
C25   H49   S    
C67   H18   S    
C30   C56   A    
C17   C21   A    
C67   C69   A    
C9    C80   A    
C97   N26   A    
C5    C75   A    
N4    Ni3   S    
C94   N22   A    
C75   H26   S    
C72   N32   A    
C72   C90   A    
C11   C16   A    
C3    C97   A    
C66   C71   A    
C3    C35   A    
C16   C20   A    
C97   H48   S    
C82   N10   A    
C50   F12   S    
C74   N3    A    
C1    H1    S    
C32   C37   A    
C14   C26   S    
C6    C76   A    
C48   C50   A    
N25   Ni4   S    
C38   C47   A    
C70   C71   A    
C2    C73   A    
C95   N24   A    
C81   C90   A    
C58   C79   S    
C10   C25   S    
C88   N17   A    
C74   H25   S    
N19   N29   A    
N5    N14   A    
C93   N21   A    
C20   H41   S    
C55   C57   S    
C86   N15   A    
C2    C82   A    
C41   F16   S    
C37   C45   A    
N1    Ni1   S    
C37   C99   S    
C36   C40   A    
N8    Ni7   S    
C47   H10   S    
C29   F9    S    
C91   N19   A    
C84   N13   A    
C94   H44   S    
C57   C91   A    
C62   C65   A    
N30   Ni7   S    
C18   C22   A    
N15   Ni2   S    
C32   H5    S    
C51   F13   S    
C44   C79   A    
C7    C16   S    
C8    C17   S    
C12   C14   A    
C5    C66   S    
C1    C98   A    
C40   C100  S    
C82   H32   S    
N19   Ni5   S    
C92   N20   A    
C79   C93   A    
C73   H24   S    
C52   F14   S    
C13   N12   A    
C64   C69   A    
C33   C38   A    
C96   H47   S    
C83   N11   A    
C8    C87   A    
C77   H28   S    
C81   N9    A    
C59   C64   A    
C56   C68   S    
C48   H11   S    
C30   C32   A    
C81   H31   S    
C78   N7    A    
C4    C83   A    
C49   H13   S    
N21   Ni7   S    
N26   Ni3   S    
N10   Ni6   S    
C63   C90   S    
C11   C23   S    
N31   Ni8   S    
C68   C92   A    
N9    Ni5   S    
C28   F1    S    
C24   N23   A    
C51   C55   A    
C23   C25   S    
N24   Ni1   S    
C61   C62   A    
C72   H22   S    
C43   F3    S    
C10   C11   A    
C3    C39   S    
C23   H52   S    
C76   H27   S    
C96   N25   A    
C9    C18   S    
C87   F7    S    
C44   N31   A    
N32   Ni2   S    
C26   H50   S    
N17   Ni4   S    
C75   N4    A    
C34   H7    S    
C31   F11   S    
C39   C48   A    
C83   H33   S    
C92   H38   S    
C23   H45   S    
C73   N2    A    
N6    N15   A    
C62   H17   S    
C65   C70   A    
C27   H51   S    
N7    N16   A    
N2    N10   A    
