data_mof_unit_60764.cif
_audit_creation_date              2013-03-05T15:58:37-0500
_audit_creation_method            fapswitch 2.2
_symmetry_space_group_name_H-M    P1
_symmetry_Int_Tables_number       1
_space_group_crystal_system       triclinic
_cell_length_a                    18.858132
_cell_length_b                    19.011262
_cell_length_c                    18.628949
_cell_angle_alpha                 109.439415
_cell_angle_beta                  108.958062
_cell_angle_gamma                 109.952196
_cell_volume                      5145.10261351

loop_
_atom_site_label
_atom_site_type_symbol
_atom_site_description
_atom_site_fract_x
_atom_site_fract_y
_atom_site_fract_z
_atom_type_partial_charge
O1    O     O_R   0.590200 0.537990 0.447840 -0.557973
O2    O     O_R   0.590170 0.642360 0.552180 -0.532104
C1    C     C_R   0.618958 0.618595 0.499616 0.899610
O3    O     O_R   0.409840 0.447810 0.357640 -0.594654
O4    O     O_R   0.409810 0.552180 0.461990 -0.529180
C2    C     C_R   0.380359 0.498490 0.380464 0.864213
Cu1   Cu    Cu3+1 0.500020 0.438210 0.438220 1.128216
Cu2   Cu    Cu3+1 0.499980 0.561790 0.561780 1.239348
O5    O     O_R   0.409830 0.357640 0.447820 -0.577229
O6    O     O_R   0.409800 0.462010 0.552160 -0.522598
O7    O     O_R   0.590190 0.447820 0.538010 -0.561450
O8    O     O_R   0.590160 0.552190 0.642360 -0.538638
C3    C     C_R   0.381422 0.381678 0.500973 0.884549
C4    C     C_R   0.619819 0.501306 0.619191 0.901746
C5    C     C_R   0.275402 0.224838 0.167627 0.048237
C6    C     C_R   0.281772 0.304850 0.181291 0.176602
C7    C     C_R   0.236828 0.334742 0.219368 -0.063702
C8    C     C_R   0.180465 0.281627 0.237324 0.069731
C9    C     C_R   0.172552 0.201060 0.221636 0.223246
C10   C     C_R   0.220969 0.173200 0.188357 0.083006
C11   C     C_R   0.180914 0.421797 0.172882 0.321599
C12   C     C_R   0.186342 0.501170 0.186370 -0.214097
C13   C     C_R   0.258424 0.579687 0.260440 -0.061171
C14   C     C_R   0.323337 0.578011 0.322180 0.332112
C15   C     C_R   0.314980 0.498304 0.311568 -0.197706
C16   C     C_R   0.244875 0.419881 0.235447 -0.057344
C17   C     C_R   0.307024 0.705898 0.236045 0.160509
C18   C     C_R   0.312954 0.785074 0.246913 0.053856
C19   C     C_R   0.286557 0.826321 0.302304 0.068316
C20   C     C_R   0.255010 0.788699 0.346943 0.218302
C21   C     C_R   0.243470 0.706969 0.331209 0.073476
C22   C     C_R   0.267877 0.664689 0.274397 -0.067894
C23   C     C_R   0.753955 0.760887 0.580780 0.268020
C24   C     C_R   0.817729 0.827074 0.582041 0.094853
C25   C     C_R   0.815334 0.816839 0.502897 -0.170334
C26   C     C_R   0.749946 0.742247 0.423532 -0.216688
H1    H     H_    0.749049 0.735650 0.363090 0.202943
C27   C     C_R   0.685203 0.676340 0.420797 0.326194
C28   C     C_R   0.686935 0.685597 0.500027 -0.263672
C29   C     C_R   0.680419 0.502943 0.759944 0.237462
C30   C     C_R   0.745321 0.503980 0.824686 0.232863
C31   C     C_R   0.815048 0.500707 0.814084 -0.267412
C32   C     C_R   0.821134 0.498104 0.739845 0.103306
C33   C     C_R   0.759070 0.502509 0.677773 0.135573
C34   C     C_R   0.687424 0.502299 0.686630 -0.242153
C35   C     C_R   0.251811 0.329759 0.519972 0.272695
C36   C     C_R   0.185375 0.263716 0.515859 0.076147
C37   C     C_R   0.185881 0.186439 0.501485 -0.242439
C38   C     C_R   0.253926 0.175679 0.493629 0.261670
C39   C     C_R   0.318119 0.240092 0.493581 0.251295
C40   C     C_R   0.315926 0.316218 0.504443 -0.306739
O9    O     O_R   0.947830 0.537990 0.090130 -0.541404
O10   O     O_R   0.052220 0.642350 0.090110 -0.590615
C41   C     C_R   0.999270 0.618321 0.118952 0.845209
O11   O     O_R   0.038000 0.447810 0.090170 -0.532890
O12   O     O_R   0.142390 0.552170 0.090150 -0.589325
C42   C     C_R   0.118888 0.501338 0.120067 0.831375
Cu3   Cu    Cu3+1 0.938210 0.438200 0.999980 1.154796
Cu4   Cu    Cu3+1 0.061840 0.561770 0.999960 1.084547
O13   O     O_R   0.947830 0.357620 0.909840 -0.563694
O14   O     O_R   0.052230 0.461980 0.909820 -0.563454
O15   O     O_R   0.857660 0.447800 0.909790 -0.551964
O16   O     O_R   0.962050 0.552160 0.909780 -0.557613
C43   C     C_R   0.002414 0.381590 0.883022 0.815628
C44   C     C_R   0.881351 0.499566 0.880553 0.881283
O17   O     O_R   0.052180 0.909730 0.461910 -0.522617
O18   O     O_R   0.947800 0.909770 0.357550 -0.554748
C45   C     C_R   0.998783 0.880709 0.380585 0.880614
O19   O     O_R   0.962000 0.909720 0.552080 -0.560183
O20   O     O_R   0.857620 0.909750 0.447720 -0.584305
C46   C     C_R   0.881464 0.882668 0.501519 0.819273
Cu5   Cu    Cu3+1 0.061800 0.999890 0.561700 1.154665
Cu6   Cu    Cu3+1 0.938200 0.999930 0.438120 1.126434
O21   O     O_R   0.052200 0.090060 0.642270 -0.564071
O22   O     O_R   0.947820 0.090090 0.537910 -0.581995
O23   O     O_R   0.142380 0.090070 0.552100 -0.551269
O24   O     O_R   0.038000 0.090100 0.447740 -0.540865
C47   C     C_R   0.002179 0.120372 0.619230 0.787273
C48   C     C_R   0.118690 0.119303 0.500658 0.895093
C49   C     C_R   0.003056 0.757884 0.179204 0.110327
C50   C     C_R   0.003294 0.822152 0.243452 0.287613
C51   C     C_R   0.994157 0.811557 0.311749 -0.202646
C52   C     C_R   0.978895 0.734522 0.313329 0.116371
C53   C     C_R   0.978895 0.669609 0.249219 0.136908
C54   C     C_R   0.994925 0.683203 0.184083 -0.218306
C55   C     C_R   0.085683 0.324487 0.825462 0.162343
C56   C     C_R   0.085628 0.261305 0.759088 0.126507
C57   C     C_R   0.005614 0.189330 0.687572 -0.093674
C58   C     C_R   0.927274 0.181796 0.681547 -0.153784
H2    H     H_    0.865760 0.126609 0.626840 0.176540
C59   C     C_R   0.927354 0.244449 0.746402 -0.156612
H3    H     H_    0.865880 0.237626 0.740208 0.177275
C60   C     C_R   0.005772 0.315944 0.817979 -0.091525
I1    I     I_    0.205852 0.049743 0.164905 0.020578
I2    I     I_    0.300071 0.948921 0.324879 0.067587
N1    N     N_R   0.238639 0.835278 0.411611 0.169510
O25   O     O_R   0.179145 0.855800 0.389600 -0.319480
O26   O     O_R   0.285599 0.860195 0.493534 -0.232196
I3    I     I_    0.192693 0.649407 0.397242 -0.063807
N2    N     N_R   0.758977 0.769066 0.661908 0.155659
O27   O     O_R   0.745665 0.826157 0.708386 -0.257435
O28   O     O_R   0.770859 0.715496 0.686341 -0.336693
I4    I     I_    0.915864 0.942617 0.704099 -0.105847
N3    N     N_R   0.617413 0.602154 0.337016 0.156375
O29   O     O_R   0.536471 0.574181 0.316503 -0.296208
O30   O     O_R   0.635559 0.571390 0.276113 -0.283075
N4    N     N_R   0.608007 0.503623 0.769517 0.172232
O31   O     O_R   0.620951 0.564208 0.839668 -0.229843
O32   O     O_R   0.529121 0.441969 0.709656 -0.301788
N5    N     N_R   0.739625 0.507302 0.900712 0.171369
O33   O     O_R   0.670332 0.450092 0.892061 -0.233692
O34   O     O_R   0.802490 0.569243 0.978706 -0.332330
I5    I     I_    0.919354 0.478937 0.716760 -0.169702
I6    I     I_    0.347428 0.181579 0.115054 -0.091836
I7    I     I_    0.778579 0.517848 0.575223 -0.121308
N6    N     N_R   0.255137 0.411252 0.542818 0.167427
O35   O     O_R   0.270656 0.459280 0.620911 -0.253869
O36   O     O_R   0.248858 0.440528 0.488495 -0.322994
I8    I     I_    0.086068 0.284240 0.534136 -0.100661
N7    N     N_R   0.258808 0.099961 0.486561 0.173374
O37   O     O_R   0.191588 0.023357 0.430021 -0.279538
O38   O     O_R   0.330762 0.107423 0.536853 -0.232210
N8    N     N_R   0.386065 0.228092 0.483330 0.173587
O39   O     O_R   0.466497 0.280368 0.545439 -0.292062
O40   O     O_R   0.367434 0.164264 0.412111 -0.265683
I9    I     I_    0.003150 0.772362 0.069575 -0.038183
N9    N     N_R   0.013521 0.898815 0.239508 0.150661
O41   O     O_R   0.945629 0.906132 0.207768 -0.255098
O42   O     O_R   0.086609 0.952330 0.250851 -0.232976
I10   I     I_    0.950155 0.715029 0.410212 -0.148763
I11   I     I_    0.952179 0.551489 0.252841 -0.101697
I12   I     I_    0.206050 0.428558 0.939527 -0.091033
I13   I     I_    0.356704 0.380607 0.141963 -0.025503
I14   I     I_    0.205823 0.278046 0.763665 -0.125103
I15   I     I_    0.104478 0.320820 0.286208 -0.038785
N10   N     N_R   0.113747 0.146512 0.238054 0.170382
O43   O     O_R   0.143367 0.134209 0.303465 -0.314669
O44   O     O_R   0.030388 0.108679 0.187374 -0.229093
N11   N     N_R   0.112713 0.343060 0.093214 0.122942
O45   O     O_R   0.129136 0.307572 0.032553 -0.334093
O46   O     O_R   0.037386 0.301660 0.085693 -0.279342
N12   N     N_R   0.400815 0.657614 0.392657 0.134756
O47   O     O_R   0.398202 0.710977 0.455722 -0.282378
O48   O     O_R   0.475033 0.675049 0.395774 -0.316198
I16   I     I_    0.361707 0.649796 0.166408 -0.085422
I17   I     I_    0.363044 0.842911 0.180686 -0.112877

loop_
_geom_bond_atom_site_label_1
_geom_bond_atom_site_label_2
_geom_bond_distance
_ccdc_geom_bond_type
Cu3   O15   1.974500 S    
O17   C45   1.298793 A    
C56   C57   1.412586 A    
O16   C44   1.293434 A    
O19   Cu5   1.971636 S    
Cu6   O22   1.968358 S    
C30   C31   1.410075 A    
C9    C10   1.406353 A    
O23   C48   1.293293 A    
C11   C16   1.399804 A    
C12   C42   1.458867 S    
N3    O30   1.301382 A    
C50   C51   1.406533 A    
O10   Cu4   1.968573 S    
N8    O39   1.301000 A    
O10   C41   1.301966 A    
O12   C42   1.291366 A    
Cu1   O7    1.971972 S    
C49   C54   1.412048 A    
O4    C2    1.300043 A    
C7    C16   1.487525 S    
C37   C48   1.450951 S    
C26   H1    1.084453 S    
C43   C60   1.458403 S    
C24   C25   1.404788 A    
C20   C21   1.404328 A    
O7    C4    1.293407 A    
N8    O40   1.300254 A    
C38   N7    1.438796 S    
Cu3   O13   1.968455 S    
C5    C6    1.410931 A    
N6    O35   1.301007 A    
C8    C9    1.404086 A    
O19   C46   1.293567 A    
O5    C3    1.298795 A    
N5    O33   1.301155 A    
C20   N1    1.431402 S    
C3    C40   1.461104 S    
O17   Cu5   1.968361 S    
C52   C53   1.402957 A    
C33   I7    2.150408 S    
N7    O38   1.301256 A    
C6    C7    1.412626 A    
N1    O26   1.300809 A    
C31   C44   1.458594 S    
C27   N3    1.437793 S    
N4    O31   1.301154 A    
O20   C46   1.296284 A    
O18   Cu6   1.974708 S    
C21   I3    2.138660 S    
Cu2   O8    1.978450 S    
C58   C59   1.384989 A    
Cu5   O23   1.970554 S    
C36   I8    2.144762 S    
C25   C46   1.448859 S    
C11   C12   1.405730 A    
C50   N9    1.433675 S    
N4    O32   1.300984 A    
C56   I14   2.147162 S    
C5    C10   1.410233 A    
O3    Cu1   1.978451 S    
C6    I13   2.143324 S    
C12   C13   1.416129 A    
N3    O29   1.300196 A    
C15   C16   1.418088 A    
O9    C41   1.290867 A    
C7    C8    1.408779 A    
C4    C34   1.459854 S    
O24   C48   1.296144 A    
C29   C34   1.410701 A    
Cu4   O14   1.974560 S    
O18   C45   1.290734 A    
Cu1   Cu2   2.687146 S    
C23   C24   1.399803 A    
C14   C15   1.406224 A    
C52   I10   2.152239 S    
N10   O44   1.300710 A    
C14   N12   1.439022 S    
C59   H3    1.083764 S    
C19   I2    2.132343 S    
C55   C56   1.407620 A    
C49   C50   1.394553 A    
C9    N10   1.430165 S    
C35   C40   1.414930 A    
O1    C1    1.296849 A    
C25   C26   1.394234 A    
O14   C43   1.294249 A    
C32   C33   1.402131 A    
N9    O42   1.300051 A    
C19   C20   1.408544 A    
C55   C60   1.413577 A    
C59   C60   1.397488 A    
C36   C37   1.406962 A    
C17   I16   2.140737 S    
N1    O25   1.298248 A    
O20   Cu6   1.970552 S    
N2    O28   1.300995 A    
C39   C40   1.410162 A    
C5    I6    2.138017 S    
C8    I15   2.136076 S    
C23   C28   1.416317 A    
C53   C54   1.422785 A    
O9    Cu3   1.974557 S    
C29   N4    1.437163 S    
Cu5   O21   1.974827 S    
C29   C30   1.400560 A    
O8    C4    1.297348 A    
C38   C39   1.398125 A    
C30   N5    1.437131 S    
O11   C42   1.297666 A    
N12   O48   1.299970 A    
O3    C2    1.290223 A    
C31   C32   1.410585 A    
C11   N11   1.436874 S    
N9    O41   1.300991 A    
C33   C34   1.412214 A    
C47   C57   1.456440 S    
Cu1   O5    1.967986 S    
C10   I1    2.135596 S    
C35   C36   1.397131 A    
C18   C19   1.410314 A    
Cu6   O24   1.971636 S    
O15   C44   1.295988 A    
C17   C22   1.410599 A    
O1    Cu1   1.974004 S    
C18   I17   2.138863 S    
C21   C22   1.407414 A    
O2    Cu2   1.967984 S    
C39   N8    1.435204 S    
Cu5   Cu6   2.692336 S    
O6    C3    1.292039 A    
C41   C54   1.462103 S    
N11   O45   1.300247 A    
C53   I11   2.156830 S    
Cu4   O16   1.975833 S    
C24   I4    2.141760 S    
O12   Cu4   1.974501 S    
C35   N6    1.436225 S    
O13   C43   1.297058 A    
C23   N2    1.434504 S    
C45   C51   1.451650 S    
C13   C22   1.484734 S    
C26   C27   1.391504 A    
O2    C1    1.294622 A    
Cu3   Cu4   2.686564 S    
C32   I5    2.149996 S    
N11   O46   1.300488 A    
C55   I12   2.141231 S    
C27   C28   1.415062 A    
C49   I9    2.150078 S    
C37   C38   1.411069 A    
N2    O27   1.300924 A    
N6    O36   1.299967 A    
O22   C47   1.298047 A    
N5    O34   1.300912 A    
C13   C14   1.399506 A    
C1    C28   1.462405 S    
C2    C15   1.460555 S    
C57   C58   1.397435 A    
Cu2   O6    1.974002 S    
C51   C52   1.405385 A    
O21   C47   1.295641 A    
O11   Cu3   1.975931 S    
C17   C18   1.409527 A    
N12   O47   1.300106 A    
O4    Cu2   1.971972 S    
N7    O37   1.299524 A    
N10   O43   1.299301 A    
C58   H2    1.083787 S    
