data_mof_unit_47189.cif
_audit_creation_date              2012-12-11T15:26:08-0500
_audit_creation_method            fapswitch 2.2
_symmetry_space_group_name_H-M    P1
_symmetry_Int_Tables_number       1
_space_group_crystal_system       triclinic
_cell_length_a                    24.472199
_cell_length_b                    17.22102
_cell_length_c                    15.615821
_cell_angle_alpha                 89.706452
_cell_angle_beta                  50.855328
_cell_angle_gamma                 89.57205
_cell_volume                      5103.8371461

loop_
_atom_site_label
_atom_site_type_symbol
_atom_type_description
_atom_site_fract_x
_atom_site_fract_y
_atom_site_fract_z
_atom_type_partial_charge
C1    C     C_R   0.346730 0.137589 0.763410 -0.078965
C2    C     C_R   0.669037 0.902119 0.194638 -0.108091
C3    C     C_R   0.656303 0.131583 0.223061 -0.089470
C4    C     C_R   0.330929 0.900648 0.803624 -0.090651
C5    C     C_R   0.846079 0.636727 0.762739 -0.107323
C6    C     C_R   0.168079 0.399312 0.194744 -0.143544
C7    C     C_R   0.159338 0.626576 0.218776 -0.093687
C8    C     C_R   0.832277 0.396448 0.802974 -0.123885
C9    C     C_2   0.649133 0.245395 0.128536 -0.381866
C10   C     C_2   0.298105 0.881652 0.992298 -0.350335
C11   C     C_2   0.349661 0.249417 0.863619 -0.380688
C12   C     C_2   0.699237 0.883905 0.007391 -0.341292
C13   C     C_2   0.158597 0.739873 0.115171 -0.370907
C14   C     C_2   0.805622 0.362399 0.984625 -0.387277
C15   C     C_2   0.844561 0.747981 0.870136 -0.381767
C16   C     C_2   0.193782 0.370166 0.012395 -0.382685
C17   C     C_2   0.716807 0.265939 0.068475 0.456211
C18   C     C_2   0.232656 0.856076 0.041348 0.397464
C19   C     C_2   0.283112 0.273123 0.916320 0.458660
C20   C     C_2   0.766267 0.861420 0.953641 0.398102
C21   C     C_2   0.214424 0.778396 0.092959 0.448900
C22   C     C_2   0.737556 0.347160 0.036640 0.407618
C23   C     C_2   0.787388 0.786133 0.895538 0.446058
C24   C     C_2   0.261927 0.352877 0.957767 0.407944
C25   C     C_R   0.595509 0.137845 0.591871 -0.123337
C26   C     C_R   0.385745 0.896552 0.407959 -0.122223
C27   C     C_R   0.385155 0.103661 0.408212 -0.130152
C28   C     C_R   0.586267 0.854550 0.592469 -0.123863
C29   C     C_R   0.094027 0.639330 0.591865 -0.121015
C30   C     C_R   0.885562 0.397135 0.408045 -0.122940
C31   C     C_R   0.885358 0.604090 0.408050 -0.129744
C32   C     C_R   0.086657 0.354625 0.592240 -0.124404
C33   C     C_R   0.669598 0.137694 0.408110 -0.136475
C34   C     C_R   0.311468 0.897048 0.591789 -0.133784
C35   C     C_R   0.311053 0.102852 0.591445 -0.145234
C36   C     C_R   0.661077 0.854904 0.407786 -0.128973
C37   C     C_R   0.167644 0.639617 0.408036 -0.129478
C38   C     C_R   0.811353 0.397589 0.591861 -0.135627
C39   C     C_R   0.811048 0.602638 0.591271 -0.118709
C40   C     C_R   0.161208 0.354993 0.407643 -0.127009
C41   C     C_R   0.562108 0.135195 0.230488 -0.161657
C42   C     C_R   0.419418 0.903612 0.808450 -0.181998
C43   C     C_R   0.434021 0.134817 0.772965 -0.161746
C44   C     C_R   0.579303 0.903184 0.192777 -0.161249
C45   C     C_R   0.065796 0.633631 0.225218 -0.161898
C46   C     C_R   0.922209 0.398629 0.804866 -0.177203
C47   C     C_R   0.932192 0.634894 0.774643 -0.162555
C48   C     C_R   0.077089 0.399472 0.195608 -0.152450
C49   C     C_R   0.374120 0.175076 0.806662 0.157998
C50   C     C_R   0.651390 0.893388 0.127256 0.151973
C51   C     C_R   0.625488 0.170936 0.185429 0.167189
C52   C     C_R   0.347435 0.892582 0.872514 0.150225
C53   C     C_R   0.871828 0.675181 0.807542 0.165950
C54   C     C_R   0.148525 0.387394 0.129939 0.169894
C55   C     C_R   0.130904 0.667519 0.179032 0.160265
C56   C     C_R   0.851286 0.383985 0.868513 0.172587
C57   C     C_R   0.647776 0.179929 0.499929 0.044926
C58   C     C_R   0.316906 0.881964 0.499794 0.044983
C59   C     C_R   0.316180 0.118840 0.499767 0.052241
C60   C     C_R   0.636391 0.810113 0.500118 0.041307
C61   C     C_R   0.145460 0.682167 0.499877 0.044063
C62   C     C_R   0.816673 0.383024 0.499918 0.045441
C63   C     C_R   0.816305 0.619063 0.499614 0.048845
C64   C     C_R   0.136692 0.310203 0.499852 0.040679
C65   C     C_R   0.191768 0.158501 0.599622 -0.166201
C66   C     C_R   0.725799 0.705455 0.400149 -0.168878
C67   C     C_R   0.733281 0.286635 0.399763 -0.173222
C68   C     C_R   0.194217 0.839827 0.599583 -0.168381
C69   C     C_R   0.691964 0.659137 0.599895 -0.156629
C70   C     C_R   0.226164 0.205647 0.399757 -0.170176
C71   C     C_R   0.232125 0.787983 0.399498 -0.172490
C72   C     C_R   0.694439 0.339925 0.599857 -0.169266
C73   C     C_R   0.645597 0.705728 0.599988 -0.166466
C74   C     C_R   0.272448 0.158871 0.399691 -0.169763
C75   C     C_R   0.275087 0.839438 0.399493 -0.173679
C76   C     C_R   0.652627 0.286677 0.599850 -0.171949
C77   C     C_R   0.145518 0.205260 0.599582 -0.167566
C78   C     C_R   0.772229 0.658837 0.399944 -0.171170
C79   C     C_R   0.775104 0.339886 0.399761 -0.171561
C80   C     C_R   0.151257 0.788372 0.599557 -0.169057
C81   C     C_R   0.666286 0.736268 0.500104 0.138726
C82   C     C_R   0.258606 0.141955 0.499674 0.138531
C83   C     C_R   0.260159 0.858098 0.499597 0.141828
C84   C     C_R   0.676666 0.253236 0.499830 0.145729
C85   C     C_R   0.166520 0.236258 0.499711 0.140149
C86   C     C_R   0.758648 0.642265 0.499792 0.136635
C87   C     C_R   0.759982 0.359095 0.499829 0.141665
C88   C     C_R   0.174653 0.755437 0.499608 0.141319
H1    H     H_    0.301889 0.153451 0.768973 0.153502
H2    H     H_    0.720866 0.909104 0.170235 0.166844
H3    H     H_    0.707431 0.140913 0.199516 0.148183
H4    H     H_    0.279574 0.905985 0.825611 0.163210
H5    H     H_    0.801413 0.648746 0.767121 0.168265
H6    H     H_    0.220838 0.403772 0.167657 0.155281
H7    H     H_    0.211511 0.626881 0.192382 0.144597
H8    H     H_    0.779856 0.398057 0.828051 0.148105
H9    H     H_    0.573357 0.148280 0.675889 0.084633
H10   H     H_    0.407086 0.899970 0.322828 0.083954
H11   H     H_    0.405921 0.099413 0.323476 0.081275
H12   H     H_    0.555735 0.838960 0.678417 0.095764
H13   H     H_    0.071140 0.650511 0.676072 0.084739
H14   H     H_    0.906874 0.400656 0.322939 0.083033
H15   H     H_    0.906384 0.600448 0.323124 0.081609
H16   H     H_    0.056688 0.339005 0.678003 0.094258
H17   H     H_    0.715221 0.148202 0.324222 0.090775
H18   H     H_    0.264056 0.900884 0.676715 0.091475
H19   H     H_    0.263351 0.097708 0.675883 0.091685
H20   H     H_    0.700377 0.839479 0.322011 0.096050
H21   H     H_    0.211685 0.651971 0.323736 0.112343
H22   H     H_    0.764009 0.401500 0.676843 0.089548
H23   H     H_    0.763218 0.596764 0.675403 0.080312
H24   H     H_    0.200488 0.339634 0.321850 0.094155
H25   H     H_    0.524607 0.150716 0.218242 0.105722
H26   H     H_    0.447878 0.910973 0.839707 0.102932
H27   H     H_    0.464042 0.146049 0.800240 0.096614
H28   H     H_    0.549705 0.910157 0.163279 0.098541
H29   H     H_    0.029785 0.649467 0.209959 0.103070
H30   H     H_    0.951700 0.403551 0.834681 0.099948
H31   H     H_    0.961412 0.646381 0.803335 0.093148
H32   H     H_    0.046468 0.404324 0.167660 0.095064
H33   H     H_    0.177347 0.142319 0.678457 0.112576
H34   H     H_    0.740904 0.723577 0.321470 0.110312
H35   H     H_    0.749548 0.267013 0.321048 0.114626
H36   H     H_    0.178648 0.857961 0.678387 0.111552
H37   H     H_    0.677741 0.643391 0.678724 0.110906
H38   H     H_    0.241498 0.224060 0.321033 0.107944
H39   H     H_    0.248274 0.768734 0.320719 0.151624
H40   H     H_    0.678610 0.358563 0.678646 0.111092
H41   H     H_    0.597579 0.724128 0.678776 0.109666
H42   H     H_    0.321639 0.142941 0.320874 0.106175
H43   H     H_    0.323209 0.857262 0.320690 0.109712
H44   H     H_    0.605450 0.267065 0.678565 0.109088
H45   H     H_    0.097302 0.223373 0.678317 0.111006
H46   H     H_    0.821306 0.642668 0.321105 0.106011
H47   H     H_    0.822785 0.358532 0.320979 0.106631
H48   H     H_    0.103682 0.769372 0.678258 0.107923
H49   H     H_    0.323193 0.867288 0.028122 0.153335
H50   H     H_    0.609391 0.286849 0.146574 0.167955
H51   H     H_    0.673074 0.869484 0.973580 0.155511
H52   H     H_    0.387956 0.287050 0.856035 0.169147
H53   H     H_    0.832597 0.331590 0.009458 0.164336
H54   H     H_    0.128382 0.765304 0.092854 0.163832
H55   H     H_    0.166319 0.344351 0.985700 0.166630
H56   H     H_    0.874286 0.772178 0.893569 0.162050
N1    N     N_R   0.388930 0.078160 0.705470 -0.058012
N2    N     N_R   0.611070 0.921840 0.294530 -0.057705
N3    N     N_R   0.611070 0.078160 0.294530 -0.054952
N4    N     N_R   0.388930 0.921840 0.705470 -0.057349
N5    N     N_R   0.888930 0.578160 0.705470 -0.057725
N6    N     N_R   0.111070 0.421840 0.294530 -0.052098
N7    N     N_R   0.111070 0.578160 0.294530 -0.054893
N8    N     N_R   0.888930 0.421840 0.705470 -0.051241
N9    N     N_R   0.580500 0.077840 0.556650 -0.037715
N10   N     N_R   0.419500 0.922160 0.443350 -0.037450
N11   N     N_R   0.419500 0.077840 0.443350 -0.036007
N12   N     N_R   0.580500 0.922160 0.556650 -0.040046
N13   N     N_R   0.080500 0.577840 0.556650 -0.037845
N14   N     N_R   0.919500 0.422160 0.443350 -0.037468
N15   N     N_R   0.919500 0.577840 0.443350 -0.035597
N16   N     N_R   0.080500 0.422160 0.556650 -0.040175
N17   N     N_R   0.626210 0.077590 0.443410 -0.040489
N18   N     N_R   0.373790 0.922410 0.556590 -0.040453
N19   N     N_R   0.373790 0.077590 0.556590 -0.040997
N20   N     N_R   0.626210 0.922410 0.443410 -0.042075
N21   N     N_R   0.126210 0.577590 0.443410 -0.042433
N22   N     N_R   0.873790 0.422410 0.556590 -0.039272
N23   N     N_R   0.873790 0.577590 0.556590 -0.040991
N24   N     N_R   0.126210 0.422410 0.443410 -0.041680
N25   N     N_R   0.554800 0.077270 0.294580 -0.041597
N26   N     N_R   0.445200 0.922730 0.705420 -0.040418
N27   N     N_R   0.445200 0.077270 0.705420 -0.039754
N28   N     N_R   0.554800 0.922730 0.294580 -0.040433
N29   N     N_R   0.054800 0.577270 0.294580 -0.040676
N30   N     N_R   0.945200 0.422730 0.705420 -0.039263
N31   N     N_R   0.945200 0.577270 0.705420 -0.038327
N32   N     N_R   0.054800 0.422730 0.294580 -0.039875
Ni1   Ni    Ni4+2 0.382710 0.000000 0.629850 0.208260
Ni2   Ni    Ni4+2 0.617290 0.000000 0.370150 0.215985
Ni3   Ni    Ni4+2 0.882710 0.500000 0.629850 0.205259
Ni4   Ni    Ni4+2 0.117290 0.500000 0.370150 0.209678
Ni5   Ni    Ni4+2 0.513020 0.000000 0.629850 0.211426
Ni6   Ni    Ni4+2 0.486980 0.000000 0.370150 0.205863
Ni7   Ni    Ni4+2 0.013020 0.500000 0.629850 0.211830
Ni8   Ni    Ni4+2 0.986980 0.500000 0.370150 0.206678
O1    O     O_3   0.193587 0.886595 0.012958 -0.658424
C89   C     C_3   0.141745 0.936413 0.098454 0.259552
H57   H     H_    0.166709 0.989857 0.099308 0.108449
H58   H     H_    0.110921 0.907574 0.180873 0.085505
C90   C     C_3   0.090633 0.959269 0.078154 -0.914195
H59   H     H_    0.064078 0.906762 0.079335 0.254013
H60   H     H_    0.050056 0.999726 0.143695 0.219465
H61   H     H_    0.119420 0.988159 0.996527 0.255406
O2    O     O_3   0.768918 0.210901 0.033416 -0.663656
C91   C     C_3   0.792939 0.179112 0.931481 0.297600
H62   H     H_    0.785645 0.218470 0.882205 0.082539
H63   H     H_    0.764214 0.124228 0.947515 0.106525
C92   C     C_3   0.871278 0.161373 0.861559 -0.945251
H64   H     H_    0.881390 0.125038 0.909125 0.269412
H65   H     H_    0.889753 0.129923 0.785515 0.213342
H66   H     H_    0.901313 0.216236 0.837763 0.258632
O3    O     O_3   0.805406 0.891748 0.981444 -0.656576
C93   C     C_3   0.858439 0.939232 0.893817 0.256037
H67   H     H_    0.834574 0.992738 0.889336 0.112608
H68   H     H_    0.889431 0.908522 0.812820 0.085424
C94   C     C_3   0.909140 0.962187 0.914433 -0.910668
H69   H     H_    0.933499 0.909414 0.919182 0.253498
H70   H     H_    0.951487 0.999368 0.845806 0.216811
H71   H     H_    0.880532 0.994784 0.993268 0.258887
O4    O     O_3   0.231996 0.221991 0.938129 -0.661719
C95   C     C_3   0.202743 0.181904 0.037841 0.279443
H72   H     H_    0.202216 0.216574 0.098654 0.083591
H73   H     H_    0.233203 0.127535 0.019302 0.108849
C96   C     C_3   0.126906 0.161189 0.092231 -0.927972
H74   H     H_    0.124816 0.127424 0.034035 0.265397
H75   H     H_    0.104230 0.126060 0.167621 0.211615
H76   H     H_    0.094991 0.214993 0.115825 0.256997
O5    O     O_3   0.695403 0.395011 0.027704 -0.656167
C97   C     C_3   0.690234 0.469398 0.070032 0.285557
H77   H     H_    0.739112 0.503047 0.009258 0.105668
H78   H     H_    0.680666 0.465882 0.149932 0.086687
C98   C     C_3   0.628376 0.512470 0.091075 -0.943311
H79   H     H_    0.579029 0.479387 0.150409 0.265192
H80   H     H_    0.622598 0.570565 0.126546 0.208319
H81   H     H_    0.637246 0.519483 0.012399 0.261377
O6    O     O_3   0.255717 0.747155 0.117167 -0.658122
C99   C     C_3   0.313241 0.705758 0.024074 0.220671
H82   H     H_    0.342722 0.740154 0.946555 0.101311
H83   H     H_    0.294774 0.652216 0.010110 0.102568
C100  C     C_3   0.364445 0.683609 0.044541 -0.940122
H84   H     H_    0.338601 0.643844 0.116505 0.249127
H85   H     H_    0.411433 0.654200 0.970680 0.226587
H86   H     H_    0.381914 0.736566 0.061378 0.258359
O7    O     O_3   0.304124 0.395418 0.970892 -0.657322
C101  C     C_3   0.314852 0.470215 0.925423 0.279678
H87   H     H_    0.267801 0.507542 0.983627 0.104202
H88   H     H_    0.326019 0.468248 0.844215 0.085350
C102  C     C_3   0.378280 0.506336 0.906118 -0.937819
H89   H     H_    0.425328 0.468498 0.851135 0.264436
H90   H     H_    0.389366 0.563934 0.866074 0.209069
H91   H     H_    0.367713 0.513397 0.986051 0.262062
O8    O     O_3   0.745572 0.755374 0.872709 -0.648022
C103  C     C_3   0.692597 0.708035 0.962065 0.226637
H92   H     H_    0.664512 0.736912 0.043598 0.096854
H93   H     H_    0.715682 0.653026 0.964305 0.106373
C104  C     C_3   0.638446 0.688873 0.947190 -0.924531
H94   H     H_    0.663392 0.654183 0.870884 0.244603
H95   H     H_    0.594614 0.655068 0.019029 0.224430
H96   H     H_    0.616510 0.743301 0.940968 0.259428

loop_
_geom_bond_atom_site_label_1
_geom_bond_atom_site_label_2
_ccdc_geom_bond_type
C68   C80   A    
C91   H63   S    
N1    N27   A    
C104  H95   S    
C3    N3    A    
N4    Ni1   S    
N7    N29   A    
N2    N28   A    
C36   H20   S    
C18   C21   S    
O3    C93   S    
N6    N32   A    
N4    N26   A    
C8    H8    S    
C59   C82   S    
C7    C55   A    
C72   C76   A    
C10   C52   S    
C68   H36   S    
C79   C87   A    
C97   H77   S    
N11   Ni6   S    
N20   Ni2   S    
C40   H24   S    
C94   H69   S    
C48   C54   A    
C27   H11   S    
C70   H38   S    
C98   H79   S    
C101  H88   S    
C4    C52   A    
C15   C53   S    
C3    H3    S    
C8    N8    A    
C74   C82   A    
C20   O3    S    
C100  H86   S    
C96   H76   S    
C91   C92   S    
C44   C50   A    
C4    N4    A    
N5    Ni3   S    
C5    N5    A    
C46   H30   S    
C35   C59   A    
O8    C103  S    
C60   C81   S    
C2    N2    A    
C92   H65   S    
C11   C19   D    
N18   Ni1   S    
C24   O7    S    
C2    C50   A    
C77   C85   A    
C43   H27   S    
C1    N1    A    
C42   H26   S    
C89   C90   S    
O1    C89   S    
N29   Ni8   S    
N15   N23   A    
N12   N20   A    
C6    H6    S    
C93   C94   S    
C9    C51   S    
C70   C74   A    
C103  H93   S    
C46   N30   A    
C69   C73   A    
C10   H49   S    
C65   H33   S    
N15   Ni8   S    
C38   H22   S    
C42   N26   A    
O7    C101  S    
C104  H96   S    
N16   Ni7   S    
C37   H21   S    
O2    C91   S    
C47   C53   A    
N8    N30   A    
C15   C23   D    
C78   C86   A    
C47   H31   S    
C91   H62   S    
C14   H53   S    
C69   H37   S    
C67   C84   A    
C16   C24   D    
C102  H89   S    
C80   C88   A    
C8    C56   A    
C68   C83   A    
C71   H39   S    
C17   O2    S    
C90   H59   S    
C77   H45   S    
C79   H47   S    
C6    C54   A    
C73   C81   A    
C75   H43   S    
O6    C99   S    
C73   H41   S    
C94   H70   S    
C27   N11   A    
C66   C78   A    
C29   C61   A    
C76   C84   A    
C57   C84   S    
C103  C104  S    
C65   C77   A    
C93   H67   S    
C25   N9    A    
C90   H61   S    
C25   C57   A    
C75   C83   A    
C31   C63   A    
C16   H55   S    
C67   C79   A    
C32   C64   A    
C48   H32   S    
N13   N21   A    
C43   N27   A    
C43   C49   A    
C4    H4    S    
C29   N13   A    
C34   N18   A    
O5    C97   S    
N24   Ni4   S    
C38   C62   A    
C41   N25   A    
C35   N19   A    
C71   C88   A    
N9    N17   A    
N5    N31   A    
C101  C102  S    
C34   H18   S    
C14   C56   S    
C92   H66   S    
C33   N17   A    
C11   H52   S    
C44   N28   A    
N19   Ni1   S    
C100  H84   S    
C11   C49   S    
C61   C88   S    
C45   N29   A    
C26   C58   A    
C9    H50   S    
C12   C50   S    
C38   N22   A    
C20   C23   S    
C96   H74   S    
C28   N12   A    
C12   C20   D    
C66   H34   S    
O4    C95   S    
C12   H51   S    
C29   H13   S    
C37   N21   A    
C13   H54   S    
C9    C17   D    
C34   C58   A    
C78   H46   S    
C44   H28   S    
C28   C60   A    
C93   H68   S    
C30   H14   S    
C26   H10   S    
C7    N7    A    
C25   H9    S    
C22   O5    S    
C72   H40   S    
N23   Ni3   S    
C99   H82   S    
C99   H83   S    
C21   O6    S    
C30   C62   A    
N26   Ni5   S    
C100  H85   S    
C26   N10   A    
C23   O8    S    
C101  H87   S    
C89   H58   S    
C95   C96   S    
C74   H42   S    
C64   C85   S    
C32   H16   S    
C72   C87   A    
C7    H7    S    
C37   C61   A    
N14   N22   A    
C97   C98   S    
N6    Ni4   S    
C94   H71   S    
C45   H29   S    
N32   Ni8   S    
C42   C52   A    
C1    H1    S    
C103  H92   S    
C19   O4    S    
N31   Ni7   S    
N10   N18   A    
C30   N14   A    
N9    Ni5   S    
C36   C60   A    
C89   H57   S    
C67   H35   S    
N30   Ni7   S    
C5    H5    S    
N12   Ni5   S    
N1    Ni1   S    
C33   C57   A    
C98   H81   S    
C99   C100  S    
C39   C63   A    
C62   C87   S    
C18   O1    S    
C95   H73   S    
C17   C22   S    
C80   H48   S    
C33   H17   S    
C97   H78   S    
C98   H80   S    
N11   N19   A    
C14   C22   D    
N8    Ni3   S    
C102  H90   S    
C19   C24   S    
C5    C53   A    
C96   H75   S    
C63   C86   S    
C27   C59   A    
C58   C83   S    
C13   C21   D    
C66   C81   A    
C71   C75   A    
C39   H23   S    
C76   H44   S    
N3    Ni2   S    
C28   H12   S    
C65   C82   A    
C1    C49   A    
C10   C18   D    
C40   C64   A    
N10   Ni6   S    
C41   H25   S    
C3    C51   A    
N16   N24   A    
C39   N23   A    
C92   H64   S    
N27   Ni5   S    
C16   C54   S    
N25   Ni6   S    
C40   N24   A    
C32   N16   A    
C35   H19   S    
C47   N31   A    
N7    Ni4   S    
C15   H56   S    
C6    N6    A    
N28   Ni6   S    
C45   C55   A    
C2    H2    S    
C95   H72   S    
C102  H91   S    
C46   C56   A    
C36   N20   A    
N21   Ni4   S    
N22   Ni3   S    
N13   Ni7   S    
C13   C55   S    
N17   Ni2   S    
C104  H94   S    
C70   C85   A    
N14   Ni8   S    
C41   C51   A    
C31   N15   A    
C69   C86   A    
N3    N25   A    
C31   H15   S    
C90   H60   S    
C48   N32   A    
N2    Ni2   S    
