data_mof_unit_64914.cif
_audit_creation_date              2013-03-05T15:56:56-0500
_audit_creation_method            fapswitch 2.2
_symmetry_space_group_name_H-M    P1
_symmetry_Int_Tables_number       1
_space_group_crystal_system       triclinic
_cell_length_a                    18.665872
_cell_length_b                    19.031249
_cell_length_c                    18.790006
_cell_angle_alpha                 110.342439
_cell_angle_beta                  109.196239
_cell_angle_gamma                 110.036866
_cell_volume                      5062.88997647

loop_
_atom_site_label
_atom_site_type_symbol
_atom_site_description
_atom_site_fract_x
_atom_site_fract_y
_atom_site_fract_z
_atom_type_partial_charge
O1    O     O_R   0.091590 0.143330 0.551700 -0.641495
O2    O     O_R   0.091620 0.039900 0.448280 -0.562338
C1    C     C_R   0.115777 0.119955 0.495852 0.972983
O3    O     O_R   0.091610 0.051730 0.643330 -0.578011
O4    O     O_R   0.091640 0.948310 0.539920 -0.604974
C2    C     C_R   0.122740 0.003119 0.621313 0.971594
Zn1   Zn    Zn3+2 0.999980 0.069060 0.569050 1.026981
Zn2   Zn    Zn3+2 0.000020 0.930940 0.430950 1.038043
O5    O     O_R   0.908380 0.960100 0.551720 -0.607441
O6    O     O_R   0.908410 0.856670 0.448300 -0.626953
O7    O     O_R   0.908360 0.051690 0.460080 -0.649076
O8    O     O_R   0.908390 0.948270 0.356670 -0.594659
C3    C     C_R   0.878307 0.879878 0.498529 0.855344
C4    C     C_R   0.879700 0.999555 0.379224 0.887893
C5    C     C_R   0.282212 0.005998 0.616264 0.290677
C6    C     C_R   0.328384 0.968083 0.590574 -0.187008
H1    H     H_    0.345690 0.974633 0.542656 0.187541
C7    C     C_R   0.349800 0.919288 0.624568 -0.197733
H2    H     H_    0.376416 0.881764 0.597499 0.185724
C8    C     C_R   0.336187 0.918587 0.693013 0.246023
C9    C     C_R   0.302087 0.968506 0.728165 0.012332
C10   C     C_R   0.258605 0.995859 0.678130 -0.021971
C11   C     C_R   0.191924 0.008060 0.690608 -0.197331
C12   C     C_R   0.183828 0.011738 0.764221 0.256200
C13   C     C_R   0.246408 0.008971 0.827724 -0.086951
C14   C     C_R   0.307432 0.990148 0.809854 -0.170045
C15   C     C_R   0.167766 0.181188 0.412930 -0.015061
C16   C     C_R   0.235130 0.245561 0.416121 -0.259425
H3    H     H_    0.228802 0.243053 0.355652 0.144934
C17   C     C_R   0.310798 0.313588 0.497022 -0.005659
C18   C     C_R   0.320371 0.319592 0.575924 -0.163410
H4    H     H_    0.378738 0.373142 0.638675 0.149816
C19   C     C_R   0.253812 0.256881 0.574100 -0.150736
H5    H     H_    0.261956 0.261535 0.635726 0.172413
C20   C     C_R   0.178869 0.186746 0.493275 -0.022534
C21   C     C_R   0.752033 0.920937 0.231216 -0.269239
H6    H     H_    0.753236 0.861596 0.220295 0.142102
C22   C     C_R   0.688485 0.918813 0.164751 0.010845
C23   C     C_R   0.688488 0.997284 0.181229 -0.028227
C24   C     C_R   0.751914 0.075529 0.261635 -0.221513
H7    H     H_    0.751665 0.135503 0.274216 0.151988
C25   C     C_R   0.814337 0.076304 0.327243 -0.131179
H8    H     H_    0.863033 0.137127 0.389571 0.159103
C26   C     C_R   0.814178 0.998996 0.311806 0.013741
C27   C     C_R   0.823964 0.747071 0.502058 -0.166029
H9    H     H_    0.882091 0.745240 0.504399 0.185616
C28   C     C_R   0.762681 0.682664 0.503798 0.273091
C29   C     C_R   0.688213 0.686203 0.501573 -0.139122
C30   C     C_R   0.674852 0.752678 0.496613 -0.190233
H10   H     H_    0.616081 0.753263 0.493780 0.196855
C31   C     C_R   0.735469 0.816951 0.493471 -0.016450
C32   C     C_R   0.811017 0.813843 0.497559 -0.150096
O9    O     O_R   0.448330 0.856720 0.908450 -0.584807
O10   O     O_R   0.551760 0.960180 0.908450 -0.640269
C33   C     C_R   0.502521 0.879888 0.881932 0.974037
O11   O     O_R   0.356660 0.948290 0.908410 -0.615765
O12   O     O_R   0.460090 0.051750 0.908420 -0.575701
C34   C     C_R   0.378528 0.996520 0.877784 0.941823
Zn3   Zn    Zn3+2 0.430940 0.930960 0.000040 1.037530
Zn4   Zn    Zn3+2 0.569060 0.069120 0.000040 1.033798
O13   O     O_R   0.448250 0.039900 0.091630 -0.640912
O14   O     O_R   0.551680 0.143360 0.091630 -0.582711
O15   O     O_R   0.539910 0.948330 0.091670 -0.605073
O16   O     O_R   0.643340 0.051790 0.091670 -0.627619
C35   C     C_R   0.497209 0.120045 0.117346 0.894940
C36   C     C_R   0.620874 0.998968 0.118361 0.920417
O17   O     O_R   0.448280 0.591700 0.540000 -0.611267
O18   O     O_R   0.551730 0.591680 0.643420 -0.617430
C37   C     C_R   0.500480 0.619967 0.620548 0.850831
O19   O     O_R   0.356670 0.408480 0.448390 -0.618746
O20   O     O_R   0.460120 0.408460 0.551810 -0.622943
C38   C     C_R   0.379044 0.379724 0.499106 0.856621
Zn5   Zn    Zn3+2 0.430920 0.500100 0.431040 0.990723
Zn6   Zn    Zn3+2 0.569080 0.500080 0.569140 1.033003
O21   O     O_R   0.448270 0.408490 0.356760 -0.627825
O22   O     O_R   0.551720 0.408480 0.460170 -0.602550
O23   O     O_R   0.539880 0.591710 0.448370 -0.632779
O24   O     O_R   0.643330 0.591700 0.551790 -0.570814
C39   C     C_R   0.499465 0.379880 0.379410 0.878914
C40   C     C_R   0.620913 0.619409 0.499957 0.907713
C41   C     C_R   0.537493 0.833845 0.764911 -0.148500
H11   H     H_    0.562871 0.898477 0.773613 0.167089
C42   C     C_R   0.535198 0.769330 0.699318 -0.163418
H12   H     H_    0.559569 0.784224 0.658292 0.142118
C43   C     C_R   0.502152 0.686016 0.687582 0.008151
C44   C     C_R   0.470782 0.665769 0.739835 -0.191172
H13   H     H_    0.445104 0.600582 0.729850 0.132453
C45   C     C_R   0.470694 0.729531 0.803854 -0.078354
H14   H     H_    0.444615 0.713189 0.843211 0.179752
C46   C     C_R   0.504427 0.813743 0.816694 0.007321
C47   C     C_R   0.485901 0.253317 0.169319 -0.007485
C48   C     C_R   0.487820 0.316860 0.236146 -0.249801
H15   H     H_    0.481388 0.369144 0.229553 0.144974
C49   C     C_R   0.498402 0.313975 0.311896 -0.002097
C50   C     C_R   0.506921 0.247890 0.322603 -0.160803
H16   H     H_    0.514671 0.245612 0.381367 0.157781
C51   C     C_R   0.504059 0.183521 0.256578 -0.203913
H17   H     H_    0.511122 0.132413 0.265359 0.154730
C52   C     C_R   0.494508 0.186228 0.180739 -0.032297
Br1   Br    Br    0.088359 0.020525 0.779173 -0.387270
C53   C     C_2   0.626292 0.834174 0.079863 0.387922
H18   H     H_    0.618900 0.774009 0.077133 0.068231
O25   O     O_2   0.585419 0.830379 0.011698 -0.606300
Br2   Br    Br    0.781311 0.589211 0.503191 -0.464981
C54   C     C_2   0.716575 0.883182 0.481353 0.428394
H19   H     H_    0.754596 0.924735 0.464232 0.066434
O26   O     O_2   0.657085 0.891451 0.489258 -0.562926
Br3   Br    Br    0.276967 0.089264 0.584146 -0.551156
C55   C     C_2   0.473020 0.260235 0.090052 0.377207
H20   H     H_    0.479510 0.320023 0.092356 0.080738
O27   O     O_2   0.452782 0.199988 0.021067 -0.588985
Br4   Br    Br    0.330424 0.824317 0.710488 -0.525758
C56   C     C_2   0.248408 0.024121 0.911970 0.531516
H21   H     H_    0.311199 0.061911 0.973133 0.069147
O28   O     O_2   0.180706 0.990713 0.913533 -0.504658
C57   C     C_2   0.087254 0.112715 0.325317 0.396987
H22   H     H_    0.090142 0.102019 0.265926 0.081368
O29   O     O_2   0.016380 0.070257 0.317768 -0.572520

loop_
_geom_bond_atom_site_label_1
_geom_bond_atom_site_label_2
_geom_bond_distance
_ccdc_geom_bond_type
C9    C14   1.402571 A    
C53   H18   1.085806 S    
C50   H16   1.083765 S    
O22   C39   1.280223 A    
C41   H11   1.083549 S    
O9    Zn3   2.013564 S    
O10   Zn4   2.014824 S    
C27   H9    1.084420 S    
Zn1   O7    2.016354 S    
C54   O26   1.221416 D    
Zn6   O22   2.007820 S    
C42   H12   1.084297 S    
O4    C2    1.286906 A    
C16   H3    1.085076 S    
C33   C46   1.440508 S    
C55   O27   1.218771 D    
C22   C23   1.415840 A    
O7    C4    1.277736 A    
C44   C45   1.381053 A    
O18   Zn6   2.020976 S    
C5    C6    1.397865 A    
C57   H22   1.085745 S    
Zn4   O14   2.013435 S    
C7    H2    1.082710 S    
O5    C3    1.275854 A    
C51   C52   1.398369 A    
C8    Br4   1.907513 S    
C5    C10   1.420288 A    
C28   C29   1.402241 A    
O11   C34   1.266981 A    
C6    H1    1.082725 S    
C30   C31   1.387684 A    
C11   C12   1.420676 A    
C18   C19   1.377164 A    
O17   Zn5   2.007695 S    
C7    C8    1.394012 A    
C31   C54   1.488741 S    
C15   C57   1.485366 S    
C27   C28   1.379749 A    
O15   C36   1.277376 A    
C53   O25   1.217837 D    
C12   Br1   1.945063 S    
C9    C10   1.393404 A    
Zn5   O21   2.021106 S    
C25   C26   1.395892 A    
O3    Zn1   2.029505 S    
C41   C42   1.380398 A    
C51   H17   1.084341 S    
O9    C33   1.282358 A    
Zn3   O13   2.014735 S    
C31   C32   1.409633 A    
C12   C13   1.400106 A    
C35   C52   1.430998 S    
C39   C49   1.429341 S    
O3    C2    1.274758 A    
C23   C24   1.397555 A    
C44   H13   1.084228 S    
O18   C37   1.277901 A    
O12   Zn4   2.012727 S    
C27   C32   1.397153 A    
C15   C20   1.414734 A    
C13   C14   1.409280 A    
C43   C44   1.393492 A    
O1    C1    1.275753 A    
O16   C36   1.279819 A    
C5    Br3   1.901917 S    
C13   C56   1.492236 S    
O20   Zn6   2.005601 S    
C3    C32   1.429901 S    
C18   H4    1.083873 S    
C1    C20   1.435095 S    
Zn2   O8    2.029503 S    
O19   Zn5   2.025778 S    
C48   C49   1.394572 A    
C19   H5    1.084212 S    
C45   H14   1.083285 S    
C14   C34   1.439867 S    
C41   C46   1.402116 A    
C6    C7    1.388890 A    
C24   H7    1.084161 S    
C42   C43   1.392980 A    
C45   C46   1.401062 A    
C23   C36   1.436281 S    
C21   C26   1.394808 A    
C25   H8    1.083561 S    
C21   C22   1.387878 A    
C47   C48   1.387615 A    
C37   C43   1.419154 S    
C4    C26   1.436500 S    
C56   H21   1.083357 S    
O23   C40   1.280422 A    
Zn1   O5    2.016007 S    
O10   C33   1.278686 A    
C21   H6    1.085032 S    
C28   Br2   1.922624 S    
O14   C35   1.275586 A    
O1    Zn1   2.014666 S    
O2    Zn2   2.016007 S    
O8    C4    1.280165 A    
O6    C3    1.276941 A    
O4    Zn2   2.016356 S    
C17   C38   1.429216 S    
C50   C51   1.377516 A    
C22   C53   1.483604 S    
C54   H19   1.083942 S    
Zn3   O15   2.012817 S    
O11   Zn3   2.033182 S    
Zn4   O16   2.033184 S    
C47   C52   1.417886 A    
C29   C40   1.431333 S    
C16   C17   1.395907 A    
O2    C1    1.280969 A    
O20   C38   1.280938 A    
C55   H20   1.085851 S    
C47   C55   1.488634 S    
O12   C34   1.288572 A    
C17   C18   1.391770 A    
C29   C30   1.397944 A    
C2    C11   1.448371 S    
C24   C25   1.381520 A    
C48   H15   1.085179 S    
C19   C20   1.399638 A    
C57   O29   1.219654 D    
O24   C40   1.281424 A    
C49   C50   1.392641 A    
O13   C35   1.279495 A    
C8    C9    1.413683 A    
Zn2   O6    2.014669 S    
C30   H10   1.084800 S    
Zn6   O24   2.025780 S    
C15   C16   1.388992 A    
Zn5   O23   2.005513 S    
C10   C11   1.417807 A    
O19   C38   1.280448 A    
O17   C37   1.278443 A    
O21   C39   1.281003 A    
C56   O28   1.220202 D    
