data_mof_unit_29759.cif
_audit_creation_date              2012-12-11T17:34:22-0500
_audit_creation_method            fapswitch 2.2
_symmetry_space_group_name_H-M    P1
_symmetry_Int_Tables_number       1
_space_group_crystal_system       triclinic
_cell_length_a                    23.856022
_cell_length_b                    7.215993
_cell_length_c                    20.623641
_cell_angle_alpha                 89.996134
_cell_angle_beta                  105.516142
_cell_angle_gamma                 89.98265
_cell_volume                      3420.86559333

loop_
_atom_site_label
_atom_site_type_symbol
_atom_type_description
_atom_site_fract_x
_atom_site_fract_y
_atom_site_fract_z
_atom_type_partial_charge
O1    O     O_R   0.449110 0.494310 0.552140 -0.500421
O2    O     O_R   0.550890 0.994310 0.447860 -0.500138
O3    O     O_R   0.440010 0.824420 0.415850 -0.533127
O4    O     O_R   0.559990 0.324420 0.584150 -0.532860
C1    C     C_R   0.425305 0.655521 0.390900 0.695074
C2    C     C_R   0.574655 0.155477 0.609052 0.698480
O5    O     O_R   0.442260 0.824040 0.549660 -0.547375
O6    O     O_R   0.557740 0.324040 0.450340 -0.547311
O7    O     O_R   0.553160 0.993960 0.582620 -0.533029
O8    O     O_R   0.446840 0.493960 0.417380 -0.536295
C3    C     C_R   0.429366 0.654944 0.568600 0.707140
C4    C     C_R   0.570528 0.154933 0.431284 0.706229
O9    O     O_3   0.536380 0.660670 0.510660 -0.368627
O10   O     O_3   0.463620 0.160670 0.489340 -0.371203
V1    V     V_3+5 0.493250 0.935680 0.498020 1.493825
V2    V     V_3+5 0.506750 0.435680 0.501980 1.492319
C5    C     C_R   0.812442 0.919377 0.156179 -0.226845
C6    C     C_R   0.188646 0.422865 0.845296 -0.216396
H1    H     H_    0.786494 0.799088 0.160218 0.148145
H2    H     H_    0.216365 0.304944 0.843673 0.156896
C7    C     C_R   0.852117 0.909301 0.116956 -0.249354
C8    C     C_R   0.148519 0.411782 0.883883 -0.250152
H3    H     H_    0.855881 0.780107 0.091737 0.169449
H4    H     H_    0.146687 0.285496 0.911567 0.155793
C9    C     C_R   0.886327 0.063351 0.110167 -0.107202
C10   C     C_R   0.112411 0.562842 0.888346 -0.107458
C11   C     C_R   0.879908 0.230095 0.144491 0.259102
C12   C     C_R   0.117274 0.727767 0.852251 0.257878
C13   C     C_R   0.837639 0.241111 0.181952 0.276085
C14   C     C_R   0.156047 0.734361 0.810282 0.276523
C15   C     C_R   0.805405 0.083716 0.189116 0.062078
C16   C     C_R   0.192789 0.583493 0.808758 0.054679
C17   C     C_1   0.764111 0.093463 0.229632 0.049433
C18   C     C_1   0.233980 0.593391 0.768102 0.049415
C19   C     C_1   0.730281 0.105995 0.264075 -0.025330
C20   C     C_1   0.267960 0.605930 0.733834 -0.023583
C21   C     C_R   0.655342 0.967647 0.311053 -0.230904
C22   C     C_R   0.343421 0.467532 0.687654 -0.227643
H5    H     H_    0.659030 0.841623 0.283866 0.109039
H6    H     H_    0.339518 0.341455 0.714710 0.108124
C23   C     C_R   0.615804 0.976337 0.351145 0.362917
C24   C     C_R   0.383412 0.476309 0.648123 0.364795
C25   C     C_R   0.611285 0.141644 0.387152 -0.077185
C26   C     C_R   0.388247 0.641700 0.612312 -0.077598
C27   C     C_R   0.646072 0.294508 0.380309 -0.253576
C28   C     C_R   0.353296 0.794565 0.618785 -0.249034
H7    H     H_    0.643692 0.422758 0.406705 0.159076
H8    H     H_    0.355889 0.922874 0.592510 0.159580
C29   C     C_R   0.684931 0.283535 0.339966 -0.130633
C30   C     C_R   0.313984 0.783512 0.658569 -0.125894
H9    H     H_    0.711303 0.402967 0.335928 0.135812
H10   H     H_    0.287518 0.902978 0.662341 0.136786
C31   C     C_R   0.689882 0.119787 0.305434 0.084481
C32   C     C_R   0.308716 0.619666 0.692898 0.084454
C33   C     C_R   0.642020 0.147466 0.796077 -0.163650
C34   C     C_R   0.359076 0.649062 0.203350 -0.168537
H11   H     H_    0.555433 0.171648 0.731599 0.124952
H12   H     H_    0.445221 0.677737 0.268699 0.123984
H13   H     H_    0.726425 0.140865 0.909020 0.123064
H14   H     H_    0.274698 0.640458 0.089760 0.121177
H15   H     H_    0.627166 0.160010 0.841170 0.116869
H16   H     H_    0.374175 0.664217 0.158519 0.115529
C35   C     C_R   0.618765 0.145918 0.674689 -0.072133
C36   C     C_R   0.381528 0.646087 0.324908 -0.049246
C37   C     C_R   0.903871 0.022106 0.767226 0.151360
C38   C     C_R   0.097898 0.524882 0.233164 0.118129
C39   C     C_R   0.865238 0.003124 0.703699 -0.257473
C40   C     C_R   0.137181 0.499737 0.296102 -0.160965
C41   C     C_R   0.804766 0.018281 0.693750 0.332151
C42   C     C_R   0.197055 0.503568 0.304170 0.319951
C43   C     C_R   0.781949 0.069326 0.748560 0.043240
C44   C     C_R   0.219562 0.559193 0.249627 -0.025570
C45   C     C_R   0.821929 0.077985 0.814551 -0.050222
C46   C     C_R   0.179233 0.572977 0.184110 -0.027547
C47   C     C_R   0.720870 0.103955 0.741427 0.102535
C48   C     C_R   0.280249 0.597534 0.257056 0.087743
C49   C     C_R   0.701409 0.124030 0.800542 0.123940
C50   C     C_R   0.299756 0.621279 0.198248 0.146063
C51   C     C_R   0.741167 0.123517 0.864015 -0.185795
C52   C     C_R   0.259965 0.620826 0.134661 -0.189058
C53   C     C_R   0.800332 0.105208 0.870883 -0.159374
C54   C     C_R   0.200679 0.601861 0.127747 -0.157971
C55   C     C_R   0.678218 0.125351 0.678423 -0.169189
C56   C     C_R   0.322069 0.621446 0.320416 -0.238890
C57   C     C_R   0.601054 0.155302 0.733766 -0.155109
C58   C     C_R   0.399624 0.658303 0.266054 -0.154233
C59   C     C_R   0.882812 0.053981 0.823434 -0.089565
C60   C     C_R   0.118250 0.553493 0.176110 -0.089469
H17   H     H_    0.689414 0.134983 0.631405 0.166147
H18   H     H_    0.309536 0.627513 0.366877 0.154413
H19   H     H_    0.882707 0.969131 0.661773 0.123759
H20   H     H_    0.120829 0.464068 0.338723 0.151558
H21   H     H_    0.829120 0.109760 0.921318 0.099105
H22   H     H_    0.171674 0.608673 0.077466 0.096186
O11   O     O_R   0.053190 0.709680 0.082610 -0.537330
O12   O     O_R   0.946810 0.209680 0.917390 -0.538517
O13   O     O_R   0.057740 0.380240 0.950340 -0.547719
O14   O     O_R   0.942260 0.880240 0.049660 -0.545161
C61   C     C_R   0.070883 0.549501 0.931666 0.714704
C62   C     C_R   0.928860 0.049554 0.068050 0.717045
O15   O     O_R   0.060000 0.379940 0.084150 -0.533197
O16   O     O_R   0.940000 0.879940 0.915850 -0.532332
O17   O     O_R   0.949110 0.210100 0.052140 -0.498072
O18   O     O_R   0.050890 0.710100 0.947860 -0.499847
C63   C     C_R   0.075020 0.548338 0.108992 0.756738
C64   C     C_R   0.925315 0.048345 0.890867 0.755099
O19   O     O_3   0.963630 0.543720 0.989330 -0.371596
O20   O     O_3   0.036370 0.043720 0.010670 -0.374656
V3    V     V_3+5 0.006750 0.268680 0.001980 1.498442
V4    V     V_3+5 0.993250 0.768680 0.998020 1.503951
N1    N     N_3   0.965081 0.001238 0.775092 -0.630702
H23   H     H_    0.977884 0.100337 0.744933 0.228759
H24   H     H_    0.972250 0.870167 0.757202 0.244919
N2    N     N_3   0.036770 0.510934 0.226616 -0.651543
H25   H     H_    0.025719 0.611210 0.257659 0.228985
H26   H     H_    0.028608 0.380645 0.244349 0.238938
O21   O     O_3   0.768234 0.968251 0.632285 -0.660652
H27   H     H_    0.791351 0.934936 0.600538 0.290390
O22   O     O_3   0.231071 0.433109 0.363753 -0.647417
H28   H     H_    0.261225 0.354152 0.352575 0.288728
O23   O     O_3   0.916170 0.377845 0.142318 -0.632415
H29   H     H_    0.920751 0.454334 0.183215 0.300844
O24   O     O_3   0.084121 0.880092 0.858631 -0.629491
H30   H     H_    0.105494 0.994067 0.853199 0.290168
O25   O     O_3   0.826399 0.403888 0.211396 -0.652446
H31   H     H_    0.833705 0.509079 0.184025 0.283896
O26   O     O_3   0.158415 0.884766 0.769594 -0.652416
H32   H     H_    0.119758 0.945289 0.756659 0.294492
O27   O     O_3   0.580801 0.825971 0.354544 -0.644309
H33   H     H_    0.589473 0.723405 0.326706 0.272846
O28   O     O_3   0.418539 0.325930 0.645077 -0.644124
H34   H     H_    0.409604 0.223274 0.672698 0.272704

loop_
_geom_bond_atom_site_label_1
_geom_bond_atom_site_label_2
_ccdc_geom_bond_type
C38   C40   A    
O4    V2    S    
O14   V4    S    
C13   O25   S    
C11   C13   A    
N1    H23   S    
O1    C3    A    
C44   C48   A    
O2    C4    A    
C48   C56   A    
C2    O7    A    
N2    H25   S    
C11   O23   S    
C12   O24   S    
C34   C50   A    
O24   H30   S    
O5    C3    A    
C30   C32   A    
C24   C26   A    
C54   H22   S    
C22   H6    S    
C48   C50   A    
C22   C24   A    
C4    C25   S    
C38   C60   A    
C33   C49   A    
C50   C52   A    
C19   C31   S    
O15   V3    S    
C53   H21   S    
O20   V3    S    
C27   H7    S    
C36   C58   A    
C41   C43   A    
C37   N1    S    
C7    C9    A    
O11   C63   A    
C40   H20   S    
C45   C59   A    
C37   C39   A    
C30   H10   S    
C15   C17   S    
C24   O28   S    
C14   C16   A    
C18   C20   T    
C10   C61   S    
C34   H16   S    
C21   C31   A    
O5    V1    S    
C61   O18   A    
O6    V2    S    
C35   C57   A    
C13   C15   A    
C23   C25   A    
C56   H18   S    
C46   C54   A    
H12   C58   S    
C45   C53   A    
O13   C61   A    
C26   C28   A    
C37   C59   A    
C49   C51   A    
O15   C63   A    
C55   H17   S    
C28   H8    S    
C43   C47   A    
C44   C46   A    
H13   C51   S    
C43   C45   A    
C5    H1    S    
C29   H9    S    
C62   O17   A    
C5    C7    A    
C1    C36   S    
C35   C55   A    
C39   C41   A    
C16   C18   S    
C2    C35   S    
C33   C57   A    
O13   V3    S    
C9    C62   S    
C34   C58   A    
C22   C32   A    
C27   C29   A    
C42   O22   S    
O6    C4    A    
C39   H19   S    
C3    C26   S    
N1    H24   S    
O1    V2    S    
O2    V1    S    
C47   C49   A    
O23   H29   S    
O4    C2    A    
O14   C62   A    
C7    H3    S    
O25   H31   S    
C5    C15   A    
O19   V4    S    
C8    H4    S    
O16   V4    S    
C6    C16   A    
O26   H32   S    
O3    V1    S    
O18   V4    S    
C51   C53   A    
O27   H33   S    
O12   C64   A    
C14   O26   S    
H14   C52   S    
C38   N2    S    
C6    C8    A    
O3    C1    A    
O11   V4    S    
N2    H26   S    
O22   H28   S    
C9    C11   A    
O12   V3    S    
C28   C30   A    
C10   C12   A    
C36   C56   A    
O17   V3    S    
C12   C14   A    
O7    V1    S    
C1    O8    A    
C25   C27   A    
O8    V2    S    
O21   H27   S    
C23   O27   S    
C60   C63   S    
C47   C55   A    
C59   C64   S    
C29   C31   A    
C33   H15   S    
C41   O21   S    
C17   C19   T    
C52   C54   A    
H11   C57   S    
O16   C64   A    
C6    H2    S    
C21   C23   A    
C20   C32   S    
C21   H5    S    
C40   C42   A    
C8    C10   A    
O9    V2    S    
O10   V1    S    
C42   C44   A    
C46   C60   A    
O28   H34   S    
