data_mof_unit_25368.cif
_audit_creation_date              2012-12-11T16:17:56-0500
_audit_creation_method            fapswitch 2.2
_symmetry_space_group_name_H-M    P1
_symmetry_Int_Tables_number       1
_space_group_crystal_system       triclinic
_cell_length_a                    14.047971
_cell_length_b                    14.058545
_cell_length_c                    30.097625
_cell_angle_alpha                 96.995815
_cell_angle_beta                  96.888257
_cell_angle_gamma                 61.351332
_cell_volume                      5164.62714863

loop_
_atom_site_label
_atom_site_type_symbol
_atom_type_description
_atom_site_fract_x
_atom_site_fract_y
_atom_site_fract_z
_atom_type_partial_charge
C1    C     C_R   0.386351 0.710008 0.442009 0.543971
C2    C     C_R   0.409912 0.283394 0.220473 -0.135201
C3    C     C_R   0.425153 0.288395 0.267208 0.048609
C4    C     C_R   0.333248 0.349441 0.292788 -0.040131
C5    C     C_R   0.306919 0.338026 0.198834 -0.040086
C6    C     C_1   0.298405 0.323631 0.150736 -0.004620
C7    C     C_1   0.347753 0.355628 0.341077 0.044521
C8    C     C_1   0.289911 0.303994 0.110980 0.032231
C9    C     C_R   0.764089 0.370237 0.400072 0.014445
C10   C     C_R   0.781037 0.270961 0.376796 -0.089813
C11   C     C_R   0.806998 0.249646 0.332103 -0.079787
C12   C     C_R   0.398767 0.381018 0.426623 0.563897
C13   C     C_R   0.815839 0.327391 0.310573 0.039120
C14   C     C_R   0.806913 0.422607 0.334371 -0.094265
C15   C     C_R   0.782132 0.443658 0.379041 -0.110052
C16   C     C_R   0.833835 0.397636 0.159274 -0.075578
C17   C     C_R   0.860992 0.389772 0.115482 -0.087305
C18   C     C_R   0.890077 0.203973 0.105625 -0.124277
C19   C     C_R   0.862952 0.212086 0.149468 -0.110656
C20   C     C_R   0.838687 0.307563 0.176674 0.040479
C21   C     C_1   0.829699 0.310165 0.223552 0.001907
C22   C     C_1   0.824410 0.315208 0.263263 0.003104
C23   C     C_R   0.709666 0.405977 0.442320 0.547504
C24   C     C_R   0.894096 0.291199 0.088948 0.021680
C25   C     C_R   0.367677 0.765995 0.401098 -0.009418
C26   C     C_R   0.453580 0.774586 0.385552 -0.126684
C27   C     C_R   0.447934 0.802174 0.341755 0.061613
C28   C     C_R   0.353096 0.822226 0.313613 0.012766
C29   C     C_R   0.264170 0.822651 0.330332 -0.131374
C30   C     C_R   0.271181 0.794858 0.373821 -0.117559
C31   C     C_R   0.252856 0.835727 0.152743 -0.114918
C32   C     C_R   0.233297 0.862723 0.108367 -0.116263
C33   C     C_R   0.388043 0.897778 0.117085 -0.126147
C34   C     C_R   0.389695 0.711333 0.568314 0.541989
C35   C     C_R   0.407297 0.870845 0.161485 -0.099472
C36   C     C_R   0.337313 0.843697 0.179636 0.034145
C37   C     C_1   0.345011 0.834973 0.226755 0.016347
C38   C     C_1   0.348921 0.830143 0.266433 0.034014
C39   C     C_R   0.297854 0.898651 0.090769 0.022220
C40   C     C_R   0.366573 0.363047 0.592859 0.001886
C41   C     C_R   0.448824 0.292682 0.622460 -0.155102
C42   C     C_R   0.428933 0.292812 0.666425 -0.122703
C43   C     C_R   0.326584 0.362551 0.681655 0.008159
C44   C     C_R   0.241145 0.427063 0.652115 -0.110066
C45   C     C_R   0.401580 0.382612 0.552083 0.565081
C46   C     C_R   0.259222 0.426654 0.607122 0.042747
C47   C     C_R   0.238103 0.428166 0.841104 -0.143356
C48   C     C_R   0.231157 0.410265 0.885149 0.033767
C49   C     C_R   0.383377 0.228256 0.874561 -0.151756
C50   C     C_R   0.392788 0.247463 0.831317 0.049211
C51   C     C_R   0.315434 0.346709 0.813934 -0.017907
C52   C     C_1   0.309992 0.362358 0.767423 0.063152
C53   C     C_1   0.312329 0.366708 0.728091 0.051431
C54   C     C_R   0.299935 0.305760 0.900928 -0.029783
C55   C     C_1   0.760877 0.376757 0.612668 -0.003310
C56   C     C_R   0.712626 0.407921 0.568600 0.548082
C57   C     C_R   0.911774 0.326670 0.719868 -0.097026
C58   C     C_R   0.932421 0.312355 0.765825 -0.096791
C59   C     C_R   0.760947 0.310931 0.767698 -0.088934
C60   C     C_R   0.740309 0.325188 0.721681 -0.095860
C61   C     C_R   0.815489 0.333528 0.697733 0.036297
C62   C     C_R   0.856839 0.305118 0.789890 0.036894
C63   C     C_1   0.879049 0.292843 0.837351 -0.039153
C64   C     C_1   0.790109 0.354954 0.651089 -0.049596
C65   C     C_1   0.906269 0.282461 0.876724 0.005210
C66   C     C_1   0.376148 0.756723 0.613850 0.001478
C67   C     C_1   0.366381 0.364433 0.380919 0.074798
C68   C     C_R   0.338565 0.732496 0.723946 -0.103802
C69   C     C_R   0.329218 0.748402 0.770675 0.071192
C70   C     C_R   0.359304 0.905873 0.771187 -0.128374
C71   C     C_R   0.368867 0.888409 0.724900 -0.105301
C72   C     C_R   0.357533 0.802319 0.701164 0.010417
C73   C     C_R   0.338950 0.837244 0.794317 0.013996
C74   C     C_1   0.318068 0.867388 0.841091 0.018675
C75   C     C_1   0.367090 0.782503 0.653424 -0.041678
C76   C     C_1   0.295579 0.900098 0.879305 0.038078
C77   C     C_R   0.950609 0.272954 0.048161 0.545402
C78   C     C_R   0.227687 0.405272 0.271220 0.029319
C79   C     C_R   0.275238 0.270239 0.065296 0.558325
C80   C     C_R   0.260505 0.954190 0.048888 0.548157
C81   C     C_R   0.952375 0.269126 0.922082 0.542714
C82   C     C_R   0.277413 0.267419 0.940155 0.562346
C83   C     C_R   0.261633 0.950873 0.922897 0.549755
C84   C     C_R   0.214348 0.399317 0.223683 0.056137
Cr1   Cr    Cr6+3 0.581000 0.584320 0.508140 1.044726
Cr2   Cr    Cr6+3 0.339110 0.576430 0.496080 1.094182
Cr3   Cr    Cr6+3 0.579910 0.339270 0.495810 1.048364
Cr4   Cr    Cr6+3 0.082090 0.079210 0.982490 1.043220
Cr5   Cr    Cr6+3 0.082460 0.324610 0.994920 1.092713
Cr6   Cr    Cr6+3 0.323630 0.087860 0.996130 1.038419
H1    H     H_    0.866538 0.142179 0.162839 0.121658
H2    H     H_    0.915005 0.127029 0.085980 0.134160
H3    H     H_    0.814844 0.175288 0.313794 0.119903
H4    H     H_    0.203643 0.789335 0.385000 0.157871
H5    H     H_    0.527554 0.754263 0.406877 0.175049
H6    H     H_    0.473071 0.876787 0.182265 0.153709
H7    H     H_    0.439323 0.924861 0.104437 0.138009
H8    H     H_    0.160925 0.477450 0.664247 0.162727
H9    H     H_    0.531311 0.242568 0.612718 0.148393
H10   H     H_    0.495065 0.241461 0.689082 0.169206
H11   H     H_    0.970044 0.333730 0.701787 0.119162
H12   H     H_    0.479262 0.236515 0.200395 0.167074
H13   H     H_    0.006897 0.307952 0.782711 0.119075
H14   H     H_    0.701999 0.305439 0.785942 0.143431
H15   H     H_    0.331445 0.665124 0.705048 0.154008
H16   H     H_    0.365684 0.974678 0.788946 0.151889
H17   H     H_    0.863034 0.458361 0.103550 0.149911
H18   H     H_    0.814880 0.471919 0.180304 0.133337
H19   H     H_    0.769614 0.520880 0.395983 0.165350
H20   H     H_    0.767936 0.212839 0.392185 0.151801
O1    O     O_R   0.688580 0.499770 0.460490 -0.511935
O2    O     O_R   0.348600 0.476260 0.536540 -0.463479
O3    O     O_R   0.494840 0.313840 0.539010 -0.521948
O4    O     O_R   0.672120 0.351750 0.545910 -0.500229
O5    O     O_3   0.500010 0.500010 0.500010 -0.265199
O6    O     O_R   0.167510 0.972920 0.030390 -0.513789
O7    O     O_R   0.990840 0.178580 0.027590 -0.505434
O8    O     O_R   0.972840 0.345510 0.038590 -0.502672
O9    O     O_R   0.181550 0.320660 0.045200 -0.468556
O10   O     O_R   0.346150 0.177650 0.050510 -0.515187
O11   O     O_R   0.314200 0.996600 0.036060 -0.501131
O12   O     O_R   0.480400 0.672610 0.462660 -0.504400
O13   O     O_R   0.168690 0.969990 0.933130 -0.492661
O14   O     O_R   0.991920 0.175870 0.937430 -0.494947
O15   O     O_R   0.974010 0.342590 0.941330 -0.496645
O16   O     O_R   0.182630 0.317940 0.955040 -0.460460
O17   O     O_R   0.347320 0.174720 0.953250 -0.520986
O18   O     O_R   0.315290 0.993890 0.945900 -0.497713
O19   O     O_3   0.162730 0.163890 0.991180 -0.263116
O20   O     O_R   0.315310 0.685650 0.451800 -0.503591
O21   O     O_R   0.346220 0.474990 0.446280 -0.476944
O22   O     O_R   0.492270 0.312460 0.441630 -0.490392
O23   O     O_R   0.669740 0.350480 0.455640 -0.494366
O24   O     O_R   0.691150 0.501150 0.557860 -0.495885
O25   O     O_R   0.482790 0.673890 0.552920 -0.494700
O26   O     O_R   0.317880 0.687030 0.549170 -0.496832
C85   C     C_2   0.131168 0.465564 0.298334 0.614483
O27   O     O_2   0.131272 0.529350 0.329816 -0.507616
O28   O     O_R   0.040230 0.449094 0.287758 -0.674664
H21   H     H_    0.979796 0.495164 0.308388 0.336053
H22   H     H_    0.163556 0.862155 0.088862 0.139687
H23   H     H_    0.198668 0.814310 0.166721 0.121951
H24   H     H_    0.191264 0.838493 0.308812 0.131932
C86   C     C_2   0.104897 0.459069 0.200051 0.610639
O29   O     O_2   0.075341 0.414052 0.168300 -0.519943
O30   O     O_R   0.035756 0.567015 0.214167 -0.672844
H25   H     H_    0.963583 0.598513 0.195673 0.336707
C87   C     C_2   0.543862 0.804020 0.326199 0.576127
O31   O     O_2   0.534605 0.851589 0.293240 -0.507109
O32   O     O_R   0.645345 0.752282 0.349887 -0.720455
H26   H     H_    0.704171 0.758991 0.336177 0.349754
C88   C     C_2   0.152727 0.502529 0.913350 0.592002
O33   O     O_2   0.173961 0.511971 0.953737 -0.502777
O34   O     O_R   0.056250 0.581519 0.893362 -0.695703
H27   H     H_    0.010109 0.641065 0.915901 0.345874
H28   H     H_    0.182465 0.505624 0.827632 0.182756
C89   C     C_2   0.164667 0.491600 0.576323 0.583749
O35   O     O_2   0.163014 0.462709 0.536354 -0.501861
O36   O     O_R   0.075238 0.583977 0.593377 -0.698100
H29   H     H_    0.015403 0.620659 0.569273 0.346286
C90   C     C_2   0.481467 0.160220 0.804924 0.565952
O37   O     O_2   0.516814 0.182476 0.774769 -0.540862
O38   O     O_R   0.526747 0.052079 0.815429 -0.718454
H30   H     H_    0.586393 0.000283 0.795315 0.348509
H31   H     H_    0.438988 0.149611 0.886925 0.188131
H32   H     H_    0.665167 0.331103 0.704885 0.119935
C91   C     C_2   0.308600 0.671983 0.793284 0.576363
O39   O     O_2   0.274353 0.614458 0.771074 -0.537729
O40   O     O_R   0.329724 0.663785 0.839648 -0.689355
H33   H     H_    0.312744 0.608534 0.850616 0.344906
H34   H     H_    0.384033 0.942566 0.707628 0.131343
C92   C     C_2   0.538423 0.227205 0.287582 0.584558
O41   O     O_2   0.564383 0.253413 0.325440 -0.528580
O42   O     O_R   0.616627 0.139649 0.262724 -0.699919
H35   H     H_    0.690126 0.103662 0.280014 0.335735
H36   H     H_    0.813398 0.483225 0.317758 0.135233

loop_
_geom_bond_atom_site_label_1
_geom_bond_atom_site_label_2
_ccdc_geom_bond_type
C58   C62   A    
C55   C56   S    
C63   C65   T    
C89   O35   D    
C12   O21   A    
C41   C42   A    
C15   H19   S    
Cr2   O2    S    
C35   C36   A    
C83   O18   A    
Cr4   O14   S    
C34   C66   S    
C90   O37   D    
C45   O2    A    
C91   O40   S    
Cr5   O15   S    
C35   H6    S    
C52   C53   T    
C40   C46   A    
C56   O24   A    
C85   O28   S    
C26   C27   A    
C33   C39   A    
C74   C76   T    
C18   C24   A    
C59   H14   S    
C36   C37   S    
C37   C38   T    
C87   O32   S    
C77   O7    A    
C17   H17   S    
C5    C6    S    
Cr2   O21   S    
C47   H28   S    
C2    H12   S    
C49   C54   A    
C29   H24   S    
C26   H5    S    
Cr5   O19   S    
C18   C19   A    
C73   C74   S    
C32   C39   A    
Cr3   O23   S    
O42   H35   S    
C82   O16   A    
Cr3   O4    S    
C14   H36   S    
C1    O12   A    
Cr6   O19   S    
C44   H8    S    
C43   C53   S    
Cr5   O9    S    
C92   O42   S    
C27   C87   S    
C79   O9    A    
C8    C79   S    
Cr6   O17   S    
C41   H9    S    
C69   C73   A    
C70   C71   A    
C28   C38   S    
C9    C10   A    
C31   C36   A    
Cr3   O5    S    
C68   C72   A    
Cr1   O24   S    
Cr5   O16   S    
C11   H3    S    
C59   C60   A    
C89   O36   S    
C21   C22   T    
C55   C64   T    
C50   C90   S    
C1    C25   S    
Cr4   O19   S    
C70   C73   A    
C4    C7    S    
C76   C83   S    
C90   O38   S    
C44   C46   A    
C80   O11   A    
C40   C45   S    
C12   C67   S    
C17   C24   A    
C23   O23   A    
C81   O14   A    
C51   C52   S    
O40   H33   S    
C80   O6    A    
Cr1   O5    S    
C87   O31   D    
C86   O30   S    
C1    O20   A    
C70   H16   S    
C91   O39   D    
C5    C84   A    
Cr2   O20   S    
C47   C51   A    
Cr1   O1    S    
C25   C26   A    
C46   C89   S    
C78   C84   A    
C60   H32   S    
Cr2   O5    S    
Cr6   O10   S    
Cr3   O22   S    
Cr4   O6    S    
C61   C64   S    
C48   C54   A    
C43   C44   A    
C69   C91   S    
C4    C78   A    
C29   C30   A    
C42   H10   S    
Cr4   O13   S    
C65   C81   S    
O36   H29   S    
C34   O26   A    
C16   C20   A    
C79   O10   A    
C20   C21   S    
C62   C63   S    
C50   C51   A    
O34   H27   S    
Cr1   O12   S    
C88   O33   D    
C32   H22   S    
Cr1   O25   S    
C56   O4    A    
Cr2   O26   S    
C40   C41   A    
C88   O34   S    
C49   H31   S    
C77   O8    A    
C48   C88   S    
Cr6   O11   S    
C71   H34   S    
C2    C5    A    
C42   C43   A    
C3    C4    A    
C78   C85   S    
C54   C82   S    
C23   O1    A    
C92   O41   D    
O30   H25   S    
C25   C30   A    
C28   C29   A    
C59   C62   A    
Cr6   O18   S    
C12   O22   A    
C81   O15   A    
O32   H26   S    
C68   C69   A    
C31   C32   A    
C9    C23   S    
C86   O29   D    
C47   C48   A    
C6    C8    T    
O28   H21   S    
C57   C61   A    
C57   H11   S    
C85   O27   D    
C18   H2    S    
C39   C80   S    
C19   C20   A    
C2    C3    A    
C9    C15   A    
C71   C72   A    
C30   H4    S    
C11   C13   A    
C72   C75   S    
C57   C58   A    
C16   C17   A    
C34   O25   A    
C31   H23   S    
C66   C75   T    
C33   C35   A    
C13   C22   S    
C10   H20   S    
C33   H7    S    
C3    C92   S    
C82   O17   A    
Cr3   O3    S    
O38   H30   S    
C19   H1    S    
C10   C11   A    
C16   H18   S    
C7    C67   T    
C45   O3    A    
C24   C77   S    
Cr5   O8    S    
C49   C50   A    
C68   H15   S    
C27   C28   A    
C84   C86   S    
C14   C15   A    
C60   C61   A    
C58   H13   S    
C83   O13   A    
Cr4   O7    S    
C13   C14   A    
