data_mof_unit_57996.cif
_audit_creation_date              2012-12-10T19:25:05-0500
_audit_creation_method            fapswitch 2.2
_symmetry_space_group_name_H-M    P1
_symmetry_Int_Tables_number       1
_space_group_crystal_system       triclinic
_cell_length_a                    15.718364
_cell_length_b                    10.494104
_cell_length_c                    9.76306
_cell_angle_alpha                 90.455538
_cell_angle_beta                  90.139331
_cell_angle_gamma                 90.023312
_cell_volume                      1610.36237063

loop_
_atom_site_label
_atom_site_type_symbol
_atom_type_description
_atom_site_fract_x
_atom_site_fract_y
_atom_site_fract_z
_atom_type_partial_charge
C1    C     C_R   0.499990 0.257485 0.499392 0.855767
C2    C     C_3   0.512476 0.613489 0.952450 -0.080499
C3    C     C_3   0.559318 0.427091 0.950891 -0.064304
C4    C     C_3   0.440666 0.572912 0.049108 -0.071858
C5    C     C_3   0.428114 0.459468 0.950840 -0.074838
C6    C     C_3   0.571870 0.540548 0.049150 -0.066700
C7    C     C_R   0.338100 0.499688 0.499786 0.895147
C8    C     C_R   0.661929 0.500246 0.500224 0.894666
C9    C     C_3   0.971887 0.413613 0.590535 -0.258541
C10   C     C_3   0.028098 0.590631 0.411895 -0.331499
C11   C     C_3   0.027174 0.384032 0.462551 -0.336664
C12   C     C_R   0.499935 0.742512 0.500610 0.854117
C13   C     C_3   0.972345 0.619361 0.540181 -0.347155
C14   C     C_1   0.249222 0.499089 0.499216 -0.197271
C15   C     C_1   0.750866 0.501476 0.500941 -0.186783
C16   C     C_3   0.028827 0.529032 0.624785 0.578345
C17   C     C_3   0.971611 0.474876 0.377329 0.586263
C18   C     C_3   0.083124 0.499980 0.499183 0.051236
C19   C     C_3   0.917056 0.503193 0.502916 0.092500
C20   C     C_1   0.173949 0.498981 0.498809 -0.037492
C21   C     C_1   0.826174 0.502540 0.501978 0.002468
C22   C     C_3   0.569888 0.043047 0.564945 -0.180112
C23   C     C_3   0.569989 0.956997 0.435937 -0.176783
C24   C     C_3   0.429938 0.956936 0.435073 -0.184198
C25   C     C_3   0.998568 0.413676 0.154605 0.086082
C26   C     C_3   0.959485 0.398609 0.012725 -0.764133
C27   C     C_3   0.094134 0.673440 0.770908 0.109384
C28   C     C_3   0.143621 0.684586 0.904535 -0.844490
C29   C     C_3   0.429837 0.042998 0.564079 -0.181191
C30   C     C_3   0.499899 0.877660 0.501757 0.035188
C31   C     C_3   0.499934 0.122331 0.498257 0.035735
C32   C     C_3   0.499794 0.961020 0.630928 -0.140040
C33   C     C_3   0.500031 0.038968 0.369088 -0.138256
C34   C     C_3   0.487502 0.386518 0.047544 -0.078618
H1    H     H_    0.626963 0.917108 0.384063 0.133368
H2    H     H_    0.049379 0.487446 0.149138 0.141634
H3    H     H_    0.933311 0.491190 0.977856 0.267587
H4    H     H_    0.008821 0.366128 0.939146 0.233492
H5    H     H_    0.907556 0.326852 0.014887 0.239826
H6    H     H_    0.041123 0.743587 0.773691 0.136675
H7    H     H_    0.138091 0.697175 0.685489 0.140585
H8    H     H_    0.196828 0.614926 0.905183 0.256743
H9    H     H_    0.170130 0.782241 0.915575 0.202371
H10   H     H_    0.100968 0.665506 0.992537 0.250516
H11   H     H_    0.626778 0.082981 0.617529 0.130701
H12   H     H_    0.372862 0.082882 0.615954 0.130476
H13   H     H_    0.373048 0.916988 0.382499 0.128007
H14   H     H_    0.609228 0.365665 0.904610 0.121091
H15   H     H_    0.390715 0.634301 0.095344 0.118842
H16   H     H_    0.476950 0.290876 0.092237 0.116772
H17   H     H_    0.523014 0.709132 0.907751 0.117541
H18   H     H_    0.367552 0.425320 0.904699 0.126023
H19   H     H_    0.632399 0.574809 0.095291 0.132466
H20   H     H_    0.499686 0.925269 0.737665 0.133365
H21   H     H_    0.500130 0.074712 0.262348 0.133534
H22   H     H_    0.051120 0.288862 0.430638 0.147835
H23   H     H_    0.947650 0.713990 0.572456 0.147747
H24   H     H_    0.947158 0.343720 0.665383 0.152602
H25   H     H_    0.052858 0.661097 0.337711 0.153293
H26   H     H_    0.027213 0.320801 0.183801 0.134555
N1    N     N_3   0.499940 0.500030 0.863290 -0.073531
N2    N     N_3   0.500060 0.499970 0.136710 -0.073711
O1    O     O_R   0.500000 0.313960 0.616610 -0.621650
O2    O     O_3   0.061546 0.548707 0.758052 -0.625971
O3    O     O_R   0.500000 0.686040 0.383390 -0.621738
O4    O     O_R   0.500040 0.313950 0.383350 -0.628678
O5    O     O_R   0.499960 0.686050 0.616650 -0.629243
O6    O     O_R   0.376760 0.499990 0.616610 -0.613380
O7    O     O_R   0.623240 0.500010 0.383390 -0.608481
O8    O     O_R   0.376790 0.499980 0.383350 -0.616954
O9    O     O_R   0.623210 0.500020 0.616650 -0.616784
O10   O     O_3   0.934496 0.449035 0.248331 -0.611666
Zn1   Zn    Zn3+2 0.499980 0.500010 0.655740 0.938077
Zn2   Zn    Zn3+2 0.500020 0.499990 0.344260 0.940589

loop_
_geom_bond_atom_site_label_1
_geom_bond_atom_site_label_2
_ccdc_geom_bond_type
C33   H21   S    
C11   C18   S    
C1    C31   S    
C3    C6    S    
C7    O8    A    
C8    O7    A    
C22   C32   S    
C19   C21   S    
C9    C16   S    
C29   C32   S    
C26   H5    S    
C13   H23   S    
C10   C17   S    
O4    Zn2   S    
C4    N2    S    
C3    H14   S    
C34   N2    S    
C9    H24   S    
C24   C29   S    
C7    O6    A    
C9    C19   S    
C7    C14   S    
C23   C33   S    
O8    Zn2   S    
C31   C33   S    
C5    H18   S    
O5    Zn1   S    
C25   H26   S    
C2    N1    S    
C2    C6    S    
C1    O1    A    
C32   H20   S    
C3    N1    S    
C12   O5    A    
C34   H16   S    
C22   C31   S    
C13   C19   S    
C23   C30   S    
C14   C20   T    
C2    H17   S    
O9    Zn1   S    
C26   H4    S    
O1    Zn1   S    
C3    C34   S    
N1    Zn1   S    
O6    Zn1   S    
C28   H10   S    
O3    Zn2   S    
C2    C4    S    
C27   H7    S    
C27   H6    S    
C5    C34   S    
C1    O4    A    
C5    N1    S    
O7    Zn2   S    
C25   O10   S    
C9    C11   S    
C8    C15   S    
C23   H1    S    
C6    H19   S    
C11   C17   S    
C8    O9    A    
C12   C30   S    
C24   H13   S    
C4    C5    S    
C10   C13   S    
C26   H3    S    
C12   O3    A    
C4    H15   S    
C28   H9    S    
C24   C33   S    
C29   H12   S    
C6    N2    S    
C10   H25   S    
C25   C26   S    
C29   C31   S    
C30   C32   S    
C10   C18   S    
C28   H8    S    
C17   C19   S    
C18   C20   S    
C24   C30   S    
C27   O2    S    
C25   H2    S    
C15   C21   T    
C22   H11   S    
C17   O10   S    
C16   C18   S    
C13   C16   S    
C27   C28   S    
C22   C23   S    
N2    Zn2   S    
C16   O2    S    
C11   H22   S    
