data_mof_unit_33147.cif
_audit_creation_date              2012-12-10T18:57:09-0500
_audit_creation_method            fapswitch 2.2
_symmetry_space_group_name_H-M    P1
_symmetry_Int_Tables_number       1
_space_group_crystal_system       triclinic
_cell_length_a                    8.750317
_cell_length_b                    10.800803
_cell_length_c                    9.561811
_cell_angle_alpha                 89.963099
_cell_angle_beta                  97.524712
_cell_angle_gamma                 90.733661
_cell_volume                      895.834967902

loop_
_atom_site_label
_atom_site_type_symbol
_atom_type_description
_atom_site_fract_x
_atom_site_fract_y
_atom_site_fract_z
_atom_type_partial_charge
C1    C     C_R   0.501458 0.262528 0.500284 0.793813
C2    C     C_R   0.578224 0.936476 0.399565 -0.228880
C3    C     C_R   0.509781 0.871083 0.502696 -0.084849
C4    C     C_R   0.458415 0.936024 0.613288 0.125044
C5    C     C_3   0.304278 0.929680 0.664837 -0.483028
C6    C     C_3   0.306779 0.070014 0.665908 -0.483630
C7    C     C_R   0.598003 0.576355 0.085187 0.242691
C8    C     C_R   0.410672 0.417597 0.064519 0.522514
C9    C     C_R   0.409597 0.419731 0.914402 -0.186258
C10   C     C_R   0.598739 0.575718 0.937888 0.246443
C11   C     C_3   0.602232 0.713449 0.931357 -0.491969
C12   C     C_R   0.204739 0.504344 0.464320 0.771782
C13   C     C_3   0.598995 0.714430 0.088884 -0.512341
C14   C     C_R   0.500772 0.737618 0.500143 0.768664
C15   C     C_R   0.795946 0.501825 0.535447 0.897744
C16   C     C_2   0.040885 0.523479 0.444745 0.283804
C17   C     C_2   0.961477 0.499090 0.552831 -0.489894
C18   C     C_R   0.459719 0.063620 0.613478 0.138996
C19   C     C_R   0.511486 0.129494 0.503096 -0.091787
C20   C     C_R   0.578756 0.065588 0.399449 -0.242212
Cu1   Cu    Cu3+1 0.499990 0.499980 0.640670 0.934682
Cu2   Cu    Cu3+1 0.500010 0.500020 0.359330 0.996149
H1    H     H_    0.332392 0.359139 0.847684 0.157815
H2    H     H_    0.711886 0.750080 0.899656 0.194150
H3    H     H_    0.496051 0.752043 0.872300 0.217257
H4    H     H_    0.706068 0.753383 0.147646 0.197471
H5    H     H_    0.490394 0.752864 0.118576 0.210458
H6    H     H_    0.019256 0.472591 0.655958 0.148931
H7    H     H_    0.627393 0.114964 0.316682 0.157403
H8    H     H_    0.627795 0.888367 0.317757 0.152013
H9    H     H_    0.212982 0.889216 0.585475 0.185294
H10   H     H_    0.309540 0.889525 0.772226 0.192240
H11   H     H_    0.216382 0.111538 0.587901 0.194155
H12   H     H_    0.316746 0.110141 0.773552 0.199237
N1    N     N_R   0.500980 0.500930 0.148050 -0.237237
N2    N     N_R   0.500990 0.500890 0.852140 -0.207600
O1    O     O_R   0.500000 0.319640 0.618810 -0.583007
O2    O     O_R   0.500020 0.319680 0.381230 -0.564961
O3    O     O_R   0.274830 0.499980 0.591380 -0.612721
O4    O     O_R   0.274850 0.500020 0.353800 -0.514053
O5    O     O_R   0.499980 0.680320 0.618770 -0.582786
O6    O     O_R   0.500000 0.680360 0.381190 -0.595906
O7    O     O_R   0.725150 0.499980 0.646200 -0.587777
O8    O     O_R   0.725170 0.500020 0.408620 -0.522161
O9    O     O_3   0.969668 0.562615 0.314040 -0.542648
C21   C     C_3   0.017497 0.685327 0.286780 0.104598
H13   H     H_    0.124603 0.717997 0.353694 0.096578
H14   H     H_    0.924955 0.749707 0.306695 0.127670
C22   C     C_3   0.045202 0.695600 0.133272 -0.771277
H15   H     H_    0.070199 0.793500 0.107742 0.183753
H16   H     H_    0.145114 0.638192 0.114906 0.260881
H17   H     H_    0.942035 0.662882 0.062442 0.244742
O10   O     O_3   0.307479 0.343838 0.126611 -0.537963
C23   C     C_3   0.312533 0.217970 0.085966 0.057776
H18   H     H_    0.337269 0.161544 0.183148 0.182259
H19   H     H_    0.404187 0.195711 0.019434 0.099366
C24   C     C_3   0.155437 0.177170 0.011438 -0.839042
H20   H     H_    0.125239 0.231383 0.913296 0.238445
H21   H     H_    0.157609 0.077350 0.984041 0.205433
H22   H     H_    0.065762 0.191478 0.081803 0.263736

loop_
_geom_bond_atom_site_label_1
_geom_bond_atom_site_label_2
_ccdc_geom_bond_type
C16   O9    S    
C12   O4    A    
C7    C10   A    
C9    N2    A    
C19   C20   A    
Cu1   O3    S    
C6    H11   S    
C1    O1    A    
C14   O6    A    
C22   H17   S    
Cu2   O4    S    
C5    H10   S    
C12   O3    A    
C2    C3    A    
C8    C9    A    
C8    O10   S    
C4    C18   A    
Cu1   N2    S    
Cu1   O7    S    
O10   C23   S    
Cu2   N1    S    
C11   C13   S    
C21   C22   S    
C24   H20   S    
Cu2   O6    S    
C3    C14   S    
Cu2   O8    S    
C1    O2    A    
C14   O5    A    
Cu1   O5    S    
C4    C5    S    
C15   O8    A    
C18   C19   A    
C23   H19   S    
C20   H7    S    
C5    C6    S    
C6    C18   S    
C21   H14   S    
C13   H4    S    
C24   H21   S    
C1    C19   S    
C10   C11   S    
C11   H3    S    
C15   O7    A    
C3    C4    A    
Cu2   O2    S    
C12   C16   S    
C11   H2    S    
C7    C13   S    
Cu1   O1    S    
C22   H15   S    
C21   H13   S    
C15   C17   S    
C2    C20   A    
C23   H18   S    
C13   H5    S    
C24   H22   S    
C10   N2    A    
C22   H16   S    
Cu1   Cu2   S    
C17   H6    S    
C7    N1    A    
C23   C24   S    
C9    H1    S    
C2    H8    S    
C6    H12   S    
C16   C17   D    
C5    H9    S    
C8    N1    A    
O9    C21   S    
