data_mof_unit_40249.cif
_audit_creation_date              2012-12-10T16:52:04-0500
_audit_creation_method            fapswitch 2.2
_symmetry_space_group_name_H-M    P1
_symmetry_Int_Tables_number       1
_space_group_crystal_system       triclinic
_cell_length_a                    7.808474
_cell_length_b                    8.634085
_cell_length_c                    14.869393
_cell_angle_alpha                 92.752056
_cell_angle_beta                  84.603367
_cell_angle_gamma                 93.407438
_cell_volume                      995.363952483

loop_
_atom_site_label
_atom_site_type_symbol
_atom_type_description
_atom_site_fract_x
_atom_site_fract_y
_atom_site_fract_z
_atom_type_partial_charge
C1    C     C_R   0.545457 0.794860 0.503437 0.843860
C2    C     C_R   0.596498 0.616156 0.811621 -0.182451
C3    C     C_R   0.499494 0.499617 0.231915 -0.080289
C4    C     C_R   0.499959 0.500422 0.768064 -0.071035
C5    C     C_R   0.599190 0.613442 0.185133 -0.178458
C6    C     C_R   0.400884 0.386138 0.814757 -0.178484
C7    C     C_R   0.598135 0.616367 0.092155 -0.045862
C8    C     C_R   0.400775 0.383943 0.907814 -0.043751
C9    C     C_R   0.499282 0.499921 0.046774 -0.075437
C10   C     C_R   0.498971 0.500789 0.953259 -0.075641
C11   C     C_R   0.401502 0.382208 0.095123 -0.037526
C12   C     C_R   0.455343 0.207342 0.510375 0.849744
C13   C     C_R   0.596135 0.618897 0.904957 -0.037703
C14   C     C_R   0.693536 0.733393 0.044173 0.498512
C15   C     C_R   0.304952 0.267189 0.955794 0.495611
C16   C     C_3   0.690490 0.984654 0.905599 -0.205654
C17   C     C_3   0.306204 0.016245 0.094159 -0.209543
C18   C     C_3   0.859664 0.992639 0.462878 -0.141225
C19   C     C_3   0.195573 0.029408 0.630599 -0.251077
C20   C     C_3   0.953631 0.326593 0.342679 -0.160302
C21   C     C_3   0.036694 0.659399 0.660636 -0.106039
C22   C     C_R   0.689848 0.737368 0.950709 0.391002
C23   C     C_R   0.307697 0.263789 0.049351 0.393674
C24   C     C_2   0.570831 0.959319 0.517358 0.177250
C25   C     C_2   0.430932 0.046858 0.528006 0.208291
C26   C     C_R   0.500198 0.500468 0.672810 0.830634
C27   C     C_R   0.499709 0.499474 0.327186 0.847611
C28   C     C_R   0.400795 0.385197 0.188505 -0.176276
F1    F     F_    0.790262 0.843958 0.087731 -0.649089
F2    F     F_    0.208592 0.156437 0.912148 -0.654031
H1    H     H_    0.327128 0.297440 0.227871 0.171043
H2    H     H_    0.231328 0.927273 0.135289 0.207410
H3    H     H_    0.808190 0.988017 0.395329 0.099025
H4    H     H_    0.924431 0.885119 0.473365 0.231097
H5    H     H_    0.962504 0.085885 0.463826 0.238138
H6    H     H_    0.191810 0.157214 0.641990 0.172899
H7    H     H_    0.270203 0.981370 0.682018 0.146890
H8    H     H_    0.060254 0.982809 0.641119 0.218728
H9    H     H_    0.947195 0.435468 0.306427 0.175383
H10   H     H_    0.825449 0.267010 0.357726 0.181257
H11   H     H_    0.029879 0.246408 0.296644 0.158559
H12   H     H_    0.668137 0.705107 0.772394 0.170652
H13   H     H_    0.166427 0.718122 0.652589 0.190257
H14   H     H_    0.038009 0.543982 0.690776 0.154783
H15   H     H_    0.956524 0.733206 0.708609 0.148730
H16   H     H_    0.674287 0.700691 0.221860 0.180784
H17   H     H_    0.326861 0.298231 0.777971 0.169174
H18   H     H_    0.667335 0.035376 0.975588 0.183849
H19   H     H_    0.565920 0.959050 0.875588 0.131995
H20   H     H_    0.765179 0.073713 0.864442 0.208146
H21   H     H_    0.431008 0.041287 0.124007 0.132014
H22   H     H_    0.328841 0.965655 0.024118 0.185284
N1    N     N_2   0.950330 0.457950 0.475660 0.195018
N2    N     N_2   0.049670 0.542050 0.524340 0.193040
O1    O     O_R   0.389250 0.738570 0.505970 -0.583981
O2    O     O_3   0.210118 0.149928 0.096480 -0.566814
O3    O     O_3   0.733464 0.023830 0.535002 -0.615773
O4    O     O_3   0.262488 0.985328 0.541969 -0.610801
O5    O     O_3   0.038329 0.355169 0.421160 -0.542591
O6    O     O_3   0.963639 0.646965 0.578061 -0.534512
O7    O     O_R   0.610750 0.261430 0.494030 -0.605150
O8    O     O_R   0.678390 0.711620 0.490370 -0.593452
O9    O     O_R   0.321610 0.288380 0.509630 -0.574423
O10   O     O_R   0.355420 0.513510 0.639950 -0.677121
O11   O     O_R   0.644580 0.486490 0.360050 -0.664840
O12   O     O_R   0.644560 0.486560 0.624350 -0.575927
O13   O     O_R   0.355440 0.513440 0.375650 -0.575736
O14   O     O_3   0.787173 0.851391 0.903587 -0.568766
Zn1   Zn    Zn3+2 0.306940 0.517990 0.510420 1.037938
Zn2   Zn    Zn3+2 0.693060 0.482010 0.489580 1.031478

loop_
_geom_bond_atom_site_label_1
_geom_bond_atom_site_label_2
_ccdc_geom_bond_type
O7    Zn2   S    
C2    C4    A    
C8    C10   A    
C18   H5    S    
C16   O14   S    
C19   H8    S    
C21   H14   S    
C9    C11   A    
C9    C10   A    
C18   O3    S    
C4    C26   S    
C16   H18   S    
C1    C24   S    
C12   C25   S    
C22   O14   S    
C1    O8    A    
C14   C22   A    
C15   C23   A    
C20   H11   S    
N1    O5    S    
C5    C7    A    
C23   O2    S    
N2    O6    S    
O10   Zn1   S    
C24   C25   D    
C20   O5    S    
C12   O7    A    
C18   H4    S    
C17   O2    S    
C17   H21   S    
O1    Zn1   S    
O12   Zn2   S    
N2    Zn1   S    
C11   C28   A    
C21   O6    S    
C27   O11   A    
N1    Zn2   S    
C17   H22   S    
C3    C27   S    
C3    C28   A    
C2    H12   S    
C13   C22   A    
C8    C15   A    
C21   H15   S    
C19   H6    S    
C7    C14   A    
C19   O4    S    
C1    O1    A    
C20   H10   S    
C18   H3    S    
C20   H9    S    
C27   O13   A    
C6    H17   S    
C14   F1    S    
O11   Zn2   S    
C26   O12   A    
C2    C13   A    
C16   H19   S    
O8    Zn2   S    
C15   F2    S    
C4    C6    A    
C25   O4    S    
C11   C23   A    
C17   H2    S    
C7    C9    A    
C12   O9    A    
C26   O10   A    
C6    C8    A    
C19   H7    S    
C3    C5    A    
N1    N2    D    
C5    H16   S    
C28   H1    S    
C21   H13   S    
O9    Zn1   S    
C16   H20   S    
C24   O3    S    
O13   Zn1   S    
C10   C13   A    
