data_mof_unit_35158.cif
_audit_creation_date              2012-12-10T18:04:50-0500
_audit_creation_method            fapswitch 2.2
_symmetry_space_group_name_H-M    P1
_symmetry_Int_Tables_number       1
_space_group_crystal_system       triclinic
_cell_length_a                    10.823139
_cell_length_b                    9.594918
_cell_length_c                    17.720199
_cell_angle_alpha                 89.319459
_cell_angle_beta                  93.24907
_cell_angle_gamma                 90.084751
_cell_volume                      1837.10369393

loop_
_atom_site_label
_atom_site_type_symbol
_atom_type_description
_atom_site_fract_x
_atom_site_fract_y
_atom_site_fract_z
_atom_type_partial_charge
C1    C     C_R   0.262506 0.500469 0.501161 0.779360
C2    C     C_R   0.737767 0.500257 0.499712 0.749186
C3    C     C_1   0.519647 0.486566 0.966898 -0.052615
C4    C     C_1   0.525878 0.486285 0.034623 -0.061224
C5    C     C_R   0.066657 0.386361 0.529540 -0.184145
C6    C     C_R   0.934228 0.621237 0.477068 -0.173635
C7    C     C_R   0.938968 0.383334 0.525032 -0.198089
C8    C     C_R   0.062417 0.621332 0.477438 -0.191478
C9    C     C_R   0.504356 0.500116 0.355760 0.810095
C10   C     C_R   0.498697 0.499128 0.644346 0.786115
C11   C     C_R   0.871920 0.501310 0.500133 -0.011198
C12   C     C_R   0.128867 0.502875 0.502967 -0.026145
C13   C     C_R   0.516949 0.618102 0.846959 0.271931
C14   C     C_R   0.516248 0.364036 0.157037 0.248980
C15   C     C_R   0.543733 0.616761 0.153383 0.261255
C16   C     C_R   0.494380 0.363644 0.845902 0.254932
C17   C     C_R   0.509586 0.620386 0.768144 -0.228202
C18   C     C_R   0.506248 0.369780 0.235112 -0.196131
C19   C     C_R   0.540078 0.618989 0.232093 -0.215535
C20   C     C_R   0.487786 0.369237 0.766419 -0.228734
C21   C     C_R   0.498159 0.496455 0.727430 -0.150673
C22   C     C_R   0.515260 0.497359 0.273140 -0.164705
C23   C     C_R   0.419611 0.075796 0.451762 0.343085
C24   C     C_R   0.583319 0.924594 0.546273 0.376977
C25   C     C_R   0.572954 0.073108 0.552476 0.365426
C26   C     C_R   0.418664 0.925325 0.452506 0.343587
C27   C     C_R   0.510560 0.489351 0.885855 0.000137
C28   C     C_R   0.529955 0.488727 0.115580 0.000920
Cu1   Cu    Cu3+1 0.500000 0.640660 0.500000 0.996020
Cu2   Cu    Cu3+1 0.500000 0.359340 0.500000 0.991156
H1    H     H_    0.512872 0.719935 0.738998 0.156117
H2    H     H_    0.492284 0.273300 0.265902 0.192332
H3    H     H_    0.559135 0.715560 0.260786 0.160022
H4    H     H_    0.477061 0.274487 0.734360 0.209612
H5    H     H_    0.116366 0.297694 0.553926 0.132481
H6    H     H_    0.884017 0.713540 0.457410 0.168441
H7    H     H_    0.893785 0.288897 0.541661 0.120010
H8    H     H_    0.109204 0.713188 0.457213 0.181337
N1    N     N_R   0.500000 0.852070 0.500000 -0.254761
N2    N     N_R   0.500000 0.147930 0.500000 -0.255853
O1    O     O_R   0.319640 0.618740 0.499990 -0.532823
O2    O     O_R   0.680360 0.381260 0.500010 -0.609363
O3    O     O_R   0.680360 0.618740 0.500010 -0.534445
O4    O     O_R   0.319640 0.381260 0.499990 -0.561359
O5    O     O_R   0.500000 0.618830 0.391250 -0.560103
O6    O     O_R   0.500000 0.381170 0.608750 -0.538264
O7    O     O_R   0.500000 0.618830 0.608750 -0.601639
O8    O     O_R   0.500000 0.381170 0.391250 -0.535077
N3    N     N_2   0.529177 0.746723 0.886066 -0.438853
H9    H     H_    0.489623 0.749037 0.937575 0.259491
C29   C     C_3   0.652407 0.805537 0.888358 -0.738450
H10   H     H_    0.653022 0.906482 0.918385 0.231999
H11   H     H_    0.682048 0.824933 0.830170 0.230525
H12   H     H_    0.718885 0.733749 0.919008 0.232333
N4    N     N_2   0.516407 0.231518 0.121748 -0.435167
H13   H     H_    0.474085 0.229285 0.068179 0.260571
C30   C     C_3   0.636930 0.165870 0.125844 -0.702026
H14   H     H_    0.631638 0.063359 0.097746 0.237657
H15   H     H_    0.669995 0.148930 0.185767 0.240062
H16   H     H_    0.704524 0.231849 0.096704 0.224183
N5    N     N_2   0.562237 0.743859 0.113108 -0.436577
H17   H     H_    0.608728 0.733942 0.064269 0.257564
C31   C     C_3   0.452631 0.829674 0.103003 -0.710617
H18   H     H_    0.469000 0.916347 0.062775 0.227778
H19   H     H_    0.430003 0.875060 0.157831 0.242748
H20   H     H_    0.373081 0.767479 0.079350 0.226080
N6    N     N_2   0.485420 0.234441 0.886789 -0.435796
H21   H     H_    0.548354 0.221366 0.932225 0.251016
C32   C     C_3   0.452050 0.107416 0.847329 -0.681773
H22   H     H_    0.435742 0.023451 0.889226 0.242542
H23   H     H_    0.528101 0.074716 0.811894 0.241058
H24   H     H_    0.364927 0.122318 0.811955 0.235197
O9    O     O_3   0.343524 0.151205 0.400736 -0.560380
C33   C     C_3   0.217706 0.135212 0.417082 0.091819
H25   H     H_    0.203817 0.157211 0.477120 0.143294
H26   H     H_    0.182200 0.028843 0.405994 0.162130
C34   C     C_3   0.139320 0.233248 0.366020 -0.782292
H27   H     H_    0.143685 0.201097 0.306223 0.231082
H28   H     H_    0.041468 0.229371 0.381692 0.207271
H29   H     H_    0.173862 0.341789 0.371091 0.254814
O10   O     O_3   0.696070 0.862268 0.567332 -0.569282
C35   C     C_3   0.708123 0.827491 0.645057 0.119602
H30   H     H_    0.678782 0.719263 0.653732 0.176937
H31   H     H_    0.653807 0.895339 0.681121 0.143080
C36   C     C_3   0.844716 0.827566 0.671533 -0.855449
H32   H     H_    0.854464 0.802920 0.732965 0.203848
H33   H     H_    0.894860 0.747102 0.640651 0.259314
H34   H     H_    0.888547 0.929756 0.661259 0.251389
O11   O     O_3   0.600450 0.131207 0.622924 -0.582415
C37   C     C_3   0.725347 0.172549 0.632549 0.119769
H35   H     H_    0.733128 0.282475 0.615579 0.182253
H36   H     H_    0.788837 0.108288 0.600198 0.141313
C38   C     C_3   0.767059 0.170543 0.716327 -0.875334
H37   H     H_    0.749117 0.068726 0.743507 0.251296
H38   H     H_    0.867797 0.192812 0.722738 0.210523
H39   H     H_    0.717526 0.252012 0.746575 0.254161
O12   O     O_3   0.330203 0.850522 0.410351 -0.566285
C39   C     C_3   0.345103 0.866627 0.332042 0.090965
H40   H     H_    0.442806 0.852811 0.318697 0.138739
H41   H     H_    0.315249 0.970644 0.310459 0.170425
C40   C     C_3   0.263315 0.760066 0.290130 -0.798368
H42   H     H_    0.164570 0.781512 0.299523 0.231287
H43   H     H_    0.276668 0.766002 0.228618 0.204763
H44   H     H_    0.285492 0.653058 0.310906 0.254866

loop_
_geom_bond_atom_site_label_1
_geom_bond_atom_site_label_2
_ccdc_geom_bond_type
N4    H13   S    
C31   H19   S    
C9    O5    A    
C38   H37   S    
O9    C33   S    
C14   C18   A    
O10   C35   S    
C15   C28   A    
C34   H27   S    
C7    C11   A    
C40   H42   S    
C33   H26   S    
Cu1   O7    S    
Cu2   O8    S    
C25   N2    A    
C9    C22   S    
C30   H15   S    
C23   N2    A    
C39   H40   S    
C24   N1    A    
C32   H23   S    
C23   C26   A    
N5    C31   S    
N3    C29   S    
C33   C34   S    
C10   O6    A    
C8    C12   A    
C20   H4    S    
C16   C27   A    
C34   H28   S    
C14   N4    S    
C31   H20   S    
C40   H43   S    
Cu1   O3    S    
Cu2   O4    S    
C32   H22   S    
C1    C12   S    
C8    H8    S    
C23   O9    S    
C2    C11   S    
C4    C28   S    
O12   C39   S    
C30   H14   S    
C36   H33   S    
C10   C21   S    
C15   N5    S    
C33   H25   S    
N6    H21   S    
C19   C22   A    
C24   C25   A    
C5    C12   A    
C19   H3    S    
C6    C11   A    
C5    C7    A    
C30   H16   S    
C6    C8    A    
C36   H32   S    
C17   C21   A    
C29   H10   S    
Cu1   O5    S    
N6    C32   S    
C32   H24   S    
C15   C19   A    
C24   O10   S    
Cu1   Cu2   S    
C1    O4    A    
C37   H36   S    
C2    O3    A    
C16   C20   A    
Cu1   N1    S    
C7    H7    S    
Cu2   N2    S    
C16   N6    S    
C13   N3    S    
C1    O1    A    
C35   H30   S    
C38   H39   S    
C35   H31   S    
N4    C30   S    
C17   H1    S    
C18   H2    S    
C3    C4    T    
C35   C36   S    
C37   C38   S    
C36   H34   S    
Cu1   O1    S    
C18   C22   A    
Cu2   O6    S    
C13   C27   A    
C40   H44   S    
C39   C40   S    
C25   O11   S    
C13   C17   A    
C29   H12   S    
C14   C28   A    
C3    C27   S    
C34   H29   S    
C37   H35   S    
C2    O2    A    
C5    H5    S    
C6    H6    S    
N5    H17   S    
C26   N1    A    
C39   H41   S    
C26   O12   S    
C31   H18   S    
C20   C21   A    
C9    O8    A    
C38   H38   S    
N3    H9    S    
C10   O7    A    
Cu2   O2    S    
C29   H11   S    
O11   C37   S    
