data_mof_unit_27034.cif
_audit_creation_date              2012-12-11T17:43:15-0500
_audit_creation_method            fapswitch 2.2
_symmetry_space_group_name_H-M    P1
_symmetry_Int_Tables_number       1
_space_group_crystal_system       triclinic
_cell_length_a                    15.0639
_cell_length_b                    15.138154
_cell_length_c                    16.90168
_cell_angle_alpha                 108.853872
_cell_angle_beta                  106.072584
_cell_angle_gamma                 109.457378
_cell_volume                      3103.4718232

loop_
_atom_site_label
_atom_site_type_symbol
_atom_type_description
_atom_site_fract_x
_atom_site_fract_y
_atom_site_fract_z
_atom_type_partial_charge
C1    C     C_R   0.085310 0.292692 0.083133 -0.150235
C2    C     C_R   0.094121 0.111191 0.099153 -0.238400
C3    C     C_R   0.004545 0.927459 0.059881 0.065890
C4    C     C_R   0.999971 0.115546 0.078490 0.052985
C5    C     C_R   0.097706 0.018519 0.087319 0.040239
C6    C     C_R   0.909886 0.030190 0.063304 0.041359
C7    C     C_R   0.717190 0.959459 0.977815 -0.183170
C8    C     C_R   0.283762 0.074793 0.183251 -0.178932
C9    C     C_R   0.627788 0.053087 0.034863 -0.164763
C10   C     C_R   0.394468 0.035455 0.112845 -0.178072
C11   C     C_R   0.473956 0.562982 0.268427 -0.117681
C12   C     C_R   0.910757 0.724468 0.969781 -0.128638
C13   C     C_R   0.511318 0.315751 0.646667 -0.114175
C14   C     C_R   0.469682 0.546214 0.180836 -0.116696
C15   C     C_R   0.498401 0.324887 0.727236 -0.133827
C16   C     C_R   0.935683 0.518352 0.746168 -0.138608
C17   C     C_R   0.064535 0.549615 0.265344 -0.127584
C18   C     C_R   0.440497 0.444831 0.114439 0.098830
C19   C     C_R   0.474941 0.403692 0.773028 0.115382
C20   C     C_R   0.417783 0.361132 0.137487 -0.177072
C21   C     C_R   0.463054 0.471919 0.735697 -0.170995
C22   C     C_R   0.421300 0.378211 0.224911 -0.117068
C23   C     C_R   0.026943 0.577828 0.743995 0.066032
C24   C     C_R   0.475660 0.462183 0.654869 -0.107910
C25   C     C_R   0.449279 0.479064 0.290314 -0.112302
C26   C     C_R   0.499987 0.384360 0.610526 -0.102038
C27   C     C_R   0.517564 0.410271 0.008211 -0.228426
C28   C     C_R   0.380472 0.427942 0.872054 -0.239967
C29   C     C_R   0.536131 0.413041 0.932574 0.057225
C30   C     C_R   0.369610 0.437639 0.953719 0.070826
C31   C     C_R   0.464273 0.415230 0.860194 0.023935
C32   C     C_R   0.438161 0.426593 0.021990 0.018115
C33   C     C_R   0.625866 0.968596 0.967441 -0.124273
C34   C     C_R   0.972441 0.536081 0.274592 0.059578
C35   C     C_R   0.380814 0.081107 0.191779 -0.150944
C36   C     C_R   0.963914 0.581702 0.361434 0.123829
C37   C     C_R   0.035187 0.618661 0.677076 0.125446
C38   C     C_R   0.140092 0.691621 0.606553 -0.220015
C39   C     C_R   0.859378 0.564169 0.446840 -0.218223
C40   C     C_R   0.776845 0.203060 0.812248 -0.132881
C41   C     C_R   0.280948 0.783779 0.175963 -0.154541
C42   C     C_R   0.133250 0.672921 0.680355 -0.165105
C43   C     C_R   0.865983 0.550079 0.363565 -0.154185
C44   C     C_R   0.944456 0.594321 0.603826 -0.278952
C45   C     C_R   0.760278 0.197291 0.725323 0.056378
C46   C     C_R   0.054757 0.643789 0.444919 -0.275905
C47   C     C_R   0.950467 0.607154 0.527351 0.184280
C48   C     C_R   0.048973 0.652081 0.527363 0.186141
C49   C     C_R   0.720016 0.101793 0.638994 0.131749
C50   C     C_R   0.446385 0.855052 0.320905 0.131818
C51   C     C_R   0.593275 0.028755 0.391487 -0.228086
C52   C     C_R   0.616350 0.912251 0.553875 -0.230845
C53   C     C_R   0.501249 0.947191 0.316154 -0.178395
C54   C     C_R   0.684418 0.002438 0.637234 -0.168901
C55   C     C_R   0.492216 0.839549 0.396143 -0.299491
C56   C     C_R   0.337274 0.781453 0.254500 0.068974
C57   C     C_R   0.702003 0.108136 0.555489 -0.285112
C58   C     C_R   0.581898 0.921745 0.472780 0.197301
C59   C     C_R   0.629354 0.019099 0.472364 0.190893
C60   C     C_R   0.720777 0.127858 0.113964 0.124961
C61   C     C_R   0.311328 0.984837 0.024722 0.132766
C62   C     C_R   0.812664 0.119246 0.124396 -0.202083
C63   C     C_R   0.214047 0.979188 0.015893 -0.206290
C64   C     C_R   0.262528 0.536337 0.952007 -0.134646
C65   C     C_R   0.699111 0.402010 0.994152 -0.155442
C66   C     C_R   0.811694 0.035683 0.055655 0.101041
C67   C     C_R   0.289472 0.462431 0.968875 0.045072
C68   C     C_R   0.199344 0.022220 0.095385 0.086921
C69   C     C_R   0.782186 0.297879 0.734456 -0.129698
C70   C     C_R   0.274553 0.689488 0.252791 -0.136525
C71   C     C_R   0.244445 0.433426 0.022545 -0.110580
C72   C     C_R   0.704479 0.500474 0.920744 -0.125067
C73   C     C_R   0.108545 0.602087 0.823314 -0.141999
C74   C     C_R   0.890465 0.464826 0.187639 -0.122330
C75   C     C_R   0.913519 0.204623 0.001648 -0.139908
C76   C     C_R   0.083702 0.804680 0.053749 -0.127994
C77   C     C_R   0.998034 0.201028 0.056503 0.068869
C78   C     C_R   0.640666 0.434353 0.944054 0.058488
C79   C     C_R   0.998625 0.822675 0.031896 0.053318
C80   C     C_1   0.721786 0.213483 0.184188 -0.008347
C81   C     C_1   0.325897 0.939012 0.943410 -0.015941
C82   C     C_R   0.913459 0.936395 0.053847 -0.242275
H1    H     H_    0.162431 0.324472 0.137014 0.100876
H2    H     H_    0.507124 0.270799 0.754117 0.115727
H3    H     H_    0.396284 0.282697 0.087398 0.129385
H4    H     H_    0.445839 0.533755 0.769911 0.107592
H5    H     H_    0.402671 0.313379 0.242052 0.120378
H6    H     H_    0.467068 0.515375 0.626842 0.103211
H7    H     H_    0.572999 0.409066 0.064194 0.130895
H8    H     H_    0.324486 0.431735 0.818570 0.130896
H9    H     H_    0.130902 0.674436 0.445422 0.118345
H10   H     H_    0.868251 0.555660 0.601106 0.115832
H11   H     H_    0.794256 0.507212 0.300760 0.124790
H12   H     H_    0.830701 0.708587 0.937405 0.094467
H13   H     H_    0.204865 0.694797 0.736506 0.122696
H14   H     H_    0.216253 0.727498 0.607838 0.127322
H15   H     H_    0.783170 0.531876 0.446337 0.129162
H16   H     H_    0.857132 0.498298 0.702874 0.088116
H17   H     H_    0.143514 0.599149 0.318263 0.095372
H18   H     H_    0.553724 0.910724 0.906543 0.124641
H19   H     H_    0.445465 0.121184 0.259700 0.123695
H20   H     H_    0.733786 0.183397 0.555150 0.120275
H21   H     H_    0.452979 0.768589 0.400755 0.110693
H22   H     H_    0.701417 0.994156 0.700103 0.116118
H23   H     H_    0.714852 0.894759 0.923908 0.114148
H24   H     H_    0.470197 0.959830 0.257458 0.123357
H25   H     H_    0.630319 0.102381 0.389497 0.129261
H26   H     H_    0.582627 0.837173 0.554458 0.123247
H27   H     H_    0.556972 0.060350 0.025132 0.119075
H28   H     H_    0.469805 0.039798 0.120766 0.117973
H29   H     H_    0.885026 0.178051 0.184987 0.125259
H30   H     H_    0.149637 0.940460 0.947832 0.129413
H31   H     H_    0.767404 0.140067 0.830954 0.095445
H32   H     H_    0.311133 0.835012 0.147489 0.105363
H33   H     H_    0.285959 0.576614 0.913243 0.099358
H34   H     H_    0.274058 0.110314 0.244977 0.122571
H35   H     H_    0.671023 0.340033 0.013310 0.099818
H36   H     H_    0.777226 0.323046 0.681290 0.095262
H37   H     H_    0.297833 0.653260 0.294624 0.087522
H38   H     H_    0.244878 0.374463 0.044883 0.116957
H39   H     H_    0.682187 0.533606 0.875480 0.106456
H40   H     H_    0.189072 0.659853 0.851542 0.093464
H41   H     H_    0.808088 0.436448 0.168664 0.100252
H42   H     H_    0.832031 0.151489 0.975001 0.115702
H43   H     H_    0.162276 0.858518 0.104732 0.128278
H44   H     H_    0.843959 0.869268 0.039140 0.129943
H45   H     H_    0.452446 0.492332 0.358144 0.098853
H46   H     H_    0.164902 0.176637 0.113839 0.130420
H47   H     H_    0.510042 0.377220 0.548153 0.097292
H48   H     H_    0.497025 0.641129 0.319531 0.112736
H49   H     H_    0.530169 0.255475 0.612287 0.114163
H50   H     H_    0.489008 0.611840 0.164663 0.116340
N1    N     N_R   0.055660 0.348550 0.045620 -0.039664
N2    N     N_R   0.185200 0.638170 0.176300 -0.038299
N3    N     N_R   0.201680 0.494570 0.045620 -0.042363
N4    N     N_R   0.798320 0.505430 0.954380 -0.040112
N5    N     N_R   0.068420 0.560530 0.871650 -0.037629
N6    N     N_R   0.931580 0.439470 0.128350 -0.041204
N7    N     N_R   0.948070 0.295860 0.997670 -0.040381
N8    N     N_R   0.051930 0.704140 0.002330 -0.043050
N9    N     N_1   0.722320 0.282069 0.240660 -0.097475
N10   N     N_1   0.337779 0.902363 0.878082 -0.105431
N11   N     N_R   0.944340 0.651450 0.954380 -0.040495
N12   N     N_R   0.960830 0.507850 0.823700 -0.038769
N13   N     N_R   0.039170 0.492150 0.176300 -0.041638
N14   N     N_R   0.811290 0.303410 0.871650 -0.040526
N15   N     N_R   0.188710 0.696590 0.128350 -0.040546
N16   N     N_R   0.205200 0.552990 0.997670 -0.040553
N17   N     N_R   0.794800 0.447010 0.002330 -0.038743
N18   N     N_R   0.814800 0.361830 0.823700 -0.039734
Ni1   Ni    Ni4+2 0.119340 0.493420 0.109960 0.214614
Ni2   Ni    Ni4+2 0.880660 0.506580 0.890040 0.215025
Ni3   Ni    Ni4+2 0.872590 0.372590 0.000000 0.216207
Ni4   Ni    Ni4+2 0.127410 0.627410 0.000000 0.215254

loop_
_geom_bond_atom_site_label_1
_geom_bond_atom_site_label_2
_ccdc_geom_bond_type
C6    C82   A    
C72   H39   S    
C27   C29   A    
C1    C77   A    
C14   C18   A    
C17   N13   A    
N1    Ni1   S    
N8    N11   A    
C41   H32   S    
C19   C31   S    
N4    N17   A    
C14   H50   S    
C15   C19   A    
C57   H20   S    
C74   N6    A    
C71   H38   S    
C69   N18   A    
C54   H22   S    
C16   N12   A    
C24   C26   A    
C38   C42   A    
C71   N3    A    
C11   C14   A    
C57   C59   A    
N7    Ni3   S    
N6    N13   A    
C49   C54   A    
C12   C79   A    
C55   H21   S    
C69   H36   S    
C37   C42   A    
C49   C57   A    
C60   C62   A    
C73   H40   S    
C63   H30   S    
C61   C63   A    
N15   Ni4   S    
N17   Ni3   S    
C82   H44   S    
C72   C78   A    
N14   N18   A    
C53   H24   S    
C29   C78   S    
C40   H31   S    
C22   C25   A    
C7    H23   S    
C36   C46   A    
C10   C35   A    
C18   C20   A    
C30   C67   S    
C44   H10   S    
C44   C47   A    
C74   H41   S    
C3    C79   S    
C64   H33   S    
C64   N16   A    
C9    C33   A    
C76   H43   S    
C7    C33   A    
C12   H12   S    
N16   Ni4   S    
C23   C73   A    
C5    C68   S    
C1    N1    A    
N4    Ni2   S    
C52   C54   A    
C76   N8    A    
C9    H27   S    
C40   C45   A    
C46   C48   A    
C50   C53   A    
C62   C66   A    
C45   C69   A    
C75   H42   S    
C64   C67   A    
C4    C6    A    
C39   C43   A    
C46   H9    S    
C3    C5    A    
C58   C59   A    
C23   C37   S    
C50   C56   S    
C42   H13   S    
C51   C53   A    
C8    C35   A    
C27   H7    S    
C2    C4    A    
C41   C56   A    
N2    N15   A    
C17   H17   S    
C47   C48   A    
C41   N15   A    
C45   C49   S    
C70   H37   S    
C20   H3    S    
C3    C82   A    
C13   H49   S    
C22   H5    S    
C62   H29   S    
C75   C77   A    
N13   Ni1   S    
C26   H47   S    
C52   C58   A    
C34   C74   A    
N6    Ni3   S    
C51   H25   S    
C81   N10   T    
N5    N12   A    
C20   C22   A    
N1    N7    A    
C16   C23   A    
C56   C70   A    
C13   C15   A    
N18   Ni2   S    
C13   C26   A    
C21   C24   A    
C10   C61   A    
C18   C32   S    
C17   C34   A    
C11   H48   S    
C39   C47   A    
C63   C68   A    
C60   C80   S    
C65   H35   S    
C65   C78   A    
C19   C21   A    
C27   C32   A    
C38   C48   A    
C24   H6    S    
C28   C31   A    
C35   H19   S    
C72   N4    A    
C21   H4    S    
C28   H8    S    
C8    C68   A    
C15   H2    S    
C1    H1    S    
C50   C55   A    
C12   N11   A    
C40   N14   A    
C33   H18   S    
C9    C60   A    
C37   C44   A    
C28   C30   A    
C25   H45   S    
C4    C77   S    
C29   C31   A    
C61   C81   S    
C7    C66   A    
C30   C32   A    
C16   H16   S    
N14   Ni3   S    
C73   N5    A    
N3    Ni1   S    
N2    Ni1   S    
C43   H11   S    
C34   C36   S    
N5    Ni4   S    
C10   H28   S    
C67   C71   A    
C65   N17   A    
C39   H15   S    
C8    H34   S    
C2    C5    A    
C6    C66   S    
C76   C79   A    
C51   C59   A    
C52   H26   S    
N12   Ni2   S    
N3    N16   A    
C55   C58   A    
C38   H14   S    
C70   N2    A    
C11   C25   A    
C36   C43   A    
C75   N7    A    
C80   N9    T    
N11   Ni2   S    
N8    Ni4   S    
C2    H46   S    
