data_mof_unit_63363.cif
_audit_creation_date              2012-12-10T18:08:06-0500
_audit_creation_method            fapswitch 2.2
_symmetry_space_group_name_H-M    P1
_symmetry_Int_Tables_number       1
_space_group_crystal_system       triclinic
_cell_length_a                    18.737714
_cell_length_b                    18.724988
_cell_length_c                    18.730978
_cell_angle_alpha                 109.444266
_cell_angle_beta                  109.582083
_cell_angle_gamma                 109.441724
_cell_volume                      5055.73267719

loop_
_atom_site_label
_atom_site_type_symbol
_atom_type_description
_atom_site_fract_x
_atom_site_fract_y
_atom_site_fract_z
_atom_type_partial_charge
C1    C     C_R   0.379402 0.499457 0.379594 0.838122
C2    C     C_R   0.311403 0.497404 0.312976 -0.125754
C3    C     C_R   0.305441 0.237299 0.480503 -0.237093
C4    C     C_R   0.619329 0.620383 0.499693 0.881866
C5    C     C_R   0.245381 0.175578 0.485123 -0.229915
C6    C     C_R   0.185046 0.191267 0.504661 -0.065154
C7    C     C_R   0.184095 0.270292 0.522385 0.061135
C8    C     C_R   0.241525 0.331550 0.511304 0.141833
C9    C     C_R   0.304982 0.314978 0.494080 -0.079694
C10   C     C_R   0.761559 0.511572 0.684986 -0.264780
C11   C     C_R   0.826874 0.514494 0.750214 -0.196514
C12   C     C_R   0.830391 0.801908 0.569953 0.012613
C13   C     C_R   0.813254 0.501055 0.814621 -0.044403
C14   C     C_R   0.735417 0.486475 0.815366 -0.263088
C15   C     C_R   0.669876 0.484809 0.750805 0.217268
C16   C     C_R   0.619668 0.499574 0.620071 0.909395
C17   C     C_R   0.683970 0.497655 0.685850 -0.044016
C18   C     C_R   0.002484 0.882725 0.379793 0.908507
C19   C     C_R   0.879961 0.878384 0.498529 0.910626
C20   C     C_R   0.997550 0.117818 0.620060 0.907430
C21   C     C_R   0.119918 0.121540 0.501465 0.870455
C22   C     C_R   0.998184 0.620450 0.118176 0.900975
C23   C     C_3   0.878570 0.869007 0.665458 0.341303
C24   C     C_R   0.120066 0.500877 0.121004 0.907718
C25   C     C_R   0.999771 0.379937 0.879777 0.941011
C26   C     C_R   0.879690 0.500636 0.880351 0.868937
C27   C     C_R   0.011764 0.831250 0.245139 0.017934
C28   C     C_R   0.376217 0.380014 0.496926 0.865238
C29   C     C_R   0.004087 0.763044 0.176915 0.196652
C30   C     C_R   0.996757 0.687622 0.181961 -0.132076
C31   C     C_R   0.990010 0.676560 0.249713 -0.312723
C32   C     C_R   0.990888 0.740382 0.314317 0.205435
C33   C     C_R   0.002862 0.817968 0.312646 -0.134363
C34   C     C_3   0.796774 0.812213 0.667693 0.217572
C35   C     C_R   0.913400 0.176198 0.674233 0.027131
C36   C     C_R   0.916387 0.246467 0.736483 0.150995
C37   C     C_R   0.997679 0.313374 0.811674 -0.124213
C38   C     C_R   0.076316 0.315322 0.823125 0.176580
C39   C     C_R   0.073839 0.249992 0.758625 -0.301490
C40   C     C_R   0.763516 0.746751 0.573025 -0.047967
C41   C     C_R   0.994002 0.181258 0.685584 -0.120330
C42   C     C_R   0.681988 0.686921 0.497406 -0.097314
C43   C     C_R   0.667402 0.685437 0.417471 0.083203
C44   C     C_R   0.734508 0.747796 0.417672 -0.254775
C45   C     C_R   0.241194 0.417331 0.237985 0.235342
C46   C     C_R   0.814831 0.808590 0.495229 -0.157239
C47   C     C_3   0.579200 0.625633 0.334188 -0.406253
C48   C     C_3   0.579643 0.550192 0.269211 -0.313327
C49   C     C_3   0.489316 0.487166 0.187541 -0.875050
C50   C     C_3   0.133004 0.293520 0.566209 -0.420214
C51   C     C_3   0.042771 0.273554 0.501761 -0.314170
C52   C     C_3   0.999561 0.307125 0.550350 -0.904900
C53   C     C_3   0.234183 0.412243 0.516590 -0.426424
C54   C     C_3   0.212119 0.414961 0.431022 -0.307090
C55   C     C_3   0.119574 0.343927 0.356488 -0.879312
C56   C     C_R   0.177746 0.420924 0.176226 -0.279066
C57   C     C_3   0.518646 0.381153 0.691068 -0.771619
C58   C     C_3   0.031498 0.917104 0.244571 -0.390464
C59   C     C_3   0.125570 0.966871 0.264052 -0.358795
C60   C     C_3   0.142730 0.049107 0.256747 -0.870984
C61   C     C_3   0.914431 0.720566 0.026028 -0.781679
C62   C     C_3   0.889994 0.691980 0.363267 -0.775736
C63   C     C_3   0.826113 0.094523 0.600592 -0.394211
C64   C     C_3   0.780545 0.106905 0.524333 -0.306558
C65   C     C_3   0.708663 0.019072 0.442539 -0.892641
C66   C     C_3   0.831348 0.313875 0.696144 -0.778446
C67   C     C_R   0.185639 0.501336 0.188073 -0.093900
C68   C     C_3   0.177620 0.366653 0.972556 -0.776767
C69   C     C_3   0.977356 0.802209 0.679897 -0.795609
C70   C     C_3   0.945525 0.027284 0.769795 -0.800477
C71   C     C_3   0.816028 0.776940 0.732576 -0.443588
C72   C     C_3   0.752003 0.761399 0.767433 -0.305434
C73   C     C_3   0.777402 0.731012 0.833347 -0.897462
C74   C     C_3   0.679588 0.851346 0.605770 -0.794990
C75   C     C_3   0.166118 0.254256 0.147564 -0.809702
C76   C     C_3   0.206694 0.682626 0.308833 -0.777393
C77   C     C_R   0.255173 0.580393 0.262875 0.224692
C78   C     C_R   0.318063 0.577659 0.325213 -0.299274
H1    H     H_    0.372534 0.638330 0.383280 0.155180
H2    H     H_    0.121860 0.361696 0.118175 0.163756
H3    H     H_    0.440424 0.458313 0.205263 0.278576
H4    H     H_    0.468665 0.521842 0.154295 0.256895
H5    H     H_    0.491510 0.433436 0.141429 0.244500
H6    H     H_    0.627731 0.576558 0.249624 0.211911
H7    H     H_    0.599193 0.513600 0.300402 0.239492
H8    H     H_    0.526305 0.599084 0.348263 0.200087
H9    H     H_    0.562963 0.664078 0.303795 0.190345
H10   H     H_    0.991858 0.276738 0.590987 0.275951
H11   H     H_    0.039694 0.379336 0.593127 0.260424
H12   H     H_    0.353588 0.224795 0.467664 0.167637
H13   H     H_    0.933818 0.290210 0.502456 0.242205
H14   H     H_    0.048328 0.304162 0.461224 0.220298
H15   H     H_    0.998967 0.202279 0.456546 0.253285
H16   H     H_    0.123687 0.257805 0.602242 0.187593
H17   H     H_    0.172926 0.363355 0.618517 0.188618
H18   H     H_    0.108332 0.278212 0.345764 0.268477
H19   H     H_    0.070758 0.356285 0.371027 0.247765
H20   H     H_    0.110337 0.345105 0.295246 0.255746
H21   H     H_    0.218974 0.479796 0.443084 0.214521
H22   H     H_    0.258707 0.408021 0.409810 0.203756
H23   H     H_    0.245808 0.115044 0.473333 0.151715
H24   H     H_    0.184244 0.417721 0.533027 0.199564
H25   H     H_    0.295492 0.472705 0.571457 0.194316
H26   H     H_    0.597708 0.493028 0.812886 0.218890
H27   H     H_    0.533163 0.335993 0.711544 0.232040
H28   H     H_    0.506913 0.360398 0.623449 0.237209
H29   H     H_    0.458045 0.376879 0.690928 0.241962
H30   H     H_    0.100837 0.031058 0.188317 0.258238
H31   H     H_    0.128670 0.091833 0.300650 0.271936
H32   H     H_    0.212355 0.086252 0.275691 0.253675
H33   H     H_    0.172018 0.985645 0.331279 0.209539
H34   H     H_    0.772070 0.522030 0.634963 0.149972
H35   H     H_    0.138368 0.925147 0.217807 0.232742
H36   H     H_    0.984260 0.902956 0.179796 0.222920
H37   H     H_    0.023832 0.962167 0.293158 0.216910
H38   H     H_    0.049347 0.767761 0.089574 0.245270
H39   H     H_    0.870523 0.742751 0.041076 0.241800
H40   H     H_    0.886189 0.649689 0.003683 0.228533
H41   H     H_    0.918820 0.730750 0.972258 0.241207
H42   H     H_    0.006514 0.690984 0.398663 0.220276
H43   H     H_    0.847675 0.624896 0.305435 0.230538
H44   H     H_    0.864184 0.734667 0.350830 0.237242
H45   H     H_    0.887164 0.525585 0.749570 0.155992
H46   H     H_    0.887746 0.689308 0.420866 0.237534
H47   H     H_    0.737094 0.978965 0.419833 0.277539
H48   H     H_    0.659723 0.982844 0.456506 0.256551
H49   H     H_    0.675115 0.030126 0.389407 0.241889
H50   H     H_    0.750026 0.146244 0.542188 0.216103
H51   H     H_    0.828649 0.141566 0.508651 0.239568
H52   H     H_    0.835455 0.037921 0.575126 0.210776
H53   H     H_    0.782195 0.073956 0.626199 0.168286
H54   H     H_    0.781617 0.194413 0.692079 0.224871
H55   H     H_    0.827703 0.294714 0.631689 0.224923
H56   H     H_    0.725750 0.476497 0.865939 0.147902
H57   H     H_    0.888263 0.380609 0.743949 0.233746
H58   H     H_    0.771174 0.315705 0.690614 0.245435
H59   H     H_    0.209711 0.399948 0.888476 0.222271
H60   H     H_    0.187555 0.309261 0.957117 0.233279
H61   H     H_    0.123528 0.354229 0.987282 0.226839
H62   H     H_    0.238268 0.424907 0.031568 0.244326
H63   H     H_    0.990120 0.906497 0.782136 0.215100
H64   H     H_    0.043132 0.818682 0.727252 0.231023
H65   H     H_    0.976620 0.793225 0.617950 0.264389
H66   H     H_    0.927964 0.740335 0.668196 0.222919
H67   H     H_    0.722990 0.750761 0.358276 0.163715
H68   H     H_    0.841109 0.957867 0.641574 0.208769
H69   H     H_    0.938320 0.084588 0.773006 0.241403
H70   H     H_    0.924848 0.008375 0.812793 0.216615
H71   H     H_    0.015647 0.047221 0.794211 0.260869
H72   H     H_    0.786842 0.674758 0.806271 0.278110
H73   H     H_    0.839216 0.785336 0.894102 0.253473
H74   H     H_    0.725211 0.711080 0.850031 0.256392
H75   H     H_    0.752442 0.822865 0.801496 0.210281
H76   H     H_    0.684841 0.712277 0.712685 0.276674
H77   H     H_    0.815680 0.714882 0.700894 0.193126
H78   H     H_    0.983315 0.617692 0.252054 0.163904
H79   H     H_    0.881648 0.824970 0.791078 0.198726
H80   H     H_    0.775603 0.911235 0.737619 0.222860
H81   H     H_    0.616789 0.789939 0.572102 0.268670
H82   H     H_    0.700469 0.856196 0.558002 0.233941
H83   H     H_    0.667748 0.906428 0.630919 0.218818
H84   H     H_    0.252845 0.330189 0.282371 0.231796
H85   H     H_    0.176682 0.199667 0.148937 0.241624
H86   H     H_    0.166587 0.256991 0.089366 0.247989
H87   H     H_    0.101790 0.240787 0.142742 0.234229
H88   H     H_    0.324694 0.713684 0.311643 0.217794
H89   H     H_    0.134696 0.252463 0.765967 0.160877
H90   H     H_    0.229465 0.692084 0.375939 0.229897
H91   H     H_    0.137364 0.629439 0.265434 0.233549
H92   H     H_    0.210332 0.743798 0.311033 0.238849
N1    N     N_2   0.590372 0.470056 0.751133 -0.301349
N2    N     N_2   0.261292 0.662152 0.276113 -0.293777
N3    N     N_2   0.000719 0.770215 0.102498 -0.314016
N4    N     N_2   0.979236 0.726195 0.380779 -0.288612
N5    N     N_2   0.839441 0.252316 0.724357 -0.293198
N6    N     N_2   0.157948 0.382630 0.899783 -0.288434
N7    N     N_2   0.960802 0.872851 0.714919 -0.283998
N8    N     N_2   0.893223 0.955618 0.680212 -0.293855
N9    N     N_2   0.744967 0.855116 0.678300 -0.290919
N10   N     N_2   0.235506 0.335533 0.226883 -0.283797
O1    O     O_R   0.408340 0.551690 0.460080 -0.631918
O2    O     O_R   0.051700 0.643420 0.091650 -0.628974
O3    O     O_R   0.039910 0.448390 0.091720 -0.640338
O4    O     O_R   0.408400 0.448280 0.356690 -0.613563
O5    O     O_R   0.143340 0.551810 0.091690 -0.590781
O6    O     O_R   0.948300 0.356760 0.908530 -0.613239
O7    O     O_R   0.051730 0.460180 0.908500 -0.612589
O8    O     O_R   0.856660 0.448370 0.908490 -0.615208
O9    O     O_R   0.960090 0.551790 0.908450 -0.633578
O10   O     O_R   0.591580 0.643330 0.551700 -0.637135
O11   O     O_R   0.591640 0.539920 0.448310 -0.624343
O12   O     O_R   0.948260 0.908480 0.356680 -0.643675
O13   O     O_R   0.591600 0.551720 0.643310 -0.611688
O14   O     O_R   0.591660 0.448310 0.539920 -0.629206
O15   O     O_R   0.408360 0.460080 0.551690 -0.621219
O16   O     O_R   0.408420 0.356670 0.448300 -0.629555
O17   O     O_R   0.051710 0.908420 0.460050 -0.600870
O18   O     O_R   0.960120 0.908380 0.551680 -0.585596
O19   O     O_R   0.856660 0.908440 0.448310 -0.644240
O20   O     O_R   0.051740 0.091590 0.643330 -0.614114
O21   O     O_R   0.948290 0.091650 0.539960 -0.626963
O22   O     O_R   0.143330 0.091630 0.551690 -0.629467
O23   O     O_R   0.039880 0.091690 0.448320 -0.641626
O24   O     O_R   0.948270 0.540000 0.091680 -0.628533
Zn1   Zn    Zn3+2 0.499960 0.569050 0.569040 0.918115
Zn2   Zn    Zn3+2 0.500040 0.430950 0.430960 0.938991
Zn3   Zn    Zn3+2 0.069080 0.999990 0.569020 0.967361
Zn4   Zn    Zn3+2 0.930920 0.000070 0.430980 0.906120
Zn5   Zn    Zn3+2 0.930940 0.431040 0.000110 0.945051
Zn6   Zn    Zn3+2 0.069060 0.569140 0.000070 0.951483

loop_
_geom_bond_atom_site_label_1
_geom_bond_atom_site_label_2
_ccdc_geom_bond_type
C57   H27   S    
H88   N2    S    
C13   C26   S    
C73   H72   S    
C27   C29   A    
C21   O23   A    
C68   H60   S    
C35   C36   A    
C67   C77   A    
C43   C44   A    
C62   H46   S    
C20   C41   S    
C68   N6    S    
C19   C46   S    
C54   H21   S    
C7    C8    A    
C39   C41   A    
C53   C54   S    
C27   C33   A    
C69   H66   S    
C12   C23   S    
C18   O12   A    
C29   C30   A    
H38   N3    S    
C3    H12   S    
H63   N7    S    
C65   H49   S    
C36   C37   A    
C20   O21   A    
O9    Zn6   S    
C30   C31   A    
C50   H17   S    
C61   H41   S    
C72   H76   S    
C10   C17   A    
C62   N4    S    
O2    Zn6   S    
C28   O15   A    
O4    Zn2   S    
H68   N8    S    
C75   H85   S    
C1    C2    S    
C63   H52   S    
C49   H3    S    
C76   N2    S    
C20   O20   A    
C23   N8    S    
C16   O13   A    
C25   O7    A    
C24   C67   S    
C69   N7    S    
C26   O8    A    
C26   O9    A    
C74   N9    S    
C47   C48   S    
C45   C56   A    
C8    C9    A    
C64   H50   S    
O24   Zn5   S    
C52   H13   S    
C59   H33   S    
C10   H34   S    
C60   H31   S    
C63   H53   S    
H84   N10   S    
C45   N10   S    
C72   C73   S    
C25   C37   S    
C40   C42   A    
C57   H28   S    
O18   Zn3   S    
C59   C60   S    
C16   O14   A    
C13   C14   A    
C73   H73   S    
C24   O3    A    
C39   H89   S    
O12   Zn4   S    
C4    O11   A    
C54   H22   S    
C34   N9    S    
C70   H71   S    
O14   Zn2   S    
C1    O4    A    
C44   C46   A    
C31   H78   S    
C2    C45   A    
C38   C39   A    
C71   H79   S    
C5    H23   S    
O13   Zn1   S    
C61   H39   S    
C51   C52   S    
C47   H8    S    
C4    O10   A    
C52   H10   S    
C61   N3    S    
H59   N6    S    
C12   C46   A    
C25   O6    A    
C1    O1    A    
C78   H1    S    
C50   H16   S    
C14   H56   S    
C50   C51   S    
C58   C59   S    
C77   C78   A    
C6    C21   S    
C32   N4    S    
C69   H65   S    
C63   C64   S    
C32   C33   A    
C24   O5    A    
H54   N5    S    
C65   H47   S    
C49   H4    S    
C12   C40   A    
O1    Zn1   S    
H80   N9    S    
C37   C38   A    
C3    C9    A    
C51   H14   S    
C66   H55   S    
O8    Zn5   S    
O10   Zn1   S    
C38   N6    S    
C31   C32   A    
O15   Zn1   S    
O7    Zn6   S    
C53   H24   S    
C59   H35   S    
C23   C34   S    
C71   H77   S    
C55   H19   S    
C18   O17   A    
C14   C15   A    
C44   H67   S    
C15   N1    S    
C75   H87   S    
C76   H92   S    
C75   N10   S    
C51   H15   S    
H26   N1    S    
C66   H58   S    
C74   H81   S    
H42   N4    S    
C48   C49   S    
C57   H29   S    
O20   Zn3   S    
O22   Zn3   S    
C73   H74   S    
C58   H37   S    
C34   C40   S    
C66   N5    S    
O17   Zn3   S    
C70   H70   S    
C42   C43   A    
C68   H62   S    
C62   H44   S    
C2    C78   A    
C15   C17   A    
C54   C55   S    
C19   O18   A    
C52   H11   S    
C72   H75   S    
C22   C30   S    
C61   H40   S    
C48   H7    S    
C21   O22   A    
C11   H45   S    
C7    C50   S    
C29   N3    S    
C55   H18   S    
C3    C5    A    
C27   C58   S    
C60   H30   S    
C8    C53   S    
C74   H83   S    
C6    C7    A    
C22   O24   A    
O3    Zn5   S    
C56   C67   A    
O23   Zn4   S    
C19   O19   A    
C56   H2    S    
C74   H82   S    
C65   H48   S    
C49   H5    S    
C69   H64   S    
C71   C72   S    
C22   O2    A    
C70   N8    S    
C64   C65   S    
C11   C13   A    
C5    C6    A    
C4    C42   S    
C53   H25   S    
C77   N2    S    
C55   H20   S    
O19   Zn4   S    
C28   O16   A    
O21   Zn4   S    
C76   H90   S    
O16   Zn2   S    
C76   H91   S    
C35   C41   A    
C18   C33   S    
C23   N7    S    
C60   H32   S    
C10   C11   A    
C66   H57   S    
C48   H6    S    
C64   H51   S    
C9    C28   S    
C36   N5    S    
O6    Zn5   S    
C58   H36   S    
O5    Zn6   S    
C75   H86   S    
C68   H61   S    
C35   C63   S    
C70   H69   S    
C43   C47   S    
C34   C71   S    
O11   Zn2   S    
C62   H43   S    
C16   C17   S    
C47   H9    S    
C57   N1    S    
