data_mof_unit_57338.cif
_audit_creation_date              2012-12-11T16:23:52-0500
_audit_creation_method            fapswitch 2.2
_symmetry_space_group_name_H-M    P1
_symmetry_Int_Tables_number       1
_space_group_crystal_system       triclinic
_cell_length_a                    14.72124
_cell_length_b                    14.716943
_cell_length_c                    33.246582
_cell_angle_alpha                 96.075637
_cell_angle_beta                  96.238911
_cell_angle_gamma                 61.209655
_cell_volume                      6263.32592725

loop_
_atom_site_label
_atom_site_type_symbol
_atom_type_description
_atom_site_fract_x
_atom_site_fract_y
_atom_site_fract_z
_atom_type_partial_charge
C1    C     C_R   0.390045 0.701731 0.446382 0.592419
C2    C     C_1   0.318609 0.326647 0.229617 0.011792
C3    C     C_2   0.514617 0.803878 0.429838 0.592665
C4    C     C_2   0.176742 0.832600 0.158679 0.621782
C5    C     C_2   0.504789 0.252537 0.688339 0.592063
C6    C     C_2   0.273258 0.529943 0.863352 0.621603
C7    C     C_2   0.853625 0.150957 0.891950 0.647737
C8    C     C_2   0.904565 0.434177 0.799031 0.627863
C9    C     C_2   0.935242 0.446096 0.885344 0.650532
C10   C     C_2   0.532062 0.815732 0.830005 0.616052
C11   C     C_2   0.555040 0.791887 0.687432 0.589011
C12   C     C_2   0.184382 0.810635 0.600263 0.590694
C13   C     C_1   0.324204 0.330975 0.265946 0.043426
C14   C     C_2   0.837535 0.493116 0.423422 0.641450
C15   C     C_R   0.405167 0.385491 0.434273 0.572172
C16   C     C_R   0.290001 0.295779 0.101796 0.004542
C17   C     C_R   0.760307 0.370262 0.409918 -0.007227
C18   C     C_R   0.807651 0.424395 0.395615 0.060930
C19   C     C_R   0.829330 0.410665 0.354413 0.074902
C20   C     C_R   0.810836 0.338272 0.328564 -0.000962
C21   C     C_R   0.779748 0.274350 0.344252 -0.118839
C22   C     C_R   0.754294 0.289003 0.384530 0.064247
C23   C     C_R   0.331729 0.338308 0.309308 0.062808
C24   C     C_R   0.825131 0.309935 0.202973 0.371843
C25   C     C_R   0.820386 0.329500 0.284778 0.328703
C26   C     C_R   0.817243 0.390033 0.139986 -0.140630
C27   C     C_R   0.702120 0.409047 0.447518 0.573155
C28   C     C_R   0.845935 0.383201 0.100550 0.034594
C29   C     C_R   0.906148 0.197163 0.097316 -0.151261
C30   C     C_R   0.871191 0.205252 0.135723 0.047197
C31   C     C_R   0.834708 0.301354 0.158728 -0.009590
C32   C     C_R   0.899769 0.283774 0.080365 -0.027029
C33   C     C_R   0.368785 0.760596 0.409523 0.009541
C34   C     C_R   0.396445 0.250527 0.331236 0.113917
C35   C     C_R   0.283932 0.773156 0.381814 0.069020
C36   C     C_R   0.284076 0.792568 0.341317 0.071347
C37   C     C_R   0.366447 0.803041 0.328859 0.074406
C38   C     C_R   0.441683 0.807976 0.357505 0.031655
C39   C     C_R   0.392956 0.702752 0.561196 0.568511
C40   C     C_R   0.441885 0.789180 0.398442 0.015780
C41   C     C_R   0.365287 0.823909 0.204807 0.382511
C42   C     C_R   0.373223 0.807374 0.285431 0.411497
C43   C     C_R   0.255554 0.846592 0.139607 0.023213
C44   C     C_R   0.233694 0.875252 0.099461 -0.124844
C45   C     C_R   0.414655 0.263016 0.373613 0.104040
C46   C     C_R   0.390346 0.891241 0.102023 -0.101613
C47   C     C_R   0.415466 0.860327 0.141907 0.083428
C48   C     C_R   0.346167 0.841478 0.161356 0.036385
C49   C     C_R   0.297556 0.902960 0.081256 -0.024632
C50   C     C_R   0.376047 0.375497 0.588437 0.062490
C51   C     C_R   0.408388 0.389729 0.549829 0.594873
C52   C     C_R   0.271650 0.436118 0.598417 0.067305
C53   C     C_R   0.245351 0.444323 0.638661 0.078386
C54   C     C_R   0.322729 0.389720 0.668675 0.015182
C55   C     C_R   0.425490 0.320802 0.658049 0.025693
C56   C     C_R   0.398930 0.273211 0.164383 -0.095208
C57   C     C_R   0.452236 0.314669 0.618023 0.035645
C58   C     C_R   0.265095 0.401018 0.789616 0.406836
C59   C     C_R   0.296375 0.404700 0.711269 0.389308
C60   C     C_R   0.273901 0.429147 0.865946 0.064098
C61   C     C_R   0.280979 0.391667 0.904274 0.046134
C62   C     C_R   0.269308 0.240958 0.871041 0.096269
C63   C     C_R   0.702848 0.412519 0.562262 0.573751
C64   C     C_R   0.261686 0.277761 0.833209 0.141801
C65   C     C_R   0.263327 0.371786 0.830361 0.019443
C66   C     C_R   0.279573 0.297187 0.906688 0.023440
C67   C     C_R   0.390346 0.260996 0.121832 0.044090
C68   C     C_R   0.756800 0.377206 0.602111 0.024099
C69   C     C_R   0.743941 0.452372 0.633780 -0.155897
C70   C     C_R   0.771827 0.424461 0.673854 0.068944
C71   C     C_R   0.814427 0.319900 0.682561 0.118288
C72   C     C_R   0.833919 0.242512 0.651146 0.088000
C73   C     C_R   0.805395 0.271083 0.610545 0.087211
C74   C     C_R   0.858615 0.215082 0.825749 0.068201
C75   C     C_R   0.368424 0.363877 0.393091 0.050344
C76   C     C_R   0.876042 0.217664 0.868404 0.070694
C77   C     C_R   0.912382 0.363219 0.865727 -0.005819
C78   C     C_R   0.201652 0.351388 0.124437 -0.133649
C79   C     C_R   0.896371 0.358823 0.823178 0.024916
C80   C     C_R   0.872394 0.283019 0.803384 -0.031972
C81   C     C_1   0.852980 0.282924 0.759984 0.037986
C82   C     C_1   0.836408 0.294191 0.724217 0.119928
C83   C     C_R   0.910322 0.287087 0.888494 -0.066690
C84   C     C_R   0.376879 0.758362 0.602098 -0.021585
C85   C     C_R   0.284113 0.793905 0.622064 0.050786
C86   C     C_R   0.285572 0.815745 0.664163 -0.142979
C87   C     C_R   0.296799 0.448531 0.370840 -0.161852
C88   C     C_R   0.374571 0.809554 0.686307 -0.009950
C89   C     C_R   0.211697 0.364124 0.166334 -0.105403
C90   C     C_R   0.462756 0.787744 0.666012 0.054483
C91   C     C_R   0.463265 0.760613 0.624206 -0.158792
C92   C     C_R   0.423979 0.846264 0.839008 0.059925
C93   C     C_R   0.393166 0.880373 0.878840 -0.151586
C94   C     C_R   0.222772 0.895222 0.858835 0.092713
C95   C     C_R   0.252858 0.863427 0.819063 -0.121480
C96   C     C_R   0.350625 0.842751 0.808677 0.001816
C97   C     C_1   0.367443 0.828569 0.766054 0.070950
C98   C     C_1   0.373683 0.819984 0.729883 0.071594
C99   C     C_R   0.279220 0.435925 0.329271 -0.153236
C100  C     C_R   0.309974 0.322038 0.186344 0.012917
C101  C     C_R   0.292030 0.908817 0.888921 0.031826
C102  C     C_R   0.961330 0.265136 0.045068 0.572191
C103  C     C_R   0.273230 0.260451 0.059764 0.573493
C104  C     C_R   0.259314 0.959630 0.043890 0.550237
C105  C     C_R   0.962148 0.268255 0.930435 0.575569
C106  C     C_R   0.270567 0.264377 0.945496 0.537965
C107  C     C_R   0.256224 0.964220 0.928877 0.553037
C108  C     C_2   0.486322 0.214178 0.099429 0.596807
C109  C     C_2   0.817502 0.481352 0.081748 0.599244
C110  C     C_2   0.871744 0.113031 0.150363 0.618899
Cr1   Cr    Cr6+3 0.576280 0.580550 0.506370 1.087111
Cr2   Cr    Cr6+3 0.346780 0.572400 0.496520 1.076947
Cr3   Cr    Cr6+3 0.576960 0.347070 0.497150 1.080430
Cr4   Cr    Cr6+3 0.087320 0.083240 0.984860 1.080958
Cr5   Cr    Cr6+3 0.087720 0.316210 0.996740 1.094109
Cr6   Cr    Cr6+3 0.317350 0.090340 0.995890 1.055740
H1    H     H_    0.770065 0.215940 0.324305 0.138345
H2    H     H_    0.197999 0.858244 0.795590 0.119194
H3    H     H_    0.216573 0.837576 0.679984 0.150285
H4    H     H_    0.259358 0.526158 0.385101 0.145062
H5    H     H_    0.142559 0.403068 0.183253 0.137467
H6    H     H_    0.123984 0.379271 0.110094 0.156685
H7    H     H_    0.228296 0.503512 0.312378 0.124661
H8    H     H_    0.553271 0.206410 0.048418 0.350681
H9    H     H_    0.776246 0.175385 0.419432 0.239366
H10   H     H_    0.708643 0.175751 0.375443 0.215739
H11   H     H_    0.792688 0.629214 0.089789 0.352669
H12   H     H_    0.783385 0.465088 0.156612 0.179589
H13   H     H_    0.821820 0.515815 0.317498 0.266012
H14   H     H_    0.942570 0.414799 0.326125 0.237281
H15   H     H_    0.802246 0.057446 0.182350 0.356500
H16   H     H_    0.130558 0.835336 0.390658 0.236611
H17   H     H_    0.189931 0.706331 0.376863 0.220365
H18   H     H_    0.534223 0.860866 0.486128 0.341340
H19   H     H_    0.197791 0.731067 0.310079 0.234632
H20   H     H_    0.130999 0.861005 0.322193 0.240159
H21   H     H_    0.516161 0.894829 0.361553 0.249046
H22   H     H_    0.591440 0.766064 0.348394 0.288193
H23   H     H_    0.941165 0.121755 0.080974 0.172269
H24   H     H_    0.094429 0.859724 0.207400 0.359931
H25   H     H_    0.557638 0.772809 0.168488 0.247992
H26   H     H_    0.549381 0.872733 0.145473 0.245521
H27   H     H_    0.158031 0.570344 0.575637 0.260557
H28   H     H_    0.136664 0.466178 0.565498 0.241795
H29   H     H_    0.580753 0.172428 0.614930 0.251311
H30   H     H_    0.605509 0.275179 0.623276 0.269407
H31   H     H_    0.352624 0.404795 0.958455 0.256978
H32   H     H_    0.221034 0.472840 0.956628 0.244609
H33   H     H_    0.119480 0.587476 0.643111 0.262693
H34   H     H_    0.161693 0.884453 0.083593 0.182364
H35   H     H_    0.091240 0.487764 0.632713 0.246529
H36   H     H_    0.647524 0.202361 0.716739 0.344641
H37   H     H_    0.526219 0.119837 0.314729 0.233084
H38   H     H_    0.424137 0.101133 0.322041 0.249249
H39   H     H_    0.216065 0.663138 0.834895 0.339776
H40   H     H_    0.333067 0.092449 0.886579 0.263097
H41   H     H_    0.201574 0.161703 0.889407 0.240031
H42   H     H_    0.319957 0.143938 0.797559 0.265791
H43   H     H_    0.188433 0.209050 0.797490 0.276434
H44   H     H_    0.794236 0.138449 0.941749 0.344051
H45   H     H_    0.474779 0.244355 0.180512 0.167190
H46   H     H_    0.753098 0.187684 0.789657 0.247043
H47   H     H_    0.878618 0.096448 0.784409 0.243634
H48   H     H_    0.828689 0.107137 0.650334 0.247810
H49   H     H_    0.948744 0.093329 0.646087 0.248480
H50   H     H_    0.784607 0.152545 0.582411 0.242281
H51   H     H_    0.903433 0.141822 0.578257 0.240457
H52   H     H_    0.969941 0.456015 0.753223 0.362417
H53   H     H_    0.032082 0.508371 0.891871 0.349162
H54   H     H_    0.554607 0.137615 0.385404 0.235407
H55   H     H_    0.450382 0.123041 0.393257 0.232794
H56   H     H_    0.441049 0.910921 0.087927 0.146581
H57   H     H_    0.673586 0.555630 0.704688 0.263336
H58   H     H_    0.792754 0.543216 0.700855 0.273410
H59   H     H_    0.652521 0.728421 0.795153 0.375311
H60   H     H_    0.612946 0.850710 0.734657 0.361245
H61   H     H_    0.084955 0.863662 0.551116 0.339082
H62   H     H_    0.074763 0.919189 0.841485 0.249807
H63   H     H_    0.128237 0.857960 0.884374 0.263712
H64   H     H_    0.845480 0.626932 0.432423 0.350852
H65   H     H_    0.706145 0.534011 0.627816 0.162945
H66   H     H_    0.447589 0.887415 0.901996 0.167448
H67   H     H_    0.533255 0.737864 0.609018 0.171817
N1    N     N_R   0.764143 0.403059 0.222127 -0.220847
N2    N     N_R   0.379559 0.887100 0.271303 -0.180229
N3    N     N_R   0.375486 0.895266 0.231594 -0.162778
N4    N     N_R   0.346720 0.411382 0.780111 -0.184756
N5    N     N_3   0.718134 0.224104 0.399006 -0.571558
N6    N     N_3   0.873829 0.467571 0.339525 -0.564917
N7    N     N_3   0.198341 0.764926 0.394725 -0.584349
N8    N     N_3   0.201149 0.800767 0.312255 -0.591752
N9    N     N_3   0.518072 0.830377 0.344268 -0.596241
N10   N     N_3   0.509431 0.851320 0.163370 -0.580877
N11   N     N_3   0.192911 0.490750 0.567532 -0.596704
N12   N     N_R   0.361624 0.413956 0.741599 -0.191155
N13   N     N_3   0.557291 0.248069 0.607312 -0.583974
N14   N     N_3   0.286310 0.451577 0.940579 -0.556745
N15   N     N_3   0.140830 0.511638 0.649740 -0.590531
N16   N     N_3   0.445739 0.150247 0.310054 -0.603524
N17   N     N_3   0.263729 0.146715 0.872493 -0.633160
N18   N     N_3   0.254862 0.217623 0.797148 -0.550519
N19   N     N_3   0.824661 0.144532 0.805403 -0.555295
N20   N     N_3   0.879964 0.135963 0.660890 -0.627633
N21   N     N_3   0.823831 0.193483 0.577890 -0.599401
N22   N     N_3   0.480913 0.174690 0.396737 -0.589352
N23   N     N_R   0.212146 0.399153 0.720902 -0.162818
N24   N     N_3   0.753080 0.503158 0.706019 -0.578552
N25   N     N_3   0.120272 0.918549 0.868007 -0.552717
N26   N     N_R   0.196820 0.397369 0.759412 -0.151943
N27   N     N_R   0.761367 0.412535 0.262272 -0.217713
N28   N     N_R   0.881406 0.236407 0.265831 -0.208513
N29   N     N_R   0.884799 0.227250 0.225720 -0.170771
N30   N     N_R   0.362226 0.742492 0.218979 -0.194578
N31   N     N_R   0.366033 0.734485 0.258642 -0.183993
O1    O     O_R   0.679450 0.499830 0.463150 -0.474811
O2    O     O_R   0.340240 0.172500 0.045430 -0.473493
O3    O     O_R   0.309670 0.000990 0.032050 -0.499490
O4    O     O_R   0.480650 0.664000 0.464630 -0.477755
O5    O     O_R   0.168330 0.982130 0.939200 -0.465783
O6    O     O_R   0.000140 0.178170 0.944610 -0.472465
O7    O     O_R   0.983010 0.336750 0.948660 -0.464296
O8    O     O_R   0.181800 0.312190 0.959860 -0.496221
O9    O     O_R   0.338500 0.175680 0.956950 -0.498569
O10   O     O_R   0.308050 0.003930 0.950020 -0.518703
O11   O     O_3   0.164130 0.163270 0.992500 -0.276710
O12   O     O_R   0.356040 0.477400 0.534170 -0.477251
O13   O     O_R   0.323930 0.675950 0.455370 -0.466405
O14   O     O_R   0.354700 0.475360 0.451930 -0.513537
O15   O     O_R   0.494470 0.320860 0.448390 -0.456891
O16   O     O_R   0.662580 0.357570 0.460050 -0.468431
O17   O     O_R   0.680900 0.502040 0.551870 -0.513651
O18   O     O_R   0.481990 0.666040 0.546870 -0.508035
O19   O     O_R   0.325370 0.678160 0.544080 -0.465948
O20   O     O_2   0.569353 0.152901 0.115671 -0.490787
O21   O     O_R   0.482774 0.242875 0.060270 -0.672830
O22   O     O_2   0.792592 0.489506 0.045465 -0.456756
O23   O     O_R   0.495910 0.323070 0.537100 -0.474622
O24   O     O_R   0.814689 0.566323 0.105925 -0.704211
O25   O     O_2   0.937809 0.025535 0.139965 -0.490086
O26   O     O_R   0.794128 0.126003 0.174728 -0.645800
O27   O     O_2   0.605948 0.770111 0.423556 -0.500583
O28   O     O_R   0.477864 0.856182 0.467021 -0.679587
O29   O     O_2   0.132319 0.788494 0.139201 -0.472963
O30   O     O_R   0.149863 0.873447 0.198145 -0.644167
O31   O     O_2   0.485764 0.197420 0.707235 -0.470686
O32   O     O_R   0.600417 0.251985 0.695502 -0.711477
O33   O     O_2   0.327960 0.554420 0.887400 -0.453486
O34   O     O_R   0.663920 0.359620 0.542290 -0.465555
O35   O     O_R   0.209514 0.597352 0.833534 -0.681753
O36   O     O_2   0.876426 0.061856 0.879461 -0.460210
O37   O     O_R   0.805264 0.190928 0.928425 -0.671334
O38   O     O_2   0.852955 0.527601 0.806810 -0.463808
O39   O     O_R   0.971333 0.397664 0.767428 -0.671377
O40   O     O_2   0.874517 0.513093 0.908336 -0.434112
O41   O     O_R   0.025032 0.448284 0.876783 -0.687060
O42   O     O_2   0.582080 0.850799 0.851596 -0.480100
O43   O     O_R   0.578214 0.744260 0.797661 -0.649960
O44   O     O_2   0.639606 0.744434 0.672794 -0.543841
O45   O     O_3   0.500010 0.500010 0.500010 -0.286923
O46   O     O_R   0.544994 0.853013 0.723544 -0.649218
O47   O     O_2   0.125938 0.789304 0.615795 -0.540493
O48   O     O_R   0.155085 0.855017 0.562708 -0.666196
O49   O     O_2   0.877504 0.466146 0.457279 -0.505655
O50   O     O_R   0.821562 0.587674 0.410793 -0.625240
O51   O     O_R   0.170070 0.978950 0.027680 -0.509169
O52   O     O_R   0.001760 0.175230 0.026640 -0.501279
O53   O     O_R   0.984760 0.333570 0.037150 -0.472577
O54   O     O_R   0.183410 0.309240 0.041890 -0.509780

loop_
_geom_bond_atom_site_label_1
_geom_bond_atom_site_label_2
_ccdc_geom_bond_type
C44   C49   A    
C101  C107  S    
C23   C99   A    
C64   N18   S    
H47   N19   S    
Cr2   O14   S    
C91   H67   S    
C24   N1    A    
C36   N8    S    
Cr1   O17   S    
C14   C18   S    
Cr5   O8    S    
C15   C75   S    
C19   C20   A    
H35   N15   S    
C5    O32   S    
Cr6   O2    S    
C49   C104  S    
C81   C82   T    
H39   O35   S    
C1    C33   S    
Cr3   O16   S    
H61   O48   S    
C9    O41   S    
C85   C86   A    
C52   C53   A    
Cr4   O6    S    
C63   O34   A    
C46   C49   A    
C37   C38   A    
C74   C76   A    
C12   C85   S    
C30   C110  S    
H9    N5    S    
C10   O42   D    
C53   N15   S    
C63   O17   A    
C36   C37   A    
Cr1   O1    S    
C39   C84   S    
Cr5   O11   S    
C29   C32   A    
C69   C70   A    
Cr4   O52   S    
Cr2   O45   S    
C30   C31   A    
H64   O50   S    
C110  O26   S    
H32   N14   S    
H43   N18   S    
H28   N11   S    
C20   C25   S    
C77   C83   A    
C21   H1    S    
Cr2   O19   S    
C8    O39   S    
C92   C96   A    
C47   N10   S    
C13   C23   S    
C18   C19   A    
C3    O27   D    
C37   C42   S    
C25   N28   A    
C2    C13   T    
H53   O41   S    
H18   O28   S    
H29   N13   S    
C62   C64   A    
C27   O16   A    
C46   C47   A    
H8    O21   S    
C34   N16   S    
C41   C48   S    
N2    N3    A    
C9    O40   D    
C94   C101  A    
C45   N22   S    
C68   C69   A    
H13   N6    S    
C8    C79   S    
C50   C52   A    
C86   H3    S    
Cr1   O4    S    
H55   N22   S    
C43   C48   A    
Cr4   O5    S    
C4    O29   D    
H36   O32   S    
H14   N6    S    
H33   N15   S    
C72   C73   A    
C71   C82   S    
C23   C34   A    
Cr3   O23   S    
C108  O21   S    
C10   C92   S    
C26   C31   A    
C95   H2    S    
Cr2   O13   S    
C74   C80   A    
C21   C22   A    
C15   O15   A    
C27   O1    A    
Cr1   O18   S    
H44   O37   S    
H40   N17   S    
C66   C106  S    
N1    N27   A    
C61   C66   A    
C76   C83   A    
Cr1   O45   S    
Cr5   O53   S    
H17   N7    S    
C97   C98   T    
C15   O14   A    
C87   C99   A    
C54   C59   S    
C77   C79   A    
C78   C89   A    
C24   N29   A    
C26   H12   S    
C29   H23   S    
C73   N21   S    
C108  O20   D    
C33   C40   A    
Cr2   O12   S    
C62   C66   A    
H20   N8    S    
C17   C27   S    
C11   O44   D    
C6    C60   S    
C6    O33   D    
C28   C32   A    
C94   N25   S    
C104  O51   A    
H54   N22   S    
C51   O23   A    
C12   O48   S    
Cr4   O51   S    
C93   C101  A    
C16   C67   A    
Cr5   O7    S    
C110  O25   D    
H60   O46   S    
H25   N10   S    
C89   C100  A    
C59   N12   A    
C70   N24   S    
C109  O24   S    
H27   N11   S    
C56   H45   S    
C44   H34   S    
C83   C105  S    
H62   N25   S    
C60   C61   A    
H24   O30   S    
C3    O28   S    
Cr6   O10   S    
C43   C44   A    
C29   C30   A    
C42   N31   A    
H48   N20   S    
H21   N9    S    
C41   N30   A    
C93   H66   S    
C58   C65   S    
N28   N29   A    
C2    C100  S    
N30   N31   A    
H15   O26   S    
C105  O6    A    
C96   C97   S    
C51   O12   A    
C17   C18   A    
C10   O43   S    
C52   N11   S    
C94   C95   A    
H57   N24   S    
C34   C45   A    
C9    C77   S    
C103  O54   A    
C84   C85   A    
Cr3   O15   S    
H19   N8    S    
C1    O4    A    
C14   O50   S    
C19   N6    S    
C72   N20   S    
C107  O5    A    
C42   N2    A    
C75   C87   A    
C84   C91   A    
H46   N19   S    
C3    C40   S    
C35   N7    S    
C38   N9    S    
C102  O53   A    
C55   C57   A    
C57   N13   S    
C16   C103  S    
C32   C102  S    
H31   N14   S    
C67   C108  S    
C56   C100  A    
C61   N14   S    
C56   C67   A    
H16   N7    S    
C70   C71   A    
Cr5   O54   S    
C59   N23   A    
C16   C78   A    
C99   H7    S    
C107  O10   A    
C58   N26   A    
C54   C55   A    
C7    O36   D    
H63   N25   S    
C8    O38   D    
C88   C90   A    
C6    O35   S    
N4    N12   A    
C58   N4    A    
C50   C57   A    
C5    C55   S    
C106  O9    A    
H22   N9    S    
C5    O31   D    
C80   C81   S    
C47   C48   A    
H51   N21   S    
C60   C65   A    
C46   H56   S    
C53   C54   A    
C7    C76   S    
H37   N16   S    
C4    C43   S    
C28   C109  S    
Cr3   O34   S    
C74   N19   S    
C63   C68   S    
C26   C28   A    
C17   C22   A    
Cr6   O11   S    
C45   C75   A    
H41   N17   S    
C64   C65   A    
Cr6   O9    S    
H10   N5    S    
H49   N20   S    
C24   C31   S    
C62   N17   S    
C39   O18   A    
C11   C90   S    
C11   O46   S    
Cr4   O11   S    
C38   C40   A    
H38   N16   S    
N23   N26   A    
C1    O13   A    
C90   C91   A    
H58   N24   S    
C89   H5    S    
C105  O7    A    
H52   O39   S    
C92   C93   A    
C33   C35   A    
H26   N10   S    
C106  O8    A    
C41   N3    A    
C86   C88   A    
C12   O47   D    
H59   O43   S    
C22   N5    S    
C25   N27   A    
C78   H6    S    
C39   O19   A    
C104  O3    A    
C14   O49   D    
H50   N21   S    
C79   C80   A    
C109  O22   D    
C87   H4    S    
C71   C72   A    
C20   C21   A    
H11   O24   S    
C102  O52   A    
C7    O37   S    
C95   C96   A    
H42   N18   S    
C50   C51   S    
C68   C73   A    
C35   C36   A    
Cr3   O45   S    
Cr6   O3    S    
H30   N13   S    
C103  O2    A    
C4    O30   S    
C88   C98   S    
C69   H65   S    
