data_mof_unit_60374.cif
_audit_creation_date              2012-12-10T19:30:22-0500
_audit_creation_method            fapswitch 2.2
_symmetry_space_group_name_H-M    P1
_symmetry_Int_Tables_number       1
_space_group_crystal_system       triclinic
_cell_length_a                    17.763201
_cell_length_b                    16.414667
_cell_length_c                    19.467149
_cell_angle_alpha                 90.030668
_cell_angle_beta                  90.669847
_cell_angle_gamma                 90.022483
_cell_volume                      5675.78430344

loop_
_atom_site_label
_atom_site_type_symbol
_atom_type_description
_atom_site_fract_x
_atom_site_fract_y
_atom_site_fract_z
_atom_type_partial_charge
C1    C     C_R   0.355255 0.499931 0.499724 0.927414
C2    C     C_R   0.644746 0.499996 0.499583 0.927381
C3    C     C_R   0.727577 0.499927 0.496704 -0.315056
C4    C     C_R   0.272357 0.499447 0.497414 -0.314726
C5    C     C_R   0.885259 0.501449 0.487624 -0.191861
C6    C     C_R   0.114503 0.495595 0.488085 -0.191754
C7    C     C_1   0.966119 0.499071 0.488054 0.197681
C8    C     C_1   0.033632 0.497152 0.488208 0.197019
C9    C     C_R   0.546172 0.829150 0.545688 -0.321550
C10   C     C_R   0.450813 0.170840 0.457136 -0.315514
C11   C     C_R   0.454047 0.829140 0.454315 -0.320697
C12   C     C_R   0.549229 0.170979 0.542918 -0.313205
C13   C     C_R   0.545485 0.743263 0.544855 0.765308
C14   C     C_R   0.451506 0.256725 0.457877 0.764826
C15   C     C_R   0.454694 0.743263 0.455065 0.765693
C16   C     C_R   0.548489 0.256857 0.542158 0.766599
C17   C     C_R   0.500092 0.873208 0.500041 -0.049034
C18   C     C_R   0.500039 0.126851 0.500030 -0.038525
C19   C     C_1   0.500096 0.962744 0.500058 0.075894
C20   C     C_1   0.500072 0.037315 0.500047 0.073223
C21   C     C_R   0.505029 0.499947 0.367126 0.812998
C22   C     C_R   0.494985 0.499995 0.632878 0.813614
C23   C     C_R   0.516937 0.574461 0.253372 -0.016820
C24   C     C_R   0.488334 0.425440 0.747045 -0.025607
C25   C     C_R   0.484096 0.574663 0.746746 -0.017048
C26   C     C_R   0.510909 0.425310 0.252879 -0.026384
C27   C     C_R   0.510755 0.573782 0.181738 -0.169141
C28   C     C_R   0.494430 0.427073 0.818621 -0.167658
C29   C     C_R   0.490351 0.573881 0.818368 -0.168723
C30   C     C_R   0.504915 0.427042 0.181306 -0.168638
C31   C     C_R   0.504369 0.500674 0.145370 0.012083
C32   C     C_R   0.495896 0.500689 0.854644 0.011914
C33   C     C_R   0.512482 0.499822 0.290740 -0.169031
C34   C     C_R   0.487606 0.499978 0.709276 -0.169062
C35   C     C_R   0.498776 0.500862 0.930344 0.443147
C36   C     C_R   0.501540 0.500869 0.069670 0.443010
C37   C     C_R   0.847661 0.568338 0.517677 -0.144210
C38   C     C_R   0.153515 0.430169 0.519681 -0.139079
C39   C     C_R   0.154325 0.562593 0.460791 -0.146888
C40   C     C_R   0.844102 0.434180 0.461554 -0.141129
C41   C     C_R   0.768845 0.566730 0.521941 0.538936
C42   C     C_R   0.232438 0.432928 0.524050 0.539726
C43   C     C_R   0.233108 0.564067 0.466283 0.530018
C44   C     C_R   0.765396 0.433934 0.466806 0.530056
Cu1   Cu    Cu3+1 0.500000 0.580420 0.500000 1.150880
Cu2   Cu    Cu3+1 0.500000 0.419580 0.500000 1.160723
H1    H     H_    0.513630 0.630971 0.154057 0.185277
H2    H     H_    0.495674 0.369928 0.846515 0.184693
H3    H     H_    0.488200 0.631100 0.846118 0.185155
H4    H     H_    0.503008 0.369923 0.153345 0.184448
H5    H     H_    0.582597 0.860926 0.581788 0.202180
H6    H     H_    0.411961 0.139010 0.423243 0.195405
H7    H     H_    0.417729 0.860903 0.418165 0.202495
H8    H     H_    0.588083 0.139260 0.576833 0.196195
N1    N     N_R   0.500424 0.429761 0.034110 -0.214589
N2    N     N_R   0.499879 0.572012 0.965885 -0.213345
N3    N     N_R   0.499019 0.429757 0.965844 -0.214472
N4    N     N_R   0.501321 0.572016 0.034189 -0.213415
N5    N     N_R   0.500000 0.701220 0.500000 -0.292318
N6    N     N_R   0.500000 0.298780 0.500000 -0.272809
O1    O     O_R   0.391260 0.567930 0.500000 -0.513832
O2    O     O_R   0.608740 0.432070 0.500000 -0.501604
O3    O     O_R   0.608740 0.567930 0.500000 -0.513103
O4    O     O_R   0.391260 0.432070 0.500000 -0.503484
O5    O     O_R   0.499990 0.567930 0.400140 -0.540693
O6    O     O_R   0.500010 0.432070 0.599860 -0.545870
O7    O     O_R   0.500010 0.567930 0.599860 -0.541437
O8    O     O_R   0.499990 0.432070 0.400140 -0.545473
C45   C     C_2   0.532815 0.654553 0.285591 0.918886
O9    O     O_2   0.586075 0.662286 0.325465 -0.578823
O10   O     O_R   0.489302 0.722246 0.267232 -0.708171
H9    H     H_    0.506039 0.773686 0.291906 0.343149
C46   C     C_2   0.478500 0.343984 0.715386 0.918101
O11   O     O_2   0.424658 0.330575 0.677285 -0.532986
O12   O     O_R   0.528486 0.281229 0.732464 -0.714769
H10   H     H_    0.515416 0.228140 0.708481 0.345228
C47   C     C_2   0.469198 0.654996 0.714677 0.919195
O13   O     O_2   0.415818 0.663585 0.675076 -0.578246
O14   O     O_R   0.513761 0.721993 0.732930 -0.706973
H11   H     H_    0.497595 0.773712 0.708426 0.343524
C48   C     C_2   0.519691 0.343712 0.284419 0.918030
O15   O     O_2   0.573476 0.329445 0.322336 -0.533498
O16   O     O_R   0.468791 0.281745 0.267373 -0.714268
H12   H     H_    0.481223 0.228431 0.291208 0.345686
C49   C     C_2   0.889503 0.640429 0.544973 0.943420
O17   O     O_2   0.866108 0.677075 0.595111 -0.485376
O18   O     O_R   0.955007 0.667335 0.512919 -0.764628
H13   H     H_    0.978065 0.716747 0.536304 0.351341
C50   C     C_2   0.113064 0.358425 0.548367 0.945869
O19   O     O_2   0.138227 0.323309 0.599053 -0.490629
O20   O     O_R   0.046824 0.330101 0.517024 -0.761373
H14   H     H_    0.024858 0.281107 0.541351 0.351898
C51   C     C_2   0.114857 0.631308 0.425672 0.984395
O21   O     O_2   0.139215 0.700741 0.431174 -0.496568
O22   O     O_R   0.050556 0.616657 0.385395 -0.723085
H15   H     H_    0.029000 0.668259 0.364412 0.358274
C52   C     C_2   0.882086 0.363831 0.428146 0.979382
O23   O     O_2   0.856804 0.294983 0.434738 -0.495032
O24   O     O_R   0.946070 0.376231 0.388279 -0.723993
H16   H     H_    0.966597 0.323681 0.368535 0.358916
F1    F     F_    0.732186 0.630755 0.550578 -0.556394
F2    F     F_    0.270592 0.370302 0.554089 -0.576275
F3    F     F_    0.271841 0.626770 0.437914 -0.556487
F4    F     F_    0.725263 0.370887 0.439577 -0.578766
F5    F     F_    0.590823 0.702309 0.589310 -0.569887
F6    F     F_    0.403194 0.297695 0.416077 -0.614764
F7    F     F_    0.409682 0.702333 0.410284 -0.567539
F8    F     F_    0.596731 0.297951 0.584003 -0.612971

loop_
_geom_bond_atom_site_label_1
_geom_bond_atom_site_label_2
_ccdc_geom_bond_type
O18   H13   S    
C51   O21   D    
C5    C37   A    
C46   O11   D    
C23   C45   S    
O22   H15   S    
C9    H5    S    
C10   H6    S    
C48   O15   D    
C44   F4    S    
C7    C8    T    
C29   H3    S    
C49   O17   D    
C38   C50   S    
Cu2   O2    S    
O16   H12   S    
C25   C47   S    
C37   C49   S    
Cu2   O6    S    
C29   C32   A    
C36   N4    A    
C30   C31   A    
C24   C46   S    
C21   C33   S    
C1    O1    A    
C16   N6    A    
C15   F7    S    
C45   O10   S    
C9    C13   A    
C22   O6    A    
C52   O24   S    
C11   C15   A    
C3    C41   A    
C12   C16   A    
C41   F1    S    
C23   C33   A    
Cu1   O7    S    
C6    C38   A    
C23   C27   A    
C50   O20   S    
C11   H7    S    
C47   O13   D    
C25   C34   A    
Cu2   N6    S    
C47   O14   S    
C30   H4    S    
C51   O22   S    
C46   O12   S    
C39   C51   S    
C42   F2    S    
C48   O16   S    
C52   O23   D    
C49   O18   S    
C25   C29   A    
C22   C34   S    
C3    C44   A    
C27   C31   A    
C32   C35   S    
C28   C32   A    
C13   F5    S    
C10   C14   A    
C40   C52   S    
C5    C7    S    
C39   C43   A    
Cu1   Cu2   S    
Cu1   O3    S    
C24   C34   A    
Cu2   O4    S    
O12   H10   S    
Cu2   O8    S    
C26   C33   A    
O24   H16   S    
C14   F6    S    
C9    C17   A    
C26   C30   A    
C26   C48   S    
N1    N3    A    
C21   O8    A    
Cu1   O5    S    
C1    O4    A    
O20   H14   S    
C2    O3    A    
C27   H1    S    
C28   H2    S    
C21   O5    A    
C35   N2    A    
C31   C36   S    
C15   N5    A    
C24   C28   A    
C11   C17   A    
C6    C8    S    
C38   C42   A    
C13   N5    A    
C4    C43   A    
C14   N6    A    
C35   N3    A    
C1    C4    S    
C19   C20   T    
C2    C3    S    
O10   H9    S    
C36   N1    A    
C4    C42   A    
C10   C18   A    
Cu1   O1    S    
C17   C19   S    
N2    N4    A    
C18   C20   S    
C37   C41   A    
C45   O9    D    
C43   F3    S    
C22   O7    A    
C16   F8    S    
O14   H11   S    
C40   C44   A    
Cu1   N5    S    
C5    C40   A    
C12   C18   A    
C6    C39   A    
C50   O19   D    
C12   H8    S    
C2    O2    A    
