data_mof_unit_29110.cif
_audit_creation_date              2012-12-11T17:47:34-0500
_audit_creation_method            fapswitch 2.2
_symmetry_space_group_name_H-M    P1
_symmetry_Int_Tables_number       1
_space_group_crystal_system       triclinic
_cell_length_a                    14.831225
_cell_length_b                    14.915524
_cell_length_c                    15.116165
_cell_angle_alpha                 110.421018
_cell_angle_beta                  109.462874
_cell_angle_gamma                 108.498321
_cell_volume                      2574.61323512

loop_
_atom_site_label
_atom_site_type_symbol
_atom_type_description
_atom_site_fract_x
_atom_site_fract_y
_atom_site_fract_z
_atom_type_partial_charge
C1    C     C_R   0.976690 0.252026 0.064849 -0.122804
C2    C     C_R   0.091334 0.805358 0.007161 -0.150901
C3    C     C_R   0.325756 0.790591 0.328194 0.050923
C4    C     C_R   0.706244 0.127782 0.704487 0.068466
C5    C     C_R   0.305300 0.499291 0.938728 0.046247
C6    C     C_R   0.675479 0.500769 0.940869 0.035155
C7    C     C_R   0.943446 0.501529 0.304621 0.062581
C8    C     C_R   0.955469 0.503045 0.678631 0.040264
C9    C     C_R   0.165319 0.039052 0.081078 -0.233277
C10   C     C_R   0.062392 0.140458 0.163561 -0.241327
C11   C     C_R   0.257169 0.121028 0.866955 -0.154509
C12   C     C_R   0.927417 0.945350 0.314056 -0.115463
C13   C     C_R   0.189076 0.097445 0.909970 -0.211837
C14   C     C_R   0.004284 0.995813 0.288996 -0.193827
C15   C     C_R   0.619792 0.246927 0.090043 -0.112758
C16   C     C_R   0.308646 0.731773 0.833268 -0.118996
C17   C     C_R   0.692239 0.338525 0.194655 -0.164100
C18   C     C_R   0.211515 0.653555 0.734100 -0.123015
C19   C     C_R   0.747544 0.326033 0.281383 0.121114
C20   C     C_R   0.132903 0.682409 0.691097 0.117845
C21   C     C_R   0.720518 0.219322 0.263271 -0.160636
C22   C     C_R   0.154478 0.790984 0.747015 -0.201287
C23   C     C_R   0.316175 0.760288 0.225418 -0.129761
C24   C     C_R   0.706067 0.193799 0.795511 -0.137142
C25   C     C_R   0.643216 0.127609 0.159477 -0.118871
C26   C     C_R   0.252167 0.868647 0.845715 -0.127173
C27   C     C_R   0.594109 0.141549 0.072522 -0.092432
C28   C     C_R   0.328838 0.838956 0.888985 -0.108476
C29   C     C_R   0.848590 0.428386 0.483338 -0.251200
C30   C     C_R   0.014783 0.596243 0.496712 -0.248180
C31   C     C_R   0.941416 0.512085 0.583706 0.075154
C32   C     C_R   0.927861 0.507482 0.395447 0.067608
C33   C     C_R   0.025583 0.597826 0.590707 0.016429
C34   C     C_R   0.841086 0.423226 0.387223 0.026262
C35   C     C_R   0.227343 0.164073 0.021045 0.120313
C36   C     C_R   0.968370 0.996208 0.190880 0.119013
C37   C     C_R   0.401315 0.276510 0.045486 -0.085154
C38   C     C_R   0.780432 0.912359 0.153065 -0.153079
C39   C     C_R   0.250394 0.043987 0.527110 -0.132628
C40   C     C_R   0.921347 0.021801 0.621167 -0.126427
C41   C     C_R   0.327300 0.014070 0.514201 -0.124532
C42   C     C_R   0.816188 0.974401 0.607325 -0.136056
C43   C     C_R   0.339765 0.933953 0.537374 0.109349
C44   C     C_R   0.728940 0.971361 0.529223 0.114213
C45   C     C_R   0.212796 0.408198 0.907231 -0.130800
C46   C     C_R   0.776090 0.592122 0.020881 -0.142108
C47   C     C_R   0.275645 0.885461 0.575274 -0.184027
C48   C     C_R   0.746902 0.010718 0.461210 -0.221403
C49   C     C_R   0.195250 0.912084 0.582974 -0.124334
C50   C     C_R   0.853001 0.061931 0.478498 -0.122193
C51   C     C_R   0.183220 0.991736 0.559793 -0.115389
C52   C     C_R   0.940164 0.068038 0.558716 -0.116660
C53   C     C_R   0.526574 0.974692 0.628530 -0.229816
C54   C     C_R   0.526041 0.866196 0.437286 -0.249247
C55   C     C_R   0.624101 0.010789 0.625682 0.050620
C56   C     C_R   0.426946 0.854630 0.433870 0.070423
C57   C     C_R   0.625916 0.947013 0.532306 0.037292
C58   C     C_R   0.428077 0.910491 0.532091 0.015254
C59   C     C_R   0.364327 0.208206 0.935303 -0.091591
C60   C     C_R   0.815646 0.904293 0.246436 -0.114166
C61   C     C_R   0.047260 0.041849 0.158916 0.023149
C62   C     C_R   0.165218 0.127502 0.070332 0.028382
C63   C     C_R   0.332699 0.254935 0.088169 -0.144057
C64   C     C_R   0.856230 0.956411 0.124137 -0.142876
C65   C     C_R   0.093290 0.985193 0.108655 0.059495
C66   C     C_R   0.103114 0.172156 0.101874 0.057293
C67   C     C_R   0.997358 0.591994 0.299621 -0.164025
C68   C     C_R   0.939914 0.409098 0.685485 -0.138540
C69   C     C_3   0.461311 0.446618 0.816762 0.212021
C70   C     C_3   0.508365 0.553744 0.022003 0.225917
C71   C     C_3   0.449898 0.549915 0.866415 -0.226969
C72   C     C_3   0.516459 0.450642 0.971208 -0.187362
C73   C     C_3   0.396106 0.499512 0.921055 0.110934
C74   C     C_3   0.572486 0.501454 0.918645 0.120078
C75   C     C_3   0.404130 0.395724 0.868881 -0.246462
C76   C     C_3   0.563742 0.605111 0.969454 -0.244172
C77   C     C_R   0.302733 0.590913 0.998474 -0.153922
C78   C     C_R   0.685733 0.408591 0.927292 -0.142816
C79   C     C_R   0.913875 0.409361 0.212409 -0.139948
C80   C     C_R   0.019217 0.592130 0.782053 -0.105223
C81   C     C_R   0.220897 0.752265 0.313490 -0.120896
C82   C     C_R   0.794341 0.195028 0.702551 -0.145167
C83   C     C_R   0.071148 0.254011 0.976239 -0.142371
C84   C     C_R   0.997838 0.801590 0.095083 -0.148796
C85   C     C_R   0.057094 0.228485 0.052953 0.059813
C86   C     C_R   0.058853 0.867990 0.069311 0.069629
H1    H     H_    0.941413 0.239464 0.113907 0.093168
H2    H     H_    0.151039 0.833577 0.983716 0.104217
H3    H     H_    0.228424 0.069166 0.781864 0.126254
H4    H     H_    0.954427 0.938160 0.385826 0.127233
H5    H     H_    0.483988 0.344304 0.099704 0.104685
H6    H     H_    0.694301 0.883329 0.102438 0.103171
H7    H     H_    0.537382 0.070994 0.991306 0.102033
H8    H     H_    0.403373 0.898629 0.966414 0.097632
H9    H     H_    0.585661 0.258066 0.022160 0.095830
H10   H     H_    0.367866 0.709631 0.868535 0.099166
H11   H     H_    0.711489 0.419544 0.206291 0.106632
H12   H     H_    0.195978 0.570091 0.692614 0.108760
H13   H     H_    0.762265 0.207062 0.328253 0.106839
H14   H     H_    0.093529 0.813873 0.716806 0.109466
H15   H     H_    0.624031 0.045946 0.145803 0.101065
H16   H     H_    0.267726 0.951198 0.890420 0.137126
H17   H     H_    0.784502 0.364297 0.479938 0.130166
H18   H     H_    0.082697 0.659155 0.503129 0.130072
H19   H     H_    0.108072 0.025747 0.857993 0.117042
H20   H     H_    0.090542 0.027810 0.341490 0.119419
H21   H     H_    0.335453 0.310493 0.823129 0.129504
H22   H     H_    0.629420 0.690668 0.009700 0.126430
H23   H     H_    0.381382 0.776293 0.206138 0.090108
H24   H     H_    0.660009 0.167975 0.832489 0.087061
H25   H     H_    0.363512 0.305322 0.174390 0.113835
H26   H     H_    0.827806 0.959563 0.049886 0.112856
H27   H     H_    0.122732 0.013744 0.568540 0.094070
H28   H     H_    0.022330 0.109316 0.572757 0.096650
H29   H     H_    0.378958 0.054997 0.488652 0.111509
H30   H     H_    0.803831 0.945180 0.660871 0.111496
H31   H     H_    0.286105 0.825475 0.595950 0.125486
H32   H     H_    0.681107 0.010621 0.401774 0.120341
H33   H     H_    0.142701 0.871972 0.607767 0.112337
H34   H     H_    0.868038 0.098936 0.431123 0.128333
H35   H     H_    0.213359 0.006181 0.055712 0.126687
H36   H     H_    0.026822 0.182255 0.202150 0.127974
H37   H     H_    0.420777 0.586703 0.818881 0.116168
H38   H     H_    0.550071 0.412755 0.014649 0.102789
H39   H     H_    0.184148 0.323913 0.849621 0.098433
H40   H     H_    0.794966 0.676808 0.055472 0.111066
H41   H     H_    0.019004 0.675811 0.351128 0.106994
H42   H     H_    0.895010 0.324885 0.619421 0.102913
H43   H     H_    0.357376 0.674951 0.025777 0.093032
H44   H     H_    0.621079 0.323914 0.875277 0.100232
H45   H     H_    0.195559 0.752352 0.372022 0.118800
H46   H     H_    0.827616 0.173532 0.650913 0.136638
H47   H     H_    0.125967 0.247528 0.946004 0.126000
H48   H     H_    0.972893 0.822951 0.154163 0.126477
H49   H     H_    0.417940 0.222193 0.901899 0.097778
H50   H     H_    0.756375 0.867923 0.267225 0.131208
N1    N     N_R   0.947560 0.293820 0.002910 -0.041017
N2    N     N_R   0.052440 0.706180 0.997090 -0.040622
N3    N     N_R   0.208960 0.706170 0.152110 -0.038968
N4    N     N_R   0.791040 0.293830 0.847890 -0.038135
N5    N     N_R   0.154330 0.443160 0.946140 -0.041146
N6    N     N_R   0.845670 0.556840 0.053860 -0.040276
N7    N     N_R   0.002190 0.556820 0.208880 -0.038586
N8    N     N_R   0.997810 0.443180 0.791120 -0.041023
N9    N     N_R   0.210550 0.556810 0.002910 -0.035619
N10   N     N_R   0.789450 0.443190 0.997090 -0.039373
N11   N     N_R   0.945970 0.443180 0.152110 -0.039220
N12   N     N_R   0.054030 0.556820 0.847890 -0.040621
N13   N     N_R   0.151530 0.706170 0.208880 -0.042590
N14   N     N_R   0.848470 0.293830 0.791120 -0.041738
N15   N     N_R   0.004980 0.293810 0.946140 -0.041485
N16   N     N_R   0.995020 0.706190 0.053860 -0.040678
Ni1   Ni    Ni4+2 0.869690 0.369690 0.000000 0.210329
Ni2   Ni    Ni4+2 0.130310 0.630310 0.000000 0.217846
Ni3   Ni    Ni4+2 0.001390 0.369680 0.869810 0.214800
Ni4   Ni    Ni4+2 0.998610 0.630320 0.130190 0.212684
H51   H     H_    0.243469 0.108137 0.512481 0.104543
H52   H     H_    0.988984 0.026479 0.683068 0.105043
H53   H     H_    0.523712 0.015783 0.701335 0.124779
H54   H     H_    0.526499 0.819670 0.364275 0.127890
C87   C     C_3   0.434722 0.381451 0.699536 -0.470500
C88   C     C_3   0.506123 0.452316 0.670789 -0.228883
C89   C     C_3   0.479754 0.385764 0.553925 -0.912524
H55   H     H_    0.495482 0.315724 0.543388 0.260532
H56   H     H_    0.392459 0.353924 0.495819 0.260852
H57   H     H_    0.532564 0.438867 0.535138 0.249778
H58   H     H_    0.491664 0.522905 0.679836 0.194049
H59   H     H_    0.594263 0.484787 0.726869 0.202399
H60   H     H_    0.448540 0.310377 0.689688 0.193227
H61   H     H_    0.346633 0.349695 0.643981 0.188922
C90   C     C_3   0.537998 0.613519 0.141479 -0.457987
C91   C     C_3   0.649825 0.632984 0.217978 -0.254701
C92   C     C_3   0.682153 0.698180 0.337084 -0.911917
H62   H     H_    0.686596 0.778790 0.356402 0.265734
H63   H     H_    0.621194 0.652296 0.353963 0.262723
H64   H     H_    0.763948 0.712328 0.390420 0.252225
H65   H     H_    0.646408 0.553073 0.201567 0.190633
H66   H     H_    0.713875 0.678061 0.203698 0.201304
H67   H     H_    0.539420 0.693274 0.161700 0.178431
H68   H     H_    0.473848 0.562870 0.152249 0.199689
H69   H     H_    0.863983 0.324673 0.186017 0.117381
H70   H     H_    0.041483 0.676362 0.806661 0.118583

loop_
_geom_bond_atom_site_label_1
_geom_bond_atom_site_label_2
_ccdc_geom_bond_type
C91   H65   S    
C16   C28   A    
C84   C86   A    
C39   C51   A    
C90   C91   S    
C75   H21   S    
C77   N9    A    
C72   C74   S    
C41   C43   A    
N6    N10   A    
C3    C23   A    
C89   H55   S    
C17   H11   S    
N8    N12   A    
C67   N7    A    
C66   C85   S    
C87   C88   S    
C65   C86   S    
C47   C49   A    
C92   H62   S    
C24   N4    A    
N7    N11   A    
C84   H48   S    
C51   H27   S    
C10   C66   A    
N12   Ni2   S    
C50   H34   S    
C71   H37   S    
C89   H56   S    
N13   Ni4   S    
C69   C87   S    
C13   C35   A    
C15   H9    S    
C71   C76   S    
C21   H13   S    
C81   H45   S    
C38   H6    S    
C29   H17   S    
C6    C78   A    
C28   H8    S    
C2    C86   A    
C1    H1    S    
C69   C71   S    
C14   C36   A    
C21   C25   A    
C43   C58   S    
C17   C19   A    
C15   C27   A    
N16   Ni4   S    
C45   H39   S    
C49   C51   A    
C3    C81   A    
C9    H35   S    
C31   C33   A    
C2    H2    S    
C80   H70   S    
C60   H50   S    
C38   C64   A    
N5    N9    A    
N4    Ni1   S    
C87   H60   S    
N2    Ni2   S    
C92   H63   S    
C23   N3    A    
C76   H22   S    
C39   H51   S    
C45   N5    A    
C73   C75   S    
C54   H54   S    
C90   H67   S    
C42   C44   A    
C41   H29   S    
C72   C75   S    
C11   C59   A    
C37   C63   A    
C6    C74   S    
C83   N15   A    
C53   C55   A    
C1    C85   A    
C23   H23   S    
C54   C56   A    
C53   H53   S    
C22   H14   S    
C37   H5    S    
C9    C62   A    
C2    N2    A    
C89   H57   S    
C24   H24   S    
C39   C41   A    
C71   C73   S    
C62   C66   A    
N5    Ni3   S    
C48   H32   S    
N3    Ni2   S    
N2    N16   A    
C40   C52   A    
C5    C45   A    
C29   C34   A    
N3    N13   A    
C79   H69   S    
C32   C34   A    
C70   C90   S    
C67   H41   S    
C3    C56   S    
C11   H3    S    
C50   C52   A    
C40   H52   S    
C47   H31   S    
C44   C57   S    
C70   C73   S    
C16   H10   S    
N1    Ni1   S    
C69   C74   S    
C77   H43   S    
C48   C50   A    
C37   C59   A    
C74   C76   S    
C38   C60   A    
N9    Ni2   S    
C84   N16   A    
C13   H19   S    
C83   C85   A    
C12   C14   A    
C8    C68   A    
N15   Ni3   S    
N14   Ni3   S    
C55   C57   A    
C4    C55   S    
C70   C76   S    
C88   H59   S    
C90   H68   S    
C27   H7    S    
C10   C61   A    
C87   H61   S    
C20   C33   S    
C5    C77   A    
C36   C61   S    
N4    N14   A    
C1    N1    A    
C91   C92   S    
C7    C79   A    
C88   C89   S    
C92   H64   S    
C91   H66   S    
C15   C17   A    
C68   H42   S    
C7    C32   S    
C6    C46   A    
C30   C33   A    
C19   C21   A    
C70   C72   S    
C8    C31   S    
C46   H40   S    
C5    C73   S    
C20   C22   A    
C40   C42   A    
C82   N14   A    
C19   C34   S    
C12   H4    S    
C68   N8    A    
C79   N11   A    
C53   C58   A    
C52   H28   S    
C25   C27   A    
C26   C28   A    
N8    Ni3   S    
C78   H44   S    
C29   C31   A    
C26   H16   S    
C30   C32   A    
C11   C13   A    
C25   H15   S    
N7    Ni4   S    
C49   H33   S    
N10   Ni1   S    
C43   C47   A    
C4    C24   A    
C81   N13   A    
C42   H30   S    
C59   H49   S    
C46   N6    A    
C56   C58   A    
C69   C75   S    
C35   C62   S    
C18   C20   A    
C63   H25   S    
N11   Ni1   S    
C9    C65   A    
C83   H47   S    
C64   H26   S    
C78   N10   A    
C7    C67   A    
C88   H58   S    
C12   C60   A    
C61   C65   A    
C10   H36   S    
C80   N12   A    
C4    C82   A    
C16   C18   A    
C22   C26   A    
C14   H20   S    
C30   H18   S    
C8    C80   A    
N1    N15   A    
C35   C63   A    
C18   H12   S    
N6    Ni4   S    
C36   C64   A    
C82   H46   S    
C72   H38   S    
C44   C48   A    
C54   C57   A    
