data_mof_unit_58844.cif
_audit_creation_date              2012-12-11T14:08:29-0500
_audit_creation_method            fapswitch 2.2
_symmetry_space_group_name_H-M    P1
_symmetry_Int_Tables_number       1
_space_group_crystal_system       triclinic
_cell_length_a                    28.027021
_cell_length_b                    7.22476
_cell_length_c                    17.199843
_cell_angle_alpha                 90.218829
_cell_angle_beta                  101.337196
_cell_angle_gamma                 89.805426
_cell_volume                      3414.7746355

loop_
_atom_site_label
_atom_site_type_symbol
_atom_type_description
_atom_site_fract_x
_atom_site_fract_y
_atom_site_fract_z
_atom_type_partial_charge
O1    O     O_R   0.000700 0.436510 0.857920 -0.532320
O2    O     O_R   0.999300 0.563490 0.142080 -0.532320
O3    O     O_R   0.999300 0.936510 0.642080 -0.532918
O4    O     O_R   0.000700 0.063490 0.357920 -0.532918
O5    O     O_R   0.930080 0.766380 0.721890 -0.540134
O6    O     O_R   0.069920 0.233620 0.278110 -0.540134
O7    O     O_R   0.069920 0.266380 0.778110 -0.539982
O8    O     O_R   0.930080 0.733620 0.221890 -0.539982
C1    C     C_R   0.910727 0.597956 0.708977 0.700252
C2    C     C_R   0.089273 0.402044 0.291023 0.700252
C3    C     C_R   0.089365 0.097470 0.790341 0.699111
C4    C     C_R   0.910635 0.902530 0.209659 0.699111
O9    O     O_R   0.996180 0.766230 0.862310 -0.543110
O10   O     O_R   0.003820 0.233770 0.137690 -0.543110
O11   O     O_R   0.003820 0.266230 0.637690 -0.544095
O12   O     O_R   0.996180 0.733770 0.362310 -0.544095
O13   O     O_R   0.065870 0.936460 0.783500 -0.538453
O14   O     O_R   0.934130 0.063540 0.216500 -0.538453
O15   O     O_R   0.934130 0.436460 0.716500 -0.536398
O16   O     O_R   0.065870 0.563540 0.283500 -0.536398
C5    C     C_R   0.998477 0.596598 0.894461 0.757441
C6    C     C_R   0.001523 0.403402 0.105539 0.757441
C7    C     C_R   0.001520 0.096289 0.605630 0.755867
C8    C     C_R   0.998480 0.903711 0.394370 0.755868
O17   O     O_3   0.022790 0.603020 0.723980 -0.379564
O18   O     O_3   0.977210 0.396980 0.276020 -0.379564
O19   O     O_3   0.977210 0.103020 0.776020 -0.376511
O20   O     O_3   0.022790 0.896980 0.223980 -0.376511
V1    V     V_3+5 0.995770 0.877900 0.754830 1.407192
V2    V     V_3+5 0.004230 0.122100 0.245170 1.407192
V3    V     V_3+5 0.004230 0.377900 0.745170 1.404971
V4    V     V_3+5 0.995770 0.622100 0.254830 1.404971
C9    C     C_2   0.001703 0.082279 0.519654 -0.335066
C10   C     C_2   0.998297 0.917721 0.480346 -0.335067
C11   C     C_2   0.998306 0.582486 0.980542 -0.332124
C12   C     C_2   0.001694 0.417513 0.019458 -0.332124
H1    H     H_    0.004484 0.210482 0.488085 0.153567
H2    H     H_    0.995515 0.789518 0.511915 0.153567
H3    H     H_    0.995540 0.710779 0.012497 0.153685
H4    H     H_    0.004460 0.289221 0.987503 0.153685
C13   C     C_R   0.684863 0.005103 0.034488 0.577033
C14   C     C_R   0.315137 0.994896 0.965511 0.577033
C15   C     C_R   0.317003 0.424963 0.473540 0.588454
C16   C     C_R   0.682997 0.575033 0.526460 0.588455
O21   O     O_2   0.716111 0.057506 0.988257 -0.524567
O22   O     O_2   0.283889 0.942493 0.011742 -0.524567
O23   O     O_2   0.288069 0.379560 0.524613 -0.520038
O24   O     O_2   0.711931 0.620437 0.475387 -0.520039
N1    N     N_R   0.702523 0.943960 0.109963 -0.559217
N2    N     N_R   0.297477 0.056039 0.890036 -0.559217
N3    N     N_R   0.297270 0.447850 0.394606 -0.554707
N4    N     N_R   0.702730 0.552146 0.605393 -0.554706
C17   C     C_R   0.671621 0.884973 0.157288 0.549035
C18   C     C_R   0.328378 0.115025 0.842711 0.549036
C19   C     C_R   0.325985 0.498784 0.342246 0.520908
C20   C     C_R   0.674015 0.501211 0.657754 0.520905
C21   C     C_R   0.780019 0.082227 0.182049 0.161068
C22   C     C_R   0.219981 0.917772 0.817950 0.161068
C23   C     C_R   0.224261 0.286810 0.315892 0.174641
C24   C     C_R   0.775739 0.713188 0.684107 0.174640
C25   C     C_R   0.831280 0.069671 0.204857 -0.183010
C26   C     C_R   0.168720 0.930328 0.795142 -0.183010
C27   C     C_R   0.173229 0.278634 0.291436 -0.208047
C28   C     C_R   0.826770 0.721365 0.708564 -0.208047
C29   C     C_R   0.830481 0.766522 0.144209 -0.214066
C30   C     C_R   0.169518 0.233477 0.855790 -0.214065
C31   C     C_R   0.164053 0.551985 0.368709 -0.205511
C32   C     C_R   0.835947 0.448014 0.631291 -0.205511
C33   C     C_R   0.779975 0.777824 0.120377 -0.116008
C34   C     C_R   0.220025 0.222175 0.879622 -0.116008
C35   C     C_R   0.214433 0.559880 0.394450 -0.136332
C36   C     C_R   0.785567 0.440117 0.605550 -0.136335
C37   C     C_R   0.754497 0.934409 0.138413 0.341156
C38   C     C_R   0.245503 0.065590 0.861586 0.341156
C39   C     C_R   0.245177 0.430917 0.367664 0.352324
C40   C     C_R   0.754823 0.569080 0.632336 0.352327
C41   C     C_R   0.601954 0.961430 0.053586 -0.047636
C42   C     C_R   0.398046 0.038568 0.946413 -0.047636
C43   C     C_R   0.397644 0.487526 0.448042 -0.047748
C44   C     C_R   0.602356 0.512470 0.551958 -0.047748
C45   C     C_R   0.634327 0.011535 0.004511 -0.070590
C46   C     C_R   0.365673 0.988463 0.995488 -0.070590
C47   C     C_R   0.367268 0.449833 0.501914 -0.071468
C48   C     C_R   0.632732 0.550163 0.498086 -0.071468
C49   C     C_R   0.615846 0.051836 0.924915 -0.131932
C50   C     C_R   0.384154 0.948161 0.075084 -0.131933
C51   C     C_R   0.387000 0.453195 0.583189 -0.136331
C52   C     C_R   0.613000 0.546802 0.416811 -0.136330
C53   C     C_R   0.620822 0.893249 0.130077 -0.010946
C54   C     C_R   0.379178 0.106749 0.869922 -0.010946
C55   C     C_R   0.376662 0.516938 0.367773 -0.001915
C56   C     C_R   0.623338 0.483057 0.632227 -0.001916
C57   C     C_R   0.856750 0.912706 0.186080 -0.083220
C58   C     C_R   0.143250 0.087293 0.813920 -0.083220
C59   C     C_R   0.142882 0.411132 0.317103 -0.072066
C60   C     C_R   0.857118 0.588867 0.682897 -0.072066
H5    H     H_    0.849102 0.644338 0.128652 0.139629
H6    H     H_    0.150898 0.355662 0.871348 0.139629
H7    H     H_    0.141543 0.654747 0.390265 0.136450
H8    H     H_    0.858457 0.345251 0.609735 0.136451
H9    H     H_    0.760441 0.664553 0.087132 0.135974
H10   H     H_    0.239559 0.335446 0.912867 0.135974
H11   H     H_    0.229809 0.668100 0.435369 0.140779
H12   H     H_    0.770192 0.331897 0.564631 0.140779
H13   H     H_    0.640777 0.077759 0.885424 0.175501
H14   H     H_    0.359223 0.922239 0.114575 0.175501
H15   H     H_    0.363148 0.439959 0.625342 0.179557
H16   H     H_    0.636852 0.560039 0.374658 0.179557
C61   C     C_R   0.481310 0.064921 0.922191 0.048264
C62   C     C_R   0.518690 0.935077 0.077808 0.048263
C63   C     C_R   0.520652 0.476901 0.581477 0.048243
C64   C     C_R   0.479348 0.523095 0.418522 0.048243
C65   C     C_R   0.467747 0.971059 0.054127 -0.012005
C66   C     C_R   0.532253 0.028938 0.945871 -0.012005
C67   C     C_R   0.530949 0.511183 0.442971 -0.011068
C68   C     C_R   0.469051 0.488814 0.557028 -0.011067
C69   C     C_R   0.449233 0.022411 0.974133 0.049597
C70   C     C_R   0.550767 0.977586 0.025865 0.049598
C71   C     C_R   0.551063 0.502302 0.525367 0.048883
C72   C     C_R   0.448937 0.497694 0.474633 0.048883
C73   C     C_R   0.461504 0.158122 0.851042 -0.215764
C74   C     C_R   0.538496 0.841875 0.148957 -0.215762
C75   C     C_R   0.543101 0.423143 0.658882 -0.218176
C76   C     C_R   0.456899 0.576852 0.341118 -0.218177
C77   C     C_R   0.411394 0.172555 0.823965 -0.157103
C78   C     C_R   0.588606 0.827442 0.176033 -0.157102
C79   C     C_R   0.593432 0.429779 0.684359 -0.157380
C80   C     C_R   0.406567 0.570216 0.315640 -0.157380
O25   O     O_2   0.310062 0.180966 0.769620 -0.530554
O26   O     O_2   0.689937 0.819032 0.230379 -0.530555
O27   O     O_2   0.694339 0.470117 0.734446 -0.536216
O28   O     O_2   0.305661 0.529877 0.265554 -0.536219
C81   C     C_R   0.565952 0.034555 0.893059 0.119383
C82   C     C_R   0.434048 0.965443 0.106940 0.119384
C83   C     C_R   0.436057 0.499464 0.610808 0.116744
C84   C     C_R   0.563943 0.500533 0.389191 0.116743
H17   H     H_    0.148122 0.819275 0.762321 0.142095
H18   H     H_    0.851878 0.180725 0.237678 0.142095
H19   H     H_    0.842805 0.830541 0.748586 0.136426
H20   H     H_    0.157195 0.169460 0.251412 0.136426
H21   H     H_    0.397959 0.236160 0.766937 0.162054
H22   H     H_    0.602041 0.763837 0.233061 0.162055
H23   H     H_    0.608735 0.394547 0.745345 0.164015
H24   H     H_    0.391265 0.605449 0.254654 0.164015
H25   H     H_    0.484529 0.223547 0.815887 0.118008
H26   H     H_    0.515471 0.776450 0.184111 0.118007
H27   H     H_    0.522023 0.372940 0.700458 0.117262
H28   H     H_    0.477977 0.627056 0.299541 0.117262
C85   C     C_3   0.248542 0.749782 0.798619 -0.354323
C86   C     C_3   0.219639 0.607962 0.742128 -0.726105
H29   H     H_    0.190663 0.545134 0.768912 0.220470
H30   H     H_    0.203350 0.674107 0.684808 0.231201
H31   H     H_    0.244388 0.495490 0.730311 0.266711
H32   H     H_    0.278815 0.797820 0.770702 0.206595
H33   H     H_    0.264862 0.678885 0.854846 0.190911
C87   C     C_3   0.751458 0.250217 0.201380 -0.354322
C88   C     C_3   0.780361 0.392037 0.257871 -0.726104
H34   H     H_    0.796649 0.325893 0.315191 0.231201
H35   H     H_    0.809337 0.454865 0.231087 0.220470
H36   H     H_    0.755611 0.504509 0.269688 0.266711
H37   H     H_    0.735138 0.321114 0.145153 0.190911
H38   H     H_    0.721185 0.202179 0.229297 0.206595
C89   C     C_3   0.745195 0.861712 0.713019 -0.331784
C90   C     C_3   0.752001 0.047185 0.675152 -0.752330
H39   H     H_    0.790382 0.093521 0.692074 0.231332
H40   H     H_    0.741565 0.035752 0.609577 0.232678
H41   H     H_    0.728384 0.152115 0.695860 0.260149
H42   H     H_    0.705849 0.829721 0.699053 0.200515
H43   H     H_    0.755757 0.874049 0.778585 0.203966
C91   C     C_3   0.254804 0.138287 0.286979 -0.331781
C92   C     C_3   0.247996 0.952809 0.324841 -0.752332
H44   H     H_    0.258437 0.964227 0.390416 0.232675
H45   H     H_    0.209614 0.906486 0.307925 0.231330
H46   H     H_    0.271608 0.847874 0.304124 0.260155
H47   H     H_    0.244243 0.125959 0.221413 0.203966
H48   H     H_    0.294151 0.170273 0.300949 0.200513
C93   C     C_3   0.551937 0.994524 0.804428 -0.395693
C94   C     C_3   0.581319 0.835679 0.777787 -0.720736
H49   H     H_    0.620343 0.871653 0.784200 0.232355
H50   H     H_    0.577715 0.708822 0.812461 0.233048
H51   H     H_    0.567169 0.806733 0.714006 0.223420
H52   H     H_    0.513600 0.950013 0.786972 0.199656
H53   H     H_    0.557637 0.120409 0.771087 0.179777
C95   C     C_3   0.448063 0.005473 0.195571 -0.395693
C96   C     C_3   0.418682 0.164317 0.222212 -0.720735
H54   H     H_    0.422285 0.291175 0.187538 0.233048
H55   H     H_    0.379657 0.128344 0.215799 0.232355
H56   H     H_    0.432831 0.193262 0.285992 0.223420
H57   H     H_    0.442363 0.879587 0.228912 0.179776
H58   H     H_    0.486400 0.049984 0.213027 0.199656
C97   C     C_3   0.449272 0.587989 0.692850 -0.395417
C98   C     C_3   0.415091 0.746920 0.704728 -0.716651
H59   H     H_    0.413831 0.852495 0.657562 0.236866
H60   H     H_    0.377768 0.696479 0.704859 0.230833
H61   H     H_    0.428752 0.813095 0.763116 0.223034
H62   H     H_    0.448637 0.482163 0.738967 0.176379
H63   H     H_    0.485857 0.651286 0.702703 0.201868
C99   C     C_3   0.550728 0.412009 0.307150 -0.395417
C100  C     C_3   0.584910 0.253082 0.295270 -0.716656
H64   H     H_    0.622232 0.303528 0.295135 0.230833
H65   H     H_    0.586172 0.147508 0.342436 0.236868
H66   H     H_    0.571248 0.186904 0.236882 0.223035
H67   H     H_    0.514144 0.348709 0.297297 0.201869
H68   H     H_    0.551362 0.517836 0.261033 0.176379

loop_
_geom_bond_atom_site_label_1
_geom_bond_atom_site_label_2
_ccdc_geom_bond_type
O17   V3    S    
C47   C51   A    
C92   H44   S    
N1    C17   A    
O1    C5    A    
C88   H34   S    
O19   V1    S    
O13   V1    S    
C27   H20   S    
O3    C7    A    
C89   C90   S    
C14   C46   A    
C44   C48   A    
O15   V3    S    
C62   C70   A    
C94   H49   S    
C34   C38   A    
C61   C69   A    
C53   C78   A    
C68   C83   A    
C91   H48   S    
C42   C54   A    
O7    C3    A    
C76   H28   S    
C17   O26   S    
C41   C53   A    
C32   C60   A    
C63   C71   A    
C90   H39   S    
N3    C39   S    
C18   C54   A    
N2    C38   S    
C52   H16   S    
C25   C57   A    
C25   H18   S    
C96   H55   S    
C67   C84   A    
C93   H52   S    
C27   C59   A    
O1    V3    S    
C24   C89   S    
C15   C47   A    
C95   C96   S    
O2    V4    S    
C14   O22   S    
C21   C37   A    
O3    V1    S    
C97   H62   S    
C19   C55   A    
C73   C77   A    
C50   C82   A    
C11   C12   D    
C2    O16   A    
C7    C9    S    
C86   H31   S    
O2    C6    A    
C100  H66   S    
C33   C37   A    
C99   C100  S    
O14   V2    S    
C23   C91   S    
C43   C55   A    
C22   C85   S    
C31   H7    S    
C30   C58   A    
C45   C49   A    
C16   N4    A    
O11   C7    A    
C44   C71   A    
C87   H38   S    
C100  H64   S    
O12   C8    A    
C31   C59   A    
C50   H14   S    
O10   V2    S    
C49   H13   S    
C13   N1    A    
C92   H46   S    
C1    O15   A    
C24   C28   A    
O5    V1    S    
C91   H47   S    
C21   C87   S    
O7    V3    S    
C55   C80   A    
C63   C75   A    
C97   C98   S    
O8    V4    S    
C98   H61   S    
C51   C83   A    
C12   H4    S    
C42   C69   A    
C52   C84   A    
C41   C70   A    
C77   H21   S    
C64   C72   A    
O18   V4    S    
C96   H56   S    
C36   H12   S    
N3    C19   A    
C16   C48   A    
C93   H53   S    
O11   V3    S    
C78   H22   S    
C8    C10   S    
C68   C72   A    
C32   C36   A    
C98   H60   S    
C74   C78   A    
C11   H3    S    
C85   H32   S    
C32   H8    S    
O5    C1    A    
C86   H30   S    
C54   C77   A    
C92   H45   S    
C42   C46   A    
C75   C79   A    
C1    C60   S    
C41   C45   A    
O8    C4    A    
C13   C45   A    
C43   C72   A    
C9    C10   D    
O9    C5    A    
C36   C40   A    
C79   H23   S    
C21   C25   A    
C44   C56   A    
C80   H24   S    
C62   C65   A    
C83   C97   S    
C66   C70   A    
C22   C26   A    
C14   N2    A    
C65   C69   A    
C61   C66   A    
C3    C58   S    
O6    V2    S    
C75   H27   S    
C87   H37   S    
C93   C94   S    
C88   H36   S    
C67   C71   A    
C65   C82   A    
C26   C58   A    
C17   C53   A    
O10   C6    A    
C73   H25   S    
N1    C37   S    
C4    C57   S    
C56   C79   A    
C23   C39   A    
C22   C38   A    
O16   V4    S    
O9    V1    S    
C18   O25   S    
C35   H11   S    
C3    O13   A    
C95   H58   S    
C10   H2    S    
C84   C99   S    
C90   H41   S    
C97   H63   S    
C82   C95   S    
N4    C40   S    
C51   H15   S    
O6    C2    A    
C94   H50   S    
C34   H10   S    
C64   C76   A    
C5    C11   S    
C33   H9    S    
O12   V4    S    
C6    C12   S    
C23   C27   A    
C76   C80   A    
C99   H68   S    
C63   C68   A    
C98   H59   S    
C30   H6    S    
C90   H40   S    
C89   H42   S    
C85   H33   S    
C29   H5    S    
N2    C18   A    
C46   C50   A    
C85   C86   S    
C62   C74   A    
C35   C39   A    
C15   N3    A    
C96   H54   S    
C30   C34   A    
C48   C52   A    
C2    C59   S    
C81   C93   S    
O4    C8    A    
C29   C33   A    
O20   V2    S    
C29   C57   A    
C66   C81   A    
C24   C40   A    
C28   C60   A    
C31   C35   A    
C74   H26   S    
C26   H17   S    
C89   H43   S    
C9    H1    S    
C94   H51   S    
C43   C47   A    
N4    C20   A    
C20   C56   A    
C87   C88   S    
C88   H35   S    
C19   O28   S    
C91   C92   S    
C4    O14   A    
C99   H67   S    
C100  H65   S    
C13   O21   S    
C86   H29   S    
C61   C73   A    
C15   O23   S    
C95   H57   S    
C64   C67   A    
O4    V2    S    
C20   O27   S    
C16   O24   S    
C49   C81   A    
C28   H19   S    
