data_mof_unit_62807.cif
_audit_creation_date              2013-03-05T16:39:47-0500
_audit_creation_method            fapswitch 2.2
_symmetry_space_group_name_H-M    P1
_symmetry_Int_Tables_number       1
_space_group_crystal_system       triclinic
_cell_length_a                    14.760813
_cell_length_b                    16.007183
_cell_length_c                    17.114596
_cell_angle_alpha                 89.574121
_cell_angle_beta                  93.874256
_cell_angle_gamma                 89.979628
_cell_volume                      4034.46609505

loop_
_atom_site_label
_atom_site_type_symbol
_atom_site_description
_atom_site_fract_x
_atom_site_fract_y
_atom_site_fract_z
_atom_type_partial_charge
O1    O     O_R   0.575320 0.380310 0.499960 -0.534163
O2    O     O_R   0.424680 0.619690 0.500040 -0.540095
O3    O     O_R   0.424640 0.380310 0.500000 -0.586923
O4    O     O_R   0.575360 0.619690 0.500000 -0.585487
C1    C     C_R   0.500027 0.340888 0.499970 0.838785
C2    C     C_R   0.500002 0.659120 0.500063 0.838186
O5    O     O_R   0.583590 0.499240 0.613900 -0.590577
O6    O     O_R   0.416410 0.500760 0.386100 -0.591157
O7    O     O_R   0.432900 0.499240 0.613940 -0.541432
O8    O     O_R   0.567100 0.500760 0.386060 -0.541118
C3    C     C_R   0.511107 0.501426 0.651099 0.847658
C4    C     C_R   0.488891 0.498527 0.348910 0.846866
Cu1   Cu    Cu3+1 0.589220 0.500000 0.499980 1.047762
Cu2   Cu    Cu3+1 0.410780 0.500000 0.500020 1.043790
C5    C     C_R   0.517459 0.503788 0.736772 -0.144853
C6    C     C_R   0.482529 0.496046 0.263255 -0.144306
C7    C     C_R   0.451685 0.545736 0.778408 0.287987
C8    C     C_R   0.548076 0.453721 0.221675 0.287789
C9    C     C_R   0.455667 0.538940 0.860025 -0.197533
C10   C     C_R   0.544137 0.460420 0.140046 -0.198903
C11   C     C_R   0.525593 0.492905 0.900803 0.324840
C12   C     C_R   0.474452 0.506719 0.099232 0.325218
C13   C     C_R   0.592032 0.454724 0.859056 -0.164150
C14   C     C_R   0.408193 0.545232 0.140935 -0.164073
C15   C     C_R   0.588136 0.459937 0.777760 -0.258650
C16   C     C_R   0.412066 0.540130 0.222230 -0.259655
N1    N     N_2   0.532217 0.483998 0.983493 -0.230499
N2    N     N_2   0.467870 0.515585 0.016546 -0.230623
C17   C     C_R   0.563618 0.954620 0.461817 -0.277683
C18   C     C_R   0.442196 0.045340 0.546243 -0.276483
C19   C     C_R   0.501158 0.912593 0.505881 -0.041131
C20   C     C_R   0.504908 0.087364 0.502439 -0.042016
C21   C     C_R   0.439837 0.957861 0.549296 0.354392
C22   C     C_R   0.567135 0.042097 0.459940 0.355945
C23   C     C_1   0.500272 0.823056 0.503494 0.072139
C24   C     C_1   0.502213 0.176914 0.501050 0.074187
C25   C     C_1   0.500513 0.251888 0.500398 -0.090238
C26   C     C_1   0.500073 0.748105 0.501591 -0.092521
C27   C     C_R   0.946659 0.485732 0.430723 -0.110996
C28   C     C_R   0.053341 0.514253 0.569281 -0.112161
H1    H     H_    0.906691 0.474547 0.376390 0.165095
H2    H     H_    0.093309 0.525438 0.623614 0.165051
C29   C     C_R   0.902866 0.499983 0.500011 0.030895
C30   C     C_R   0.097133 0.500003 0.499992 0.030827
C31   C     C_R   0.957530 0.514239 0.569290 -0.143420
C32   C     C_R   0.042470 0.485745 0.430714 -0.143768
C33   C     C_1   0.802730 0.500000 0.500015 0.176049
C34   C     C_1   0.197270 0.499994 0.499986 0.172970
N3    N     N_1   0.276710 0.499980 0.499980 -0.140465
N4    N     N_1   0.723290 0.500020 0.500020 -0.139665
N5    N     N_R   0.616486 0.401387 0.260758 0.138853
O9    O     O_R   0.594930 0.349416 0.315310 -0.318004
O10   O     O_R   0.696687 0.396130 0.233913 -0.332541
N6    N     N_R   0.382979 0.597800 0.739398 0.139303
O11   O     O_R   0.404234 0.649927 0.684876 -0.306211
O12   O     O_R   0.302764 0.602657 0.766275 -0.333522
H3    H     H_    0.594578 0.427859 0.108670 0.196745
H4    H     H_    0.405046 0.571228 0.891419 0.196909
H5    H     H_    0.646412 0.419678 0.889754 0.167549
H6    H     H_    0.353990 0.580469 0.110201 0.167421
H7    H     H_    0.639167 0.427719 0.746690 0.181076
H8    H     H_    0.361200 0.572616 0.253270 0.180282
N7    N     N_R   0.633250 0.083035 0.414513 0.145002
O13   O     O_R   0.666341 0.155649 0.434752 -0.302370
O14   O     O_R   0.666980 0.044349 0.356456 -0.315468
N8    N     N_R   0.374902 0.916900 0.595897 0.138891
O15   O     O_R   0.392532 0.844367 0.628240 -0.286486
O16   O     O_R   0.301003 0.955535 0.612278 -0.319561
H9    H     H_    0.610439 0.918774 0.429176 0.199828
H10   H     H_    0.395310 0.081176 0.578827 0.199994
H11   H     H_    0.073911 0.474573 0.376371 0.145233
H12   H     H_    0.926088 0.525412 0.623633 0.145389

loop_
_geom_bond_atom_site_label_1
_geom_bond_atom_site_label_2
_geom_bond_distance
_ccdc_geom_bond_type
C8    N5    1.438284 S    
C34   N3    1.172605 T    
N8    O16   1.301674 A    
O7    Cu2   1.954913 S    
C2    C26   1.424844 S    
N6    O12   1.301396 A    
C9    C11   1.410644 A    
C1    C25   1.424615 S    
O7    C3    1.280424 A    
C28   C30   1.408413 A    
C8    C10   1.397646 A    
C18   C21   1.401418 A    
O6    C4    1.281943 A    
C14   H6    1.083221 S    
N7    O14   1.301698 A    
N8    O15   1.301127 A    
C11   N1    1.418085 S    
Cu1   N4    1.978938 S    
C17   C19   1.399349 A    
C12   N2    1.417961 S    
Cu1   Cu2   2.633966 S    
C31   H12   1.083110 S    
C18   C20   1.399341 A    
C29   C31   1.408485 A    
C32   H11   1.083110 S    
O2    C2    1.278649 A    
O3    Cu2   1.926726 S    
O8    C4    1.280387 A    
C13   C15   1.390544 A    
C27   C32   1.414257 A    
O1    C1    1.278241 A    
C20   C24   1.433959 S    
C19   C23   1.434150 S    
C28   H2    1.083156 S    
C22   N7    1.442804 S    
C18   H10   1.084264 S    
C14   C16   1.390431 A    
C21   N8    1.442461 S    
O5    C3    1.282025 A    
C33   N4    1.172603 T    
C17   H9    1.084261 S    
C11   C13   1.395182 A    
C9    H4    1.082706 S    
C16   H8    1.083555 S    
C28   C31   1.414259 A    
O2    Cu2   1.926926 S    
C12   C14   1.395160 A    
C5    C15   1.402287 A    
Cu2   N3    1.978936 S    
O1    Cu1   1.926927 S    
C19   C21   1.412405 A    
C10   C12   1.410632 A    
N7    O13   1.301207 A    
N5    O9    1.301451 A    
C4    C6    1.463450 S    
O5    Cu1   1.957015 S    
C23   C26   1.200431 T    
N5    O10   1.301396 A    
C27   H1    1.083154 S    
C6    C8    1.414671 A    
O4    C2    1.278806 A    
N1    N2    1.246720 D    
C5    C7    1.414697 A    
C7    N6    1.438215 S    
N6    O11   1.301358 A    
C24   C25   1.200319 T    
C15   H7    1.083548 S    
O6    Cu2   1.957015 S    
C13   H5    1.083216 S    
C7    C9    1.397531 A    
C10   H3    1.082708 S    
C27   C29   1.408412 A    
C3    C5    1.463685 S    
C17   C22   1.401452 A    
O8    Cu1   1.954915 S    
C30   C34   1.478103 S    
O4    Cu1   1.926724 S    
C30   C32   1.408484 A    
C29   C33   1.478098 S    
O3    C1    1.279090 A    
C6    C16   1.402192 A    
C20   C22   1.412587 A    
