data_mof_unit_48865.cif
_audit_creation_date              2012-12-11T16:51:02-0500
_audit_creation_method            fapswitch 2.2
_symmetry_space_group_name_H-M    P1
_symmetry_Int_Tables_number       1
_space_group_crystal_system       triclinic
_cell_length_a                    24.473285
_cell_length_b                    17.340039
_cell_length_c                    15.597461
_cell_angle_alpha                 89.999585
_cell_angle_beta                  128.795444
_cell_angle_gamma                 89.999858
_cell_volume                      5158.81368034

loop_
_atom_site_label
_atom_site_type_symbol
_atom_type_description
_atom_site_fract_x
_atom_site_fract_y
_atom_site_fract_z
_atom_type_partial_charge
C1    C     C_R   0.831400 0.899164 0.197463 0.691606
C2    C     C_R   0.168566 0.899176 0.802620 0.691998
C3    C     C_R   0.331430 0.399183 0.197384 0.692026
C4    C     C_R   0.668594 0.399136 0.802526 0.691111
C5    C     C_R   0.885098 0.104907 0.591415 -0.218068
C6    C     C_R   0.115009 0.104786 0.408690 -0.222146
C7    C     C_R   0.385006 0.604822 0.591317 -0.221672
C8    C     C_R   0.614917 0.604897 0.408603 -0.218436
C9    C     C_R   0.816727 0.120084 0.499709 -0.136544
C10   C     C_R   0.183524 0.119742 0.500399 -0.137262
C11   C     C_R   0.316515 0.619832 0.499601 -0.136982
C12   C     C_R   0.683301 0.620054 0.500315 -0.136647
C13   C     C_R   0.888977 0.186010 0.220992 -0.116362
C14   C     C_R   0.111104 0.186021 0.778974 -0.116615
C15   C     C_R   0.388903 0.686018 0.221013 -0.116724
C16   C     C_R   0.611033 0.686009 0.779011 -0.116274
C17   C     C_R   0.848341 0.721131 0.606998 -0.242664
C18   C     C_R   0.150327 0.718631 0.393158 -0.249256
C19   C     C_R   0.349910 0.218117 0.606776 -0.250741
C20   C     C_R   0.651834 0.221451 0.392983 -0.242556
C21   C     C_R   0.836076 0.739671 0.508541 0.169284
C22   C     C_R   0.163619 0.738972 0.491902 0.168454
C23   C     C_R   0.336384 0.238868 0.507978 0.168295
C24   C     C_R   0.663935 0.239741 0.491377 0.169366
C25   C     C_R   0.784907 0.697527 0.413194 -0.140706
C26   C     C_R   0.215705 0.697933 0.587888 -0.140049
C27   C     C_R   0.284128 0.198052 0.411861 -0.139794
C28   C     C_R   0.714985 0.197453 0.586643 -0.140771
C29   C     C_R   0.236893 0.151292 0.410596 -0.137036
C30   C     C_R   0.762287 0.150744 0.588060 -0.138212
C31   C     C_R   0.737625 0.650803 0.411812 -0.138008
C32   C     C_R   0.262970 0.651217 0.589175 -0.137477
C33   C     C_R   0.241914 0.145857 0.505308 0.136071
C34   C     C_R   0.758525 0.147041 0.494419 0.136010
C35   C     C_R   0.741525 0.646926 0.505574 0.136028
C36   C     C_R   0.258144 0.646071 0.494623 0.136113
C37   C     C_R   0.302198 0.174328 0.604649 -0.231371
C38   C     C_R   0.699747 0.177821 0.395536 -0.232967
C39   C     C_R   0.800463 0.677473 0.604511 -0.232946
C40   C     C_R   0.198076 0.674886 0.395339 -0.231580
C41   C     C_3   0.806498 0.725825 0.690246 1.266606
C42   C     C_3   0.189374 0.721134 0.305796 1.268979
C43   C     C_3   0.311413 0.220126 0.694929 1.269784
C44   C     C_3   0.694089 0.226456 0.310349 1.266701
C45   C     C_R   0.084117 0.854022 0.409331 0.726710
C46   C     C_R   0.915932 0.853972 0.590590 0.731338
C47   C     C_R   0.584053 0.353978 0.409397 0.731675
C48   C     C_R   0.415825 0.354066 0.590683 0.725604
C49   C     C_3   0.861064 0.772341 0.697022 0.304776
C50   C     C_3   0.135034 0.767647 0.299566 0.305319
C51   C     C_3   0.365706 0.266654 0.701080 0.305249
C52   C     C_3   0.639478 0.272959 0.303469 0.304535
C53   C     C_2   0.201619 0.862190 0.985526 0.639986
C54   C     C_2   0.798257 0.862189 0.014484 0.641782
C55   C     C_2   0.701730 0.362139 0.985491 0.642398
C56   C     C_2   0.298372 0.362217 0.014464 0.639623
C57   C     C_2   0.260187 0.824465 0.020454 0.591586
C58   C     C_2   0.739654 0.824545 0.979546 0.589062
C59   C     C_2   0.760334 0.324500 0.020430 0.588813
C60   C     C_2   0.239798 0.324498 0.979521 0.591793
C61   C     C_2   0.865213 0.256366 0.156503 -0.088602
C62   C     C_2   0.134896 0.256406 0.843412 -0.087246
C63   C     C_2   0.365106 0.756396 0.156557 -0.087289
C64   C     C_2   0.634796 0.756368 0.843492 -0.088564
C65   C     C_2   0.809841 0.294928 0.131979 -0.204984
C66   C     C_2   0.190312 0.294899 0.867980 -0.206526
C67   C     C_2   0.309697 0.794894 0.132006 -0.206128
C68   C     C_2   0.690167 0.794934 0.868014 -0.205264
C69   C     C_R   0.160744 0.854974 0.591101 -0.312477
C70   C     C_R   0.838987 0.855165 0.408804 -0.310461
C71   C     C_R   0.660983 0.355141 0.591183 -0.310802
C72   C     C_R   0.339213 0.355008 0.408899 -0.311711
C73   C     C_R   0.080924 0.901740 0.808599 0.862450
C74   C     C_R   0.918990 0.901711 0.191344 0.868031
C75   C     C_R   0.581005 0.401678 0.808645 0.869295
C76   C     C_R   0.419071 0.401751 0.191396 0.861943
C77   C     C_R   0.848736 0.883138 0.130973 -0.484205
C78   C     C_R   0.151170 0.883151 0.869036 -0.482116
C79   C     C_R   0.348821 0.383169 0.130959 -0.481751
C80   C     C_R   0.651253 0.383087 0.869004 -0.484125
C81   C     C_R   0.135572 0.811018 0.498530 -0.134429
C82   C     C_R   0.864305 0.811204 0.501393 -0.137067
C83   C     C_R   0.635664 0.311200 0.498582 -0.137183
C84   C     C_R   0.364366 0.311040 0.501470 -0.134620
C85   C     C_R   0.811050 0.098335 0.409577 0.698835
C86   C     C_R   0.189090 0.097984 0.590461 0.703273
C87   C     C_R   0.310934 0.598063 0.409535 0.702536
C88   C     C_R   0.688964 0.598302 0.590435 0.699310
C89   C     C_R   0.945138 0.142074 0.248778 -0.180188
C90   C     C_R   0.054920 0.142108 0.751236 -0.178622
C91   C     C_R   0.445085 0.642103 0.248761 -0.178630
C92   C     C_R   0.554869 0.642075 0.751228 -0.180159
C93   C     C_R   0.146264 0.143161 0.751998 0.787570
C94   C     C_R   0.853772 0.143186 0.247915 0.789142
C95   C     C_R   0.646233 0.643183 0.752080 0.789015
C96   C     C_R   0.353738 0.643163 0.247983 0.787780
H1    H     H_    0.192929 0.126483 0.333333 0.142305
H2    H     H_    0.805315 0.124379 0.664769 0.143252
H3    H     H_    0.694501 0.624591 0.335047 0.143196
H4    H     H_    0.306798 0.626172 0.666361 0.142436
H5    H     H_    0.843700 0.832852 0.669502 0.091836
H6    H     H_    0.151502 0.828772 0.323605 0.098267
H7    H     H_    0.349434 0.327898 0.677793 0.099724
H8    H     H_    0.656937 0.333387 0.331431 0.091165
H9    H     H_    0.793764 0.290571 0.182724 0.242158
H10   H     H_    0.206431 0.290469 0.817301 0.241571
H11   H     H_    0.293600 0.790486 0.182719 0.241612
H12   H     H_    0.706257 0.790562 0.817288 0.242146
H13   H     H_    0.883875 0.266118 0.109846 0.201612
H14   H     H_    0.116211 0.266238 0.890022 0.201605
H15   H     H_    0.383772 0.766209 0.109917 0.201629
H16   H     H_    0.616124 0.766133 0.890133 0.201605
H17   H     H_    0.200709 0.838584 0.675856 0.209022
H18   H     H_    0.798710 0.838961 0.324062 0.210276
H19   H     H_    0.701260 0.338917 0.675917 0.210324
H20   H     H_    0.299257 0.338638 0.324135 0.208957
H21   H     H_    0.982474 0.157033 0.236173 0.158278
H22   H     H_    0.017613 0.157121 0.763879 0.158261
H23   H     H_    0.482395 0.657108 0.236119 0.158260
H24   H     H_    0.517537 0.657039 0.763840 0.158288
H25   H     H_    0.905072 0.103584 0.675878 0.157087
H26   H     H_    0.095013 0.103305 0.324226 0.157445
H27   H     H_    0.404993 0.603365 0.675777 0.157336
H28   H     H_    0.594943 0.603560 0.324141 0.157170
H29   H     H_    0.776290 0.707190 0.336979 0.152204
H30   H     H_    0.225114 0.708580 0.664532 0.151954
H31   H     H_    0.274550 0.208929 0.335134 0.151854
H32   H     H_    0.723482 0.206974 0.662789 0.152195
N1    N     N_R   0.888400 0.921830 0.294620 -0.162180
N2    N     N_R   0.111600 0.921830 0.705380 -0.162073
N3    N     N_R   0.388400 0.421830 0.294620 -0.162111
N4    N     N_R   0.611600 0.421830 0.705380 -0.162234
N5    N     N_R   0.079940 0.922160 0.443410 -0.112217
N6    N     N_R   0.920060 0.922160 0.556590 -0.113252
N7    N     N_R   0.579940 0.422160 0.443410 -0.113245
N8    N     N_R   0.420060 0.422160 0.556590 -0.111984
N9    N     N_R   0.125650 0.922400 0.556620 -0.094724
N10   N     N_R   0.874350 0.922400 0.443380 -0.094280
N11   N     N_R   0.625650 0.422400 0.556620 -0.094340
N12   N     N_R   0.374350 0.422400 0.443380 -0.094596
N13   N     N_R   0.054230 0.922730 0.705400 -0.159720
N14   N     N_R   0.945770 0.922730 0.294600 -0.160450
N15   N     N_R   0.554230 0.422730 0.705400 -0.160711
N16   N     N_R   0.445770 0.422730 0.294600 -0.159698
N17   N     N_R   0.873790 0.077030 0.443380 -0.123795
N18   N     N_R   0.126210 0.077030 0.556620 -0.124602
N19   N     N_R   0.373790 0.577030 0.443380 -0.124520
N20   N     N_R   0.626210 0.577030 0.556620 -0.123877
N21   N     N_R   0.945200 0.076700 0.294600 -0.088195
N22   N     N_R   0.054800 0.076700 0.705400 -0.088012
N23   N     N_R   0.445200 0.576700 0.294600 -0.087972
N24   N     N_R   0.554800 0.576700 0.705400 -0.088221
N25   N     N_R   0.111030 0.077600 0.705380 -0.128445
N26   N     N_R   0.888970 0.077600 0.294620 -0.128602
N27   N     N_R   0.611030 0.577600 0.705380 -0.128578
N28   N     N_R   0.388970 0.577600 0.294620 -0.128465
N29   N     N_R   0.919490 0.077280 0.556590 -0.079386
N30   N     N_R   0.080510 0.077280 0.443410 -0.079246
N31   N     N_R   0.419490 0.577280 0.556590 -0.079238
N32   N     N_R   0.580510 0.577280 0.443410 -0.079366
Ni1   Ni    Ni4+2 0.882160 0.999430 0.370180 0.268856
Ni2   Ni    Ni4+2 0.117840 0.999430 0.629820 0.269044
Ni3   Ni    Ni4+2 0.382160 0.499430 0.370180 0.268997
Ni4   Ni    Ni4+2 0.617840 0.499430 0.629820 0.268826
Ni5   Ni    Ni4+2 0.012460 0.999430 0.370180 0.259417
Ni6   Ni    Ni4+2 0.987540 0.999430 0.629820 0.260060
Ni7   Ni    Ni4+2 0.512460 0.499430 0.370180 0.260151
Ni8   Ni    Ni4+2 0.487540 0.499430 0.629820 0.259317
F1    F     F_    0.766370 0.919657 0.160335 -0.662387
F2    F     F_    0.233632 0.919669 0.839964 -0.662555
F3    F     F_    0.266369 0.419679 0.160070 -0.662570
F4    F     F_    0.733630 0.419618 0.839676 -0.662333
F5    F     F_    0.746314 0.767590 0.648893 -0.705221
F6    F     F_    0.248347 0.763696 0.342571 -0.702043
F7    F     F_    0.252687 0.262825 0.659076 -0.701457
F8    F     F_    0.754428 0.268113 0.352334 -0.705760
F9    F     F_    0.832987 0.687963 0.787312 -0.640621
F10   F     F_    0.161690 0.681130 0.209685 -0.646010
F11   F     F_    0.339328 0.179685 0.790820 -0.646741
F12   F     F_    0.667775 0.188890 0.213167 -0.639305
O1    O     O_3   0.928603 0.769920 0.803736 -0.508827
C97   C     C_3   0.969022 0.702885 0.826086 0.275748
H33   H     H_    0.972420 0.689817 0.759815 0.133720
H34   H     H_    0.947161 0.652317 0.838977 0.100657
C98   C     C_3   0.043941 0.715852 0.930237 -0.565028
H35   H     H_    0.044753 0.733092 0.999407 0.284171
H36   H     H_    0.074812 0.661996 0.952890 0.194103
H37   H     H_    0.068960 0.762102 0.916321 0.276452
O2    O     O_3   0.066811 0.762459 0.194237 -0.517016
C99   C     C_3   0.027350 0.696279 0.178939 0.280175
H38   H     H_    0.023785 0.689124 0.246108 0.138026
H39   H     H_    0.050363 0.643571 0.172690 0.099889
C100  C     C_3   0.952468 0.705039 0.073002 -0.588026
H40   H     H_    0.951683 0.711066 0.001582 0.268926
H41   H     H_    0.921279 0.653421 0.060267 0.190988
H42   H     H_    0.927844 0.756819 0.077895 0.285313
O3    O     O_3   0.434041 0.260871 0.806115 -0.518564
C101  C     C_3   0.473330 0.194998 0.819825 0.282773
H43   H     H_    0.477230 0.189477 0.752827 0.139134
H44   H     H_    0.449875 0.141787 0.823921 0.098705
C102  C     C_3   0.548040 0.202548 0.926525 -0.593486
H45   H     H_    0.548432 0.205587 0.997797 0.265261
H46   H     H_    0.579382 0.151757 0.937049 0.190882
H47   H     H_    0.572742 0.255506 0.924544 0.287740
O4    O     O_3   0.572069 0.270868 0.196556 -0.507558
C103  C     C_3   0.531486 0.203836 0.173452 0.277190
H48   H     H_    0.527764 0.190487 0.239315 0.133453
H49   H     H_    0.553431 0.153353 0.160575 0.099730
C104  C     C_3   0.456740 0.217074 0.068998 -0.562778
H50   H     H_    0.456342 0.235119 0.000481 0.285833
H51   H     H_    0.425864 0.163110 0.045318 0.194841
H52   H     H_    0.431460 0.262867 0.083073 0.276107
F13   F     F_    0.269006 0.799765 0.946684 -0.681248
F14   F     F_    0.730789 0.799934 0.053294 -0.681120
F15   F     F_    0.769188 0.299867 0.946676 -0.681132
F16   F     F_    0.230957 0.299819 0.053274 -0.681223
F17   F     F_    0.186914 0.877245 0.054802 -0.640161
F18   F     F_    0.812986 0.877148 0.945216 -0.637989
F19   F     F_    0.687010 0.377115 0.054766 -0.637664
F20   F     F_    0.313090 0.377259 0.945202 -0.640652
F21   F     F_    0.037116 0.826951 0.306982 -0.706372
F22   F     F_    0.962855 0.826575 0.692857 -0.706429
F23   F     F_    0.537194 0.326633 0.307079 -0.706647
F24   F     F_    0.462798 0.327103 0.693081 -0.706527
F25   F     F_    0.049195 0.917221 0.853333 -0.588401
F26   F     F_    0.950670 0.917045 0.146492 -0.586251
F27   F     F_    0.549343 0.417011 0.853526 -0.585906
F28   F     F_    0.450785 0.417276 0.146648 -0.588761
O5    O     O_3   0.749686 0.075721 0.309065 -0.547337
C105  C     C_3   0.725249 0.004516 0.317802 0.283835
H53   H     H_    0.747792 0.987842 0.403367 0.041703
H54   H     H_    0.738104 0.959075 0.283454 0.183766
C106  C     C_3   0.645764 0.006422 0.247862 -0.788155
H55   H     H_    0.626020 0.947783 0.243831 0.208342
H56   H     H_    0.629907 0.045944 0.284640 0.226527
H57   H     H_    0.621705 0.025844 0.163049 0.283480
O6    O     O_3   0.250298 0.074136 0.690276 -0.547244
C107  C     C_3   0.272932 0.002002 0.680240 0.285861
H58   H     H_    0.248045 0.984322 0.594030 0.040828
H59   H     H_    0.261271 0.957803 0.717589 0.187424
C108  C     C_3   0.352088 0.002253 0.745812 -0.790976
H60   H     H_    0.370512 0.942758 0.750239 0.207536
H61   H     H_    0.366649 0.039400 0.705148 0.226712
H62   H     H_    0.378507 0.023367 0.830747 0.288542
O7    O     O_3   0.249699 0.574414 0.309609 -0.547195
C109  C     C_3   0.226787 0.502415 0.319435 0.285834
H63   H     H_    0.251318 0.484870 0.405554 0.040879
H64   H     H_    0.238636 0.458029 0.282536 0.186842
C110  C     C_3   0.147569 0.502934 0.253182 -0.791083
H65   H     H_    0.128942 0.443567 0.248821 0.207589
H66   H     H_    0.132794 0.540455 0.293240 0.226694
H67   H     H_    0.121516 0.523801 0.168253 0.287745
O8    O     O_3   0.750309 0.575579 0.690893 -0.547263
C111  C     C_3   0.774606 0.504301 0.682051 0.284024
H68   H     H_    0.751907 0.487568 0.596434 0.041616
H69   H     H_    0.761809 0.458951 0.716580 0.184004
C112  C     C_3   0.854078 0.506056 0.751728 -0.787871
H70   H     H_    0.873707 0.447349 0.755754 0.208225
H71   H     H_    0.869886 0.545420 0.714734 0.226489
H72   H     H_    0.878291 0.525571 0.836563 0.283865
F29   F     F_    0.209012 0.159697 0.777818 -0.636388
F30   F     F_    0.790920 0.159730 0.221640 -0.634895
F31   F     F_    0.709073 0.659730 0.778308 -0.635030
F32   F     F_    0.290970 0.659696 0.222080 -0.636181

loop_
_geom_bond_atom_site_label_1
_geom_bond_atom_site_label_2
_ccdc_geom_bond_type
C25   C31   A    
C91   N23   A    
C26   C32   A    
C99   H38   S    
C55   C59   D    
C76   F28   S    
C1    C77   A    
C102  H45   S    
N26   Ni1   S    
C19   C23   A    
C76   C79   A    
N8    N12   A    
C61   H13   S    
C44   F12   S    
C39   C41   S    
C73   N13   A    
O4    C103  S    
C70   H18   S    
N12   Ni3   S    
N5    N9    A    
N18   Ni2   S    
C107  C108  S    
C43   F11   S    
C110  H65   S    
O5    C105  S    
C56   C79   S    
C87   N19   A    
C3    N3    A    
C64   C68   D    
C41   F9    S    
N11   Ni4   S    
C56   C60   D    
C24   C83   S    
C85   N17   A    
C108  H60   S    
N25   Ni2   S    
C1    N1    A    
C26   H30   S    
N9    Ni2   S    
C59   F15   S    
C98   H36   S    
C27   C29   A    
C51   H7    S    
C14   C62   S    
C107  H59   S    
C5    H25   S    
C86   O6    S    
N17   N29   A    
N31   Ni8   S    
C105  C106  S    
C112  H70   S    
N20   N32   A    
N32   Ni7   S    
C41   C49   S    
N2    N13   A    
C50   O2    S    
C25   H29   S    
C97   H33   S    
C14   C90   A    
C111  H69   S    
C19   C37   A    
C99   C100  S    
C9    C85   A    
C46   C82   A    
C43   F7    S    
C10   C86   A    
C20   C24   A    
N28   Ni3   S    
C11   C87   A    
C100  H41   S    
N22   N25   A    
C92   N24   A    
C99   H39   S    
C73   C78   A    
N6    Ni6   S    
C87   O7    S    
C101  H43   S    
C31   H3    S    
C10   C33   S    
C51   O3    S    
C75   C80   A    
O8    C111  S    
C14   C93   A    
C93   F29   S    
C90   N22   A    
C54   C77   S    
C13   C89   A    
N2    Ni2   S    
N4    N15   A    
C95   F31   S    
C74   N14   A    
C3    C79   A    
C2    F2    S    
C29   C33   A    
C34   C38   A    
O7    C109  S    
C53   F17   S    
C102  H46   S    
C105  H53   S    
C27   H31   S    
C57   C67   S    
C68   H12   S    
C86   N18   A    
C65   H9    S    
C6    N30   A    
C104  H52   S    
C54   F18   S    
N29   Ni6   S    
C71   C83   A    
C23   C27   A    
C67   H11   S    
C69   N9    A    
C7    N31   A    
C109  H64   S    
C110  H66   S    
C23   C84   S    
C30   C34   A    
N16   Ni7   S    
C71   H19   S    
C52   O4    S    
N20   Ni4   S    
C22   C81   S    
C44   F8    S    
C36   C40   A    
N21   Ni5   S    
C4    N4    A    
C21   C25   A    
C42   F6    S    
C47   F23   S    
C15   C96   A    
C63   H15   S    
C62   C66   D    
C103  H48   S    
C8    H28   S    
C98   H37   S    
C71   N11   A    
N1    N14   A    
C48   F24   S    
C111  C112  S    
O1    C97   S    
C15   C91   A    
C74   C77   A    
C85   O5    S    
C33   C37   A    
C48   C84   A    
C108  H61   S    
C97   C98   S    
C11   C36   S    
C37   C43   S    
C107  H58   S    
C35   C39   A    
N21   N26   A    
N4    Ni4   S    
C63   C67   D    
C38   C44   S    
C111  H68   S    
C2    C78   A    
N5    Ni5   S    
C46   N6    A    
C50   H6    S    
C20   C38   A    
C7    C11   A    
O3    C101  S    
C62   H14   S    
N24   N27   A    
N3    Ni3   S    
C8    C12   A    
C100  H42   S    
C69   H17   S    
C17   C21   A    
C101  C102  S    
C104  H50   S    
N13   Ni6   S    
N1    Ni1   S    
N23   N28   A    
C12   C35   S    
C105  H54   S    
C106  H56   S    
C6    H26   S    
C72   C84   A    
C75   N15   A    
C42   C50   S    
C69   C81   A    
C49   O1    S    
C58   F14   S    
C58   C68   S    
C17   C39   A    
C94   F30   S    
C57   F13   S    
C70   N10   A    
C47   C83   A    
C3    F3    S    
C22   C26   A    
C9    C34   S    
C102  H47   S    
C31   C35   A    
N24   Ni8   S    
C17   C49   S    
C8    N32   A    
C90   H22   S    
C56   F20   S    
C18   C50   S    
N19   N31   A    
C54   C58   D    
C18   C40   A    
C41   F5    S    
C109  H63   S    
C52   H8    S    
C110  H67   S    
C53   C57   D    
C4    F4    S    
C47   N7    A    
C72   H20   S    
C18   C22   A    
C45   N5    A    
C48   N8    A    
C4    C80   A    
C45   C81   A    
C24   C28   A    
C89   H21   S    
C40   C42   S    
C76   N16   A    
C44   C52   S    
N6    N10   A    
C55   F19   S    
C32   C36   A    
C16   C92   A    
C88   O8    S    
N18   N30   A    
C29   H1    S    
N27   Ni4   S    
N8    Ni8   S    
C30   H2    S    
C5    N29   A    
C46   F22   S    
C15   C63   S    
C13   C94   A    
C20   C52   S    
C112  H72   S    
C45   F21   S    
C108  H62   S    
C93   N25   A    
C53   C78   S    
C92   H24   S    
C28   C30   A    
C74   F26   S    
N19   Ni3   S    
C59   C65   S    
N14   Ni5   S    
C73   F25   S    
C55   C80   S    
C88   N20   A    
C103  C104  S    
C43   C51   S    
C98   H35   S    
C66   H10   S    
C94   N26   A    
N17   Ni1   S    
C42   F10   S    
C19   C51   S    
N23   Ni7   S    
O6    C107  S    
C89   N21   A    
C104  H51   S    
C2    N2    A    
N7    N11   A    
N10   Ni1   S    
C91   H23   S    
C95   N27   A    
C61   C65   D    
C60   F16   S    
O2    C99   S    
C70   C82   A    
C106  H57   S    
C97   H34   S    
N15   Ni8   S    
C64   H16   S    
C6    C10   A    
C60   C66   S    
C32   H4    S    
C72   N12   A    
C13   C61   S    
C21   C82   S    
N30   Ni5   S    
C96   F32   S    
C100  H40   S    
C96   N28   A    
C1    F1    S    
N7    Ni7   S    
C101  H44   S    
C5    C9    A    
C16   C64   S    
C16   C95   A    
C106  H55   S    
C103  H49   S    
C75   F27   S    
C112  H71   S    
C12   C88   A    
N3    N16   A    
C28   H32   S    
C49   H5    S    
C7    H27   S    
C109  C110  S    
N22   Ni6   S    
