data_mof_unit_7964.cif
_audit_creation_date              2012-12-11T14:43:32-0500
_audit_creation_method            fapswitch 2.2
_symmetry_space_group_name_H-M    P1
_symmetry_Int_Tables_number       1
_space_group_crystal_system       triclinic
_cell_length_a                    20.827254
_cell_length_b                    7.103536
_cell_length_c                    16.406297
_cell_angle_alpha                 90.000119
_cell_angle_beta                  92.508713
_cell_angle_gamma                 89.99999
_cell_volume                      2424.9385128

loop_
_atom_site_label
_atom_site_type_symbol
_atom_type_description
_atom_site_fract_x
_atom_site_fract_y
_atom_site_fract_z
_atom_type_partial_charge
O1    O     O_R   0.564840 0.505290 0.579830 -0.538248
O2    O     O_R   0.435160 0.005290 0.420170 -0.538247
O3    O     O_R   0.556720 0.179930 0.409350 -0.537181
O4    O     O_R   0.443280 0.679930 0.590650 -0.537181
C1    C     C_R   0.570305 0.344809 0.380993 0.701043
C2    C     C_R   0.429695 0.844809 0.619007 0.701044
O5    O     O_R   0.572280 0.175810 0.578530 -0.542146
O6    O     O_R   0.427720 0.675810 0.421470 -0.542146
O7    O     O_R   0.450830 0.001920 0.590540 -0.536370
O8    O     O_R   0.549170 0.501920 0.409460 -0.536370
C3    C     C_R   0.590093 0.342723 0.604992 0.693654
C4    C     C_R   0.409907 0.842723 0.395008 0.693653
O9    O     O_3   0.460130 0.338030 0.503750 -0.371869
O10   O     O_3   0.539870 0.838030 0.496250 -0.371869
V1    V     V_3+5 0.507400 0.064560 0.499310 1.419189
V2    V     V_3+5 0.492600 0.564560 0.500690 1.419188
C5    C     C_R   0.144618 0.926948 0.166861 -0.064512
C6    C     C_R   0.855383 0.426947 0.833138 -0.064512
C7    C     C_R   0.355446 0.838960 0.332913 -0.065893
C8    C     C_R   0.644553 0.338961 0.667088 -0.065892
C9    C     C_R   0.290812 0.655753 0.232984 -0.196611
C10   C     C_R   0.709186 0.155757 0.767018 -0.196610
C11   C     C_R   0.345104 0.675057 0.285416 -0.158675
C12   C     C_R   0.654894 0.175061 0.714586 -0.158674
C13   C     C_R   0.310482 0.986040 0.325165 -0.234363
C14   C     C_R   0.689518 0.486038 0.674833 -0.234362
C15   C     C_R   0.255191 0.966576 0.272812 0.154717
C16   C     C_R   0.744810 0.466574 0.727187 0.154716
C17   C     C_R   0.245051 0.799676 0.226604 0.161184
C18   C     C_R   0.754948 0.299677 0.773397 0.161183
C19   C     C_R   0.189714 0.780146 0.174326 -0.238591
C20   C     C_R   0.810285 0.280148 0.825675 -0.238592
C21   C     C_R   0.155007 0.090899 0.214306 -0.136904
C22   C     C_R   0.844994 0.590895 0.785692 -0.136903
C23   C     C_R   0.209412 0.110443 0.266500 -0.177616
C24   C     C_R   0.790590 0.610440 0.733497 -0.177613
H1    H     H_    0.182891 0.654034 0.137750 0.123007
H2    H     H_    0.817107 0.154038 0.862253 0.123006
H3    H     H_    0.121120 0.206584 0.210363 0.134033
H4    H     H_    0.878882 0.706579 0.789634 0.134033
H5    H     H_    0.284337 0.527091 0.198076 0.118682
H6    H     H_    0.715660 0.027097 0.801928 0.118682
H7    H     H_    0.215901 0.239122 0.301393 0.131267
H8    H     H_    0.784101 0.739116 0.698603 0.131268
H9    H     H_    0.378924 0.559221 0.289523 0.126240
H10   H     H_    0.621074 0.059227 0.710480 0.126239
H11   H     H_    0.317311 0.112224 0.361691 0.126378
H12   H     H_    0.682691 0.612221 0.638306 0.126378
C25   C     C_R   0.380661 0.856942 0.836851 -0.164031
C26   C     C_R   0.619339 0.356929 0.163149 -0.164031
H13   H     H_    0.469922 0.839298 0.776978 0.103504
H14   H     H_    0.530078 0.339284 0.223022 0.103504
H15   H     H_    0.300809 0.873131 0.957991 0.123546
H16   H     H_    0.699191 0.373112 0.042009 0.123546
H17   H     H_    0.404391 0.853033 0.896957 0.113773
H18   H     H_    0.595609 0.353013 0.103043 0.113773
C27   C     C_R   0.389201 0.853662 0.690337 -0.042609
C28   C     C_R   0.610799 0.353661 0.309663 -0.042609
C29   C     C_R   0.077882 0.914353 0.732209 -0.244792
C30   C     C_R   0.922117 0.414362 0.267791 -0.244791
C31   C     C_R   0.112309 0.906942 0.661581 0.713488
C32   C     C_R   0.887691 0.406954 0.338419 0.713488
C33   C     C_R   0.179166 0.894056 0.666149 -0.255675
C34   C     C_R   0.820834 0.394065 0.333851 -0.255676
C35   C     C_R   0.213705 0.888092 0.742346 -0.012026
C36   C     C_R   0.786295 0.388094 0.257654 -0.012025
C37   C     C_R   0.177855 0.895758 0.814827 0.065091
C38   C     C_R   0.822145 0.395756 0.185173 0.065091
C39   C     C_R   0.282490 0.874837 0.748991 0.113323
C40   C     C_R   0.717510 0.374836 0.251009 0.113323
C41   C     C_R   0.313438 0.869668 0.827952 0.139833
C42   C     C_R   0.686562 0.369659 0.172048 0.139833
C43   C     C_R   0.277302 0.877185 0.897737 -0.205950
C44   C     C_R   0.722698 0.377172 0.102263 -0.205950
C45   C     C_R   0.210704 0.889990 0.891434 -0.156450
C46   C     C_R   0.789296 0.389981 0.108566 -0.156450
C47   C     C_R   0.321959 0.866453 0.680369 -0.209422
C48   C     C_R   0.678041 0.366457 0.319631 -0.209422
C49   C     C_R   0.418130 0.849087 0.768658 -0.171433
C50   C     C_R   0.581870 0.349077 0.231342 -0.171433
C51   C     C_R   0.109659 0.909046 0.808965 -0.175038
C52   C     C_R   0.890341 0.409048 0.191035 -0.175038
H19   H     H_    0.302237 0.869489 0.618564 0.100617
H20   H     H_    0.697762 0.369498 0.381436 0.100617
H21   H     H_    0.025930 0.924345 0.727061 0.145866
H22   H     H_    0.974070 0.424357 0.272939 0.145866
H23   H     H_    0.202361 0.889031 0.608819 0.148117
H24   H     H_    0.797639 0.389044 0.391181 0.148117
H25   H     H_    0.185067 0.895365 0.947407 0.102675
H26   H     H_    0.814933 0.395352 0.052593 0.102675
O11   O     O_R   0.950790 0.256670 0.090520 -0.533100
O12   O     O_R   0.049210 0.756670 0.909480 -0.533100
O13   O     O_R   0.927720 0.590370 0.921470 -0.545011
O14   O     O_R   0.072280 0.090370 0.078530 -0.545012
C53   C     C_R   0.910026 0.423038 0.894946 0.690799
C54   C     C_R   0.089974 0.923039 0.105054 0.690800
O15   O     O_R   0.943270 0.586180 0.090640 -0.535090
O16   O     O_R   0.056730 0.086180 0.909360 -0.535090
O17   O     O_R   0.064850 0.759970 0.079840 -0.536747
O18   O     O_R   0.935150 0.259970 0.920160 -0.536747
C55   C     C_R   0.930229 0.417673 0.118828 0.719550
C56   C     C_R   0.069771 0.917673 0.881172 0.719550
O19   O     O_3   0.039850 0.428050 0.996240 -0.372681
O20   O     O_3   0.960150 0.928050 0.003760 -0.372681
V3    V     V_3+5 0.992610 0.701540 0.000700 1.428885
V4    V     V_3+5 0.007390 0.201540 0.999300 1.428884
F1    F     F_    0.080539 0.912338 0.587669 -0.639429
F2    F     F_    0.919460 0.412358 0.412331 -0.639429

loop_
_geom_bond_atom_site_label_1
_geom_bond_atom_site_label_2
_ccdc_geom_bond_type
C36   C38   A    
C33   C35   A    
C11   H9    S    
C15   C17   A    
C27   C49   A    
C39   C47   A    
O1    C3    A    
O2    C4    A    
C2    O7    A    
O20   V4    S    
C37   C45   A    
C10   H6    S    
O5    C3    A    
C21   H3    S    
C44   C46   A    
C1    C28   S    
C22   H4    S    
C40   C48   A    
C2    C27   S    
C47   H19   S    
C54   O17   A    
C30   C32   A    
C39   C41   A    
C26   C42   A    
C32   C34   A    
O13   V3    S    
H16   C44   S    
C30   C52   A    
C8    C12   A    
C35   C37   A    
C20   H2    S    
C23   H7    S    
C13   H11   S    
O12   C56   A    
O15   V3    S    
O5    V1    S    
O13   C53   A    
C6    C53   S    
C43   C45   A    
O11   V4    S    
C5    C21   A    
O11   C55   A    
C7    C13   A    
O20   V3    S    
C51   C56   S    
O17   V3    S    
C3    C8    S    
C29   C31   A    
C27   C47   A    
C42   C44   A    
C5    C54   S    
C30   H22   S    
C53   O18   A    
C15   C23   A    
O16   C56   A    
C9    C17   A    
C26   H18   S    
C25   C49   A    
C34   C36   A    
O4    V2    S    
C7    C11   A    
C29   H21   S    
C48   H20   S    
O6    C4    A    
C31   C33   A    
O19   V3    S    
O1    V2    S    
C38   C46   A    
O14   C54   A    
O2    V1    S    
C6    C22   A    
C9    H5    S    
O4    C2    A    
C37   C51   A    
C9    C11   A    
C5    C19   A    
C10   C12   A    
C24   H8    S    
C6    C20   A    
O3    V1    S    
C41   C43   A    
O14   V4    S    
C10   C18   A    
C33   H23   S    
C14   C16   A    
H15   C43   S    
C29   C51   A    
O3    C1    A    
C26   C50   A    
C40   C42   A    
C14   H12   S    
C13   C15   A    
O18   V4    S    
O16   V4    S    
C38   C52   A    
C28   C50   A    
C16   C18   A    
O7    V1    S    
C12   H10   S    
C1    O8    A    
C17   C19   A    
C25   H17   S    
C18   C20   A    
C36   C40   A    
C8    C14   A    
C35   C39   A    
C4    C7    S    
C21   C23   A    
C52   C55   S    
O19   V4    S    
C22   C24   A    
C45   H25   S    
C31   F1    S    
H13   C49   S    
C28   C48   A    
C19   H1    S    
O12   V3    S    
C32   F2    S    
C16   C24   A    
O6    V2    S    
C25   C41   A    
O9    V2    S    
O10   V1    S    
O8    V2    S    
H14   C50   S    
C34   H24   S    
O15   C55   A    
C46   H26   S    
