data_mof_unit_62977.cif
_audit_creation_date              2012-12-10T18:39:52-0500
_audit_creation_method            fapswitch 2.2
_symmetry_space_group_name_H-M    P1
_symmetry_Int_Tables_number       1
_space_group_crystal_system       triclinic
_cell_length_a                    30.326393
_cell_length_b                    30.032768
_cell_length_c                    24.682431
_cell_angle_alpha                 90.037962
_cell_angle_beta                  128.343842
_cell_angle_gamma                 90.044657
_cell_volume                      17631.3968059

loop_
_atom_site_label
_atom_site_type_symbol
_atom_type_description
_atom_site_fract_x
_atom_site_fract_y
_atom_site_fract_z
_atom_type_partial_charge
C1    C     C_R   0.810684 0.810870 0.500053 0.882543
C2    C     C_R   0.189397 0.810940 0.500021 0.878807
C3    C     C_R   0.310608 0.310902 0.499926 0.880396
C4    C     C_R   0.689071 0.310872 0.499561 0.882215
C5    C     C_R   0.644847 0.750185 0.289927 -0.031997
C6    C     C_R   0.355453 0.750161 0.710105 -0.031069
C7    C     C_R   0.144753 0.250109 0.290073 -0.029902
C8    C     C_R   0.855179 0.250323 0.710140 -0.031797
C9    C     C_R   0.465732 0.750428 0.930205 0.281809
C10   C     C_R   0.535244 0.750472 0.069843 0.281738
C11   C     C_R   0.965101 0.250587 0.930319 0.282226
C12   C     C_R   0.034776 0.250464 0.069990 0.282325
C13   C     C_3   0.875323 0.881585 0.554260 -0.163233
C14   C     C_3   0.159166 0.894646 0.487601 -0.165034
C15   C     C_3   0.399442 0.362403 0.564350 -0.171204
C16   C     C_3   0.615027 0.375745 0.438722 -0.158190
C17   C     C_3   0.853635 0.915250 0.495022 -0.215663
C18   C     C_3   0.159912 0.905684 0.549455 -0.234948
C19   C     C_3   0.379215 0.410265 0.536254 -0.224667
C20   C     C_3   0.638521 0.414822 0.490885 -0.215377
C21   C     C_3   0.905455 0.904988 0.499584 -0.102864
C22   C     C_3   0.095375 0.906155 0.499716 -0.100062
C23   C     C_3   0.404181 0.405621 0.498231 -0.100373
C24   C     C_3   0.594240 0.404591 0.500692 -0.102852
C25   C     C_3   0.927049 0.871748 0.558180 0.176912
C26   C     C_3   0.094414 0.895220 0.438329 0.179917
C27   C     C_3   0.424201 0.358381 0.525787 0.197694
C28   C     C_3   0.570854 0.366007 0.449222 0.181196
C29   C     C_3   0.896032 0.834024 0.504528 -0.184158
C30   C     C_3   0.091543 0.845221 0.449849 -0.191882
C31   C     C_3   0.368383 0.339789 0.460808 -0.180608
C32   C     C_3   0.610952 0.333900 0.509225 -0.186153
C33   C     C_3   0.873875 0.867822 0.445884 0.179151
C34   C     C_3   0.093210 0.856619 0.512046 0.201503
C35   C     C_3   0.348311 0.387539 0.433714 0.174191
C36   C     C_3   0.634667 0.373029 0.560609 0.178108
C37   C     C_3   0.821488 0.877613 0.440680 -0.156328
C38   C     C_3   0.157905 0.855443 0.562092 -0.156123
C39   C     C_3   0.322675 0.392036 0.471217 -0.163641
C40   C     C_3   0.679630 0.382920 0.551616 -0.160696
C41   C     C_3   0.844222 0.844602 0.499932 -0.038344
C42   C     C_3   0.156079 0.845028 0.499899 -0.036825
C43   C     C_3   0.343687 0.344803 0.499156 -0.034111
C44   C     C_3   0.655275 0.344499 0.499509 -0.039068
C45   C     C_R   0.682630 0.750055 0.365389 0.854052
C46   C     C_R   0.317443 0.750058 0.634632 0.854581
C47   C     C_R   0.182610 0.250016 0.365439 0.853641
C48   C     C_R   0.817373 0.250120 0.634645 0.860537
C49   C     C_R   0.832712 0.760197 0.743723 -0.243622
C50   C     C_R   0.167177 0.747889 0.256178 -0.263017
C51   C     C_R   0.334501 0.248708 0.744810 -0.255567
C52   C     C_R   0.670507 0.252085 0.257592 -0.262560
C53   C     C_R   0.865946 0.762457 0.815577 0.195708
C54   C     C_R   0.133237 0.747445 0.184118 0.198543
C55   C     C_R   0.369090 0.246768 0.816965 0.196536
C56   C     C_R   0.638901 0.248787 0.185898 0.196957
C57   C     C_R   0.924262 0.755083 0.855182 -0.004385
C58   C     C_R   0.074259 0.751217 0.145752 0.012984
C59   C     C_R   0.428044 0.246770 0.854655 0.002232
C60   C     C_R   0.580073 0.242623 0.145292 0.014690
C61   C     C_R   0.948043 0.746147 0.822579 -0.185814
C62   C     C_R   0.050965 0.754202 0.180104 -0.195759
C63   C     C_R   0.450788 0.249763 0.819869 -0.200390
C64   C     C_R   0.554930 0.238372 0.177204 -0.195795
C65   C     C_R   0.914950 0.743875 0.750319 0.147567
C66   C     C_R   0.085013 0.754440 0.252469 0.152206
C67   C     C_R   0.416415 0.253688 0.747984 0.170458
C68   C     C_R   0.586556 0.240984 0.249189 0.148538
C69   C     C_R   0.856176 0.750907 0.710695 -0.141558
C70   C     C_R   0.143795 0.750829 0.290205 -0.118891
C71   C     C_R   0.357365 0.251554 0.710037 -0.110214
C72   C     C_R   0.645322 0.248139 0.289504 -0.130357
C73   C     C_R   0.035304 0.752331 0.070038 0.291421
C74   C     C_R   0.961931 0.755491 0.930677 0.276828
C75   C     C_R   0.542652 0.241881 0.069502 0.290268
C76   C     C_R   0.467615 0.245116 0.930170 0.279872
C77   C     C_3   0.592341 0.657609 0.458948 0.201311
C78   C     C_3   0.407034 0.659847 0.537317 0.174574
C79   C     C_3   0.114948 0.124508 0.439036 0.200890
C80   C     C_3   0.889296 0.165015 0.490039 0.195588
C81   C     C_3   0.602238 0.641531 0.524910 0.199572
C82   C     C_3   0.394579 0.641951 0.470735 0.190731
C83   C     C_3   0.071005 0.133976 0.449769 0.204563
C84   C     C_3   0.864550 0.126302 0.438106 0.196396
C85   C     C_3   0.596150 0.593506 0.500320 -0.069956
C86   C     C_3   0.405143 0.594734 0.500016 -0.072554
C87   C     C_3   0.094616 0.094685 0.500114 -0.068667
C88   C     C_3   0.904775 0.094712 0.498452 -0.073309
C89   C     C_R   0.688924 0.688977 0.498819 0.876908
C90   C     C_R   0.311358 0.688999 0.501805 0.873683
C91   C     C_R   0.189577 0.189079 0.500543 0.876830
C92   C     C_R   0.811015 0.189163 0.500410 0.880845
C93   C     C_3   0.586220 0.609220 0.434135 -0.205524
C94   C     C_3   0.417438 0.612357 0.566782 -0.189753
C95   C     C_3   0.138404 0.084723 0.489370 -0.199511
C96   C     C_3   0.929789 0.133235 0.550579 -0.214761
C97   C     C_3   0.650307 0.606355 0.473118 -0.187863
C98   C     C_3   0.354325 0.607387 0.532446 -0.191623
C99   C     C_3   0.179884 0.116011 0.550941 -0.176941
C100  C     C_3   0.885034 0.124334 0.560708 -0.172239
C101  C     C_3   0.659618 0.589801 0.538912 -0.176488
C102  C     C_3   0.342604 0.588771 0.466121 -0.180964
C103  C     C_3   0.135619 0.125223 0.561712 -0.195014
C104  C     C_3   0.860795 0.085178 0.508814 -0.170387
C105  C     C_3   0.666038 0.638421 0.563726 -0.205534
C106  C     C_3   0.331749 0.636433 0.436543 -0.159745
C107  C     C_3   0.112126 0.165031 0.511247 -0.209423
C108  C     C_3   0.820000 0.117188 0.448260 -0.206996
C109  C     C_3   0.655629 0.654424 0.497772 -0.068235
C110  C     C_3   0.344764 0.654566 0.503066 -0.066839
C111  C     C_3   0.155867 0.155158 0.500328 -0.067913
C112  C     C_3   0.845045 0.155770 0.500263 -0.072695
C113  C     C_R   0.439232 0.561111 0.499915 0.870622
C114  C     C_R   0.561601 0.560243 0.500157 0.874147
C115  C     C_R   0.939016 0.060857 0.499683 0.877267
C116  C     C_R   0.060898 0.060855 0.500110 0.873585
C117  C     C_R   0.939347 0.938787 0.499829 0.866346
C118  C     C_R   0.061364 0.939586 0.500019 0.864035
C119  C     C_R   0.438756 0.439274 0.499582 0.865330
C120  C     C_R   0.560461 0.438598 0.500202 0.863399
C121  C     C_R   0.817939 0.750381 0.634745 0.865912
C122  C     C_R   0.182221 0.750362 0.365575 0.867348
C123  C     C_R   0.318435 0.251004 0.634500 0.864817
C124  C     C_R   0.682199 0.250088 0.365278 0.863741
C125  C     C_R   0.610575 0.787183 0.253602 -0.199605
C126  C     C_R   0.390143 0.787057 0.746502 -0.196695
C127  C     C_R   0.113336 0.288244 0.253920 -0.194560
C128  C     C_R   0.890407 0.286959 0.746607 -0.199805
C129  C     C_R   0.575147 0.787465 0.181744 -0.163826
C130  C     C_R   0.425835 0.787313 0.818365 -0.164033
C131  C     C_R   0.077779 0.288503 0.182073 -0.162611
C132  C     C_R   0.925946 0.287244 0.818479 -0.164001
C133  C     C_R   0.572886 0.750430 0.145424 0.088601
C134  C     C_R   0.427946 0.750350 0.854622 0.088490
C135  C     C_R   0.072521 0.250352 0.145608 0.087099
C136  C     C_R   0.927306 0.250586 0.854696 0.088532
C137  C     C_R   0.606817 0.713277 0.181828 -0.163766
C138  C     C_R   0.393635 0.713278 0.818150 -0.164186
C139  C     C_R   0.103587 0.212058 0.181925 -0.161093
C140  C     C_R   0.892319 0.213832 0.818131 -0.164000
C141  C     C_R   0.642933 0.713312 0.253657 -0.196220
C142  C     C_R   0.357258 0.713341 0.746316 -0.197028
C143  C     C_R   0.139857 0.212069 0.253768 -0.201022
C144  C     C_R   0.856167 0.213853 0.746308 -0.196449
H1    H     H_    0.777329 0.878959 0.392541 0.133782
H2    H     H_    0.184632 0.838020 0.612600 0.134924
H3    H     H_    0.280213 0.405005 0.448757 0.145608
H4    H     H_    0.725067 0.388911 0.593599 0.137037
H5    H     H_    0.787839 0.765844 0.713153 0.164062
H6    H     H_    0.212399 0.744707 0.286473 0.147508
H7    H     H_    0.289213 0.247776 0.715393 0.157424
H8    H     H_    0.715708 0.256346 0.289352 0.155482
H9    H     H_    0.670856 0.592964 0.451838 0.154058
H10   H     H_    0.336864 0.594267 0.557665 0.152881
H11   H     H_    0.225333 0.109737 0.592315 0.148088
H12   H     H_    0.892445 0.124479 0.610761 0.141845
H13   H     H_    0.686180 0.561207 0.571557 0.144294
H14   H     H_    0.317098 0.558826 0.436958 0.142131
H15   H     H_    0.143258 0.124689 0.611901 0.155959
H16   H     H_    0.850122 0.051588 0.516411 0.133976
H17   H     H_    0.549098 0.816404 0.154642 0.146541
H18   H     H_    0.452179 0.816184 0.845516 0.146491
H19   H     H_    0.054005 0.318355 0.155111 0.146563
H20   H     H_    0.952768 0.315892 0.845653 0.146439
H21   H     H_    0.699512 0.651362 0.616414 0.138289
H22   H     H_    0.295015 0.646549 0.383710 0.134972
H23   H     H_    0.102409 0.198459 0.520608 0.157323
H24   H     H_    0.774388 0.111442 0.406872 0.145722
H25   H     H_    0.605936 0.684419 0.154828 0.146520
H26   H     H_    0.394400 0.684475 0.845104 0.146494
H27   H     H_    0.100353 0.182287 0.154863 0.146602
H28   H     H_    0.892444 0.185268 0.844990 0.146660
H29   H     H_    0.668919 0.684344 0.280786 0.152550
H30   H     H_    0.330976 0.684441 0.719136 0.152537
H31   H     H_    0.163568 0.182219 0.280917 0.150637
H32   H     H_    0.829421 0.185167 0.719110 0.153112
H33   H     H_    0.837299 0.949142 0.491133 0.139228
H34   H     H_    0.186882 0.931091 0.589883 0.156719
H35   H     H_    0.384458 0.439757 0.566926 0.151680
H36   H     H_    0.648884 0.448624 0.483539 0.142710
N1    N     N_R   0.517503 0.711540 0.034274 -0.179590
N2    N     N_R   0.483179 0.711519 0.965650 -0.179633
N3    N     N_R   0.015064 0.211624 0.034277 -0.179979
N4    N     N_R   0.980684 0.211693 0.965652 -0.179976
N5    N     N_R   0.483642 0.789373 0.965767 -0.179223
N6    N     N_R   0.517654 0.789395 0.034407 -0.179334
N7    N     N_R   0.984966 0.289432 0.966025 -0.179786
N8    N     N_R   0.019063 0.289378 0.034667 -0.179676
N9    N     N_R   0.010728 0.778793 0.965847 -0.179793
N10   N     N_R   0.986324 0.729171 0.034789 -0.181951
N11   N     N_R   0.511376 0.274068 0.965339 -0.177761
N12   N     N_R   0.499038 0.212707 0.034223 -0.183112
N13   N     N_R   0.046574 0.777518 0.034413 -0.179381
N14   N     N_R   0.950365 0.730515 0.966197 -0.168631
N15   N     N_R   0.547976 0.272711 0.033857 -0.179844
N16   N     N_R   0.462331 0.214092 0.965656 -0.171035
O1    O     O_R   0.822760 0.770240 0.499990 -0.630647
O2    O     O_R   0.177240 0.770240 0.500010 -0.626216
O3    O     O_R   0.322760 0.270240 0.499990 -0.630078
O4    O     O_R   0.677240 0.270240 0.500010 -0.630358
O5    O     O_R   0.482280 0.546460 0.557530 -0.625564
O6    O     O_R   0.517720 0.546460 0.442470 -0.625116
O7    O     O_R   0.982280 0.046460 0.557530 -0.616815
O8    O     O_R   0.017720 0.046460 0.442470 -0.637842
O9    O     O_R   0.924770 0.953450 0.442500 -0.628685
O10   O     O_R   0.075230 0.953450 0.557500 -0.621017
O11   O     O_R   0.424770 0.453450 0.442500 -0.640748
O12   O     O_R   0.575230 0.453450 0.557500 -0.634574
O13   O     O_R   0.982280 0.953430 0.557510 -0.632863
O14   O     O_R   0.017720 0.953430 0.442490 -0.639850
O15   O     O_R   0.482280 0.453430 0.557510 -0.621874
O16   O     O_R   0.517720 0.453430 0.442490 -0.629954
O17   O     O_R   0.770230 0.822760 0.499990 -0.621532
O18   O     O_R   0.229770 0.822760 0.500010 -0.625674
O19   O     O_R   0.270230 0.322760 0.499990 -0.625147
O20   O     O_R   0.729770 0.322760 0.500010 -0.621771
O21   O     O_R   0.725330 0.723740 0.398130 -0.622717
O22   O     O_R   0.274670 0.723740 0.601870 -0.624169
O23   O     O_R   0.225330 0.223740 0.398130 -0.624498
O24   O     O_R   0.774670 0.223740 0.601870 -0.623031
O25   O     O_R   0.672800 0.776260 0.398130 -0.626666
O26   O     O_R   0.327200 0.776260 0.601870 -0.627489
O27   O     O_R   0.172800 0.276260 0.398130 -0.623392
O28   O     O_R   0.827200 0.276260 0.601870 -0.624776
O29   O     O_R   0.729750 0.677220 0.500010 -0.618360
O30   O     O_R   0.270250 0.677220 0.499990 -0.618216
O31   O     O_R   0.229750 0.177220 0.500010 -0.627527
O32   O     O_R   0.770250 0.177220 0.499990 -0.614863
O33   O     O_R   0.677220 0.729740 0.500010 -0.637419
O34   O     O_R   0.322780 0.729740 0.499990 -0.638682
O35   O     O_R   0.177220 0.229740 0.500010 -0.624038
O36   O     O_R   0.822780 0.229740 0.499990 -0.643337
O37   O     O_R   0.827180 0.723730 0.601860 -0.633235
O38   O     O_R   0.172820 0.723730 0.398140 -0.628559
O39   O     O_R   0.327180 0.223730 0.601860 -0.627753
O40   O     O_R   0.672820 0.223730 0.398140 -0.634116
O41   O     O_R   0.774660 0.776250 0.601860 -0.617670
O42   O     O_R   0.225340 0.776250 0.398140 -0.614243
O43   O     O_R   0.274660 0.276250 0.601860 -0.615777
O44   O     O_R   0.725340 0.276250 0.398140 -0.617280
O45   O     O_R   0.424770 0.546480 0.442520 -0.626067
O46   O     O_R   0.575230 0.546480 0.557480 -0.626630
O47   O     O_R   0.924770 0.046480 0.442520 -0.641606
O48   O     O_R   0.075230 0.046480 0.557480 -0.621552
Zn1   Zn    Zn3+2 0.785070 0.714920 0.500000 0.931903
Zn2   Zn    Zn3+2 0.214930 0.714920 0.500000 0.937206
Zn3   Zn    Zn3+2 0.285070 0.214920 0.500000 0.933797
Zn4   Zn    Zn3+2 0.714930 0.214920 0.500000 0.934097
Zn5   Zn    Zn3+2 0.714920 0.785060 0.500000 0.933450
Zn6   Zn    Zn3+2 0.285080 0.785060 0.500000 0.932560
Zn7   Zn    Zn3+2 0.214920 0.285060 0.500000 0.941512
Zn8   Zn    Zn3+2 0.785080 0.285060 0.500000 0.932083
Zn9   Zn    Zn3+2 0.961630 0.999960 0.423200 0.909523
Zn10  Zn    Zn3+2 0.038370 0.999960 0.576800 0.935805
Zn11  Zn    Zn3+2 0.461630 0.499960 0.423200 0.923482
Zn12  Zn    Zn3+2 0.538370 0.499960 0.576800 0.929117
H37   H     H_    0.611642 0.816057 0.280719 0.152758
H38   H     H_    0.389205 0.815878 0.719444 0.153395
H39   H     H_    0.116828 0.317996 0.281197 0.150068
H40   H     H_    0.890066 0.315539 0.719604 0.152311
C145  C     C_3   0.837906 0.774658 0.847250 -0.416390
C146  C     C_3   0.806284 0.734914 0.846802 -0.838733
H41   H     H_    0.772494 0.723894 0.792985 0.249390
H42   H     H_    0.835555 0.706765 0.876347 0.273368
H43   H     H_    0.786812 0.744554 0.871123 0.247930
H44   H     H_    0.868615 0.787178 0.900886 0.215730
H45   H     H_    0.807818 0.802382 0.817426 0.198932
C147  C     C_3   0.161454 0.740991 0.151019 -0.412488
C148  C     C_3   0.148597 0.695150 0.117348 -0.843806
H46   H     H_    0.161797 0.668640 0.156068 0.256254
H47   H     H_    0.103125 0.691355 0.073865 0.266598
H48   H     H_    0.172168 0.690872 0.096836 0.246784
H49   H     H_    0.149266 0.767635 0.113049 0.222273
H50   H     H_    0.207904 0.743738 0.190441 0.197000
C149  C     C_3   0.341444 0.246359 0.851123 -0.412939
C150  C     C_3   0.319966 0.199879 0.848831 -0.841070
H51   H     H_    0.287758 0.188959 0.794488 0.249399
H52   H     H_    0.355153 0.175621 0.875718 0.273282
H53   H     H_    0.300550 0.200343 0.874935 0.247671
H54   H     H_    0.370468 0.258080 0.905423 0.215404
H55   H     H_    0.305514 0.270004 0.823983 0.199290
C151  C     C_3   0.669788 0.249927 0.155663 -0.411968
C152  C     C_3   0.669151 0.204439 0.127463 -0.848772
H56   H     H_    0.687226 0.178803 0.168564 0.258939
H57   H     H_    0.625757 0.194551 0.083086 0.265973
H58   H     H_    0.694893 0.205855 0.109597 0.247088
H59   H     H_    0.651947 0.275662 0.114946 0.221807
H60   H     H_    0.714531 0.259511 0.195836 0.198377
H61   H     H_    0.992830 0.740277 0.854834 0.167786
H62   H     H_    0.005811 0.756923 0.149392 0.168804
H63   H     H_    0.496066 0.249416 0.849434 0.158456
H64   H     H_    0.509918 0.233665 0.144624 0.169828
C153  C     C_3   0.941322 0.734560 0.715173 -0.368090
C154  C     C_3   0.005622 0.735430 0.761773 -0.925178
H65   H     H_    0.022003 0.767791 0.789376 0.270520
H66   H     H_    0.023580 0.707566 0.799392 0.261887
H67   H     H_    0.019459 0.731242 0.729654 0.257666
H68   H     H_    0.927308 0.701223 0.690365 0.228173
H69   H     H_    0.925940 0.759877 0.674227 0.210297
C155  C     C_3   0.060205 0.759213 0.290308 -0.377148
C156  C     C_3   0.998781 0.774099 0.246285 -0.924845
H70   H     H_    0.992648 0.805420 0.218453 0.265648
H71   H     H_    0.970569 0.747640 0.208912 0.264954
H72   H     H_    0.987150 0.780417 0.280319 0.253236
H73   H     H_    0.064036 0.726877 0.314717 0.226979
H74   H     H_    0.085231 0.784292 0.332126 0.191432
C157  C     C_3   0.444534 0.261118 0.714843 -0.415067
C158  C     C_3   0.480956 0.303183 0.742679 -0.902534
H75   H     H_    0.455568 0.332474 0.735764 0.263697
H76   H     H_    0.517267 0.299716 0.798232 0.264790
H77   H     H_    0.497962 0.309104 0.714405 0.249497
H78   H     H_    0.471293 0.231892 0.725512 0.210135
H79   H     H_    0.413787 0.264881 0.658073 0.220143
C159  C     C_3   0.558659 0.236735 0.283421 -0.367551
C160  C     C_3   0.494335 0.238137 0.235114 -0.927974
H80   H     H_    0.478871 0.269336 0.204359 0.266304
H81   H     H_    0.476524 0.208672 0.200391 0.263795
H82   H     H_    0.479337 0.237142 0.266249 0.261858
H83   H     H_    0.571711 0.204736 0.312016 0.230065
H84   H     H_    0.573796 0.264358 0.321163 0.203151
C161  C     C_3   0.579751 0.658542 0.561678 -0.424146
C162  C     C_3   0.581784 0.709279 0.566673 -0.884223
H85   H     H_    0.622659 0.722134 0.582604 0.264862
H86   H     H_    0.546923 0.724042 0.516366 0.262916
H87   H     H_    0.577050 0.720098 0.605731 0.255406
H88   H     H_    0.536550 0.645998 0.534313 0.183262
H89   H     H_    0.605768 0.644314 0.614617 0.215069
C163  C     C_3   0.415183 0.663139 0.433876 -0.463657
C164  C     C_3   0.375825 0.699794 0.383900 -0.878676
H90   H     H_    0.335404 0.685306 0.339054 0.257314
H91   H     H_    0.367595 0.724288 0.410421 0.264690
H92   H     H_    0.395409 0.717551 0.364208 0.254566
H93   H     H_    0.456490 0.678597 0.473121 0.217011
H94   H     H_    0.419209 0.637103 0.405236 0.223610
C165  C     C_3   0.008052 0.143032 0.395532 -0.406068
C166  C     C_3   0.996617 0.187853 0.360071 -0.882030
H95   H     H_    0.015326 0.215293 0.398551 0.261898
H96   H     H_    0.014188 0.188615 0.331875 0.265355
H97   H     H_    0.950526 0.193268 0.322398 0.251512
H98   H     H_    0.988121 0.116108 0.356326 0.219706
H99   H     H_    0.988696 0.142686 0.421612 0.194918
C167  C     C_3   0.850707 0.124624 0.366927 -0.380992
C168  C     C_3   0.807437 0.159680 0.317772 -0.906789
H100  H     H_    0.768583 0.156169 0.312746 0.258800
H101  H     H_    0.824689 0.193679 0.336223 0.262449
H102  H     H_    0.796302 0.155297 0.265924 0.255120
H103  H     H_    0.889647 0.129210 0.372565 0.206055
H104  H     H_    0.833250 0.091235 0.343935 0.219121
C169  C     C_3   0.556969 0.696162 0.409984 -0.395220
C170  C     C_3   0.494418 0.686967 0.367920 -0.899382
H105  H     H_    0.481922 0.657963 0.333193 0.261980
H106  H     H_    0.484568 0.679962 0.403192 0.271160
H107  H     H_    0.470131 0.716537 0.336089 0.254994
H108  H     H_    0.567876 0.727362 0.439952 0.225041
H109  H     H_    0.566864 0.700945 0.373916 0.205120
C171  C     C_3   0.442856 0.700531 0.579947 -0.391368
C172  C     C_3   0.504242 0.688181 0.635886 -0.911062
H110  H     H_    0.508699 0.669020 0.677498 0.259541
H111  H     H_    0.520063 0.667632 0.613992 0.270429
H112  H     H_    0.529983 0.718911 0.658963 0.255742
H113  H     H_    0.439725 0.725970 0.545091 0.219213
H114  H     H_    0.426683 0.715325 0.605795 0.218907
C173  C     C_3   0.108417 0.125172 0.372317 -0.420442
C174  C     C_3   0.068516 0.088983 0.321762 -0.860140
H115  H     H_    0.082079 0.055752 0.346814 0.254003
H116  H     H_    0.025006 0.095595 0.302376 0.260331
H117  H     H_    0.068632 0.088614 0.276870 0.250756
H118  H     H_    0.093096 0.158312 0.347420 0.199203
H119  H     H_    0.150367 0.119741 0.385665 0.213801
C175  C     C_3   0.907828 0.211353 0.484906 -0.371594
C176  C     C_3   0.952135 0.209195 0.474138 -0.928226
H120  H     H_    0.986789 0.186272 0.511887 0.257788
H121  H     H_    0.932694 0.198120 0.420845 0.271453
H122  H     H_    0.970071 0.242896 0.481134 0.256243
H123  H     H_    0.870942 0.230285 0.441850 0.214719
H124  H     H_    0.925807 0.229635 0.533727 0.216002
H125  H     H_    0.553245 0.596218 0.381338 0.157675
H126  H     H_    0.452648 0.601263 0.619837 0.160782
H127  H     H_    0.148104 0.051042 0.480746 0.132318
H128  H     H_    0.975365 0.138851 0.592342 0.149648
H129  H     H_    0.875087 0.886164 0.598717 0.137582
H130  H     H_    0.186971 0.909500 0.477501 0.149543
H131  H     H_    0.419054 0.351307 0.617591 0.141893
H132  H     H_    0.607842 0.375784 0.388803 0.132598
C177  C     C_3   0.987176 0.869136 0.625587 -0.385879
C178  C     C_3   0.994283 0.830509 0.670339 -0.898108
H133  H     H_    0.966024 0.834820 0.684225 0.261955
H134  H     H_    0.984605 0.798465 0.642494 0.262101
H135  H     H_    0.038396 0.829488 0.718602 0.258194
H136  H     H_    0.016498 0.864796 0.613496 0.202183
H137  H     H_    0.997706 0.900709 0.654774 0.224062
C179  C     C_3   0.058524 0.918334 0.367987 -0.387126
C180  C     C_3   0.070948 0.900419 0.320894 -0.892353
H138  H     H_    0.115668 0.906280 0.344172 0.260578
H139  H     H_    0.061886 0.864218 0.312072 0.265814
H140  H     H_    0.043979 0.917704 0.270291 0.255125
H141  H     H_    0.013372 0.912827 0.342923 0.220042
H142  H     H_    0.067275 0.954677 0.375599 0.208365
C181  C     C_3   0.482887 0.340928 0.557092 -0.426891
C182  C     C_3   0.487543 0.291101 0.571438 -0.862800
H143  H     H_    0.476758 0.283543 0.605989 0.261898
H144  H     H_    0.458756 0.272347 0.522356 0.258394
H145  H     H_    0.531288 0.280004 0.596847 0.249556
H146  H     H_    0.492212 0.347495 0.520845 0.186598
H147  H     H_    0.514242 0.358998 0.606111 0.213007
C183  C     C_3   0.508368 0.357193 0.391707 -0.398760
C184  C     C_3   0.499519 0.316407 0.349288 -0.895353
H148  H     H_    0.518199 0.322207 0.322929 0.263836
H149  H     H_    0.519074 0.286567 0.382861 0.263482
H150  H     H_    0.453797 0.310146 0.309441 0.254909
H151  H     H_    0.487002 0.352026 0.414930 0.194494
H152  H     H_    0.489352 0.386548 0.356991 0.226320
H153  H     H_    0.912942 0.800360 0.508528 0.147953
H154  H     H_    0.064407 0.819890 0.409366 0.136368
H155  H     H_    0.363153 0.310352 0.430047 0.141867
H156  H     H_    0.600082 0.300298 0.516533 0.149580
C185  C     C_3   0.872254 0.860693 0.383342 -0.399775
C186  C     C_3   0.839504 0.818702 0.343620 -0.868004
H157  H     H_    0.860006 0.788889 0.377003 0.259911
H158  H     H_    0.795611 0.820942 0.325282 0.259547
H159  H     H_    0.838491 0.814856 0.298119 0.251614
H160  H     H_    0.851944 0.889893 0.348467 0.222112
H161  H     H_    0.915765 0.857894 0.400809 0.197531
C187  C     C_3   0.055991 0.836640 0.527755 -0.431769
C188  C     C_3   0.059289 0.785970 0.530759 -0.847524
H162  H     H_    0.043978 0.772180 0.480013 0.257645
H163  H     H_    0.103284 0.774986 0.571175 0.262049
H164  H     H_    0.032497 0.772770 0.543507 0.245012
H165  H     H_    0.070139 0.849707 0.578299 0.205620
H166  H     H_    0.011869 0.847038 0.487347 0.189788
C189  C     C_3   0.318703 0.401683 0.358956 -0.386373
C190  C     C_3   0.263565 0.376440 0.309064 -0.887169
H167  H     H_    0.271469 0.340060 0.312529 0.260465
H168  H     H_    0.234402 0.383189 0.320999 0.256747
H169  H     H_    0.243260 0.387424 0.255374 0.255776
H170  H     H_    0.309899 0.437967 0.353979 0.215010
H171  H     H_    0.346776 0.394958 0.345336 0.214891
C191  C     C_3   0.645759 0.371493 0.630024 -0.395493
C192  C     C_3   0.686492 0.334192 0.675654 -0.874986
H172  H     H_    0.668575 0.301351 0.650497 0.259144
H173  H     H_    0.727282 0.339011 0.685615 0.259303
H174  H     H_    0.694122 0.334365 0.725844 0.253874
H175  H     H_    0.663845 0.403836 0.657023 0.222285
H176  H     H_    0.605384 0.366096 0.620837 0.205418

loop_
_geom_bond_atom_site_label_1
_geom_bond_atom_site_label_2
_ccdc_geom_bond_type
C162  H86   S    
C74   N14   A    
C133  C137  A    
C172  H110  S    
C55   C59   A    
C188  H162  S    
C99   C103  S    
C143  H31   S    
C136  C140  A    
C13   C25   S    
O4    Zn4   S    
C156  H70   S    
C135  C139  A    
C151  C152  S    
C46   O22   A    
C128  H40   S    
C85   C114  S    
C118  O10   A    
O21   Zn1   S    
C167  H103  S    
C78   C171  S    
C20   C40   S    
C95   C99   S    
C162  H87   S    
C21   C33   S    
C92   O36   A    
C181  H147  S    
C81   C161  S    
C29   C33   S    
C100  C104  S    
C184  H150  S    
C21   C117  S    
C9    N2    A    
C12   C135  S    
C115  O7    A    
C139  H27   S    
O36   Zn8   S    
C113  O5    A    
O29   Zn1   S    
C16   C44   S    
C186  H158  S    
C185  H160  S    
C158  H77   S    
O24   Zn4   S    
C49   C69   A    
C72   C124  S    
O19   Zn7   S    
C130  C134  A    
C51   C71   A    
C77   C169  S    
C116  O8    A    
C25   C29   S    
C187  H165  S    
C107  H23   S    
C24   C120  S    
C126  H38   S    
C27   C31   S    
C120  O12   A    
C28   C32   S    
C62   C66   A    
C167  C168  S    
C159  C160  S    
C161  H89   S    
C17   C21   S    
C19   C23   S    
N3    N4    A    
C28   C183  S    
C163  H93   S    
C52   C72   A    
C78   C82   S    
C15   C27   S    
C68   C72   A    
C25   C177  S    
C80   C112  S    
C50   C54   A    
C14   C26   S    
C15   H131  S    
C87   C103  S    
C1    C41   S    
C190  H167  S    
C122  O38   A    
C2    O18   A    
C172  H112  S    
C148  H47   S    
C188  H164  S    
C178  H135  S    
C19   H35   S    
O8    Zn9   S    
C155  C156  S    
C156  H72   S    
C17   H33   S    
C22   C118  S    
C88   C115  S    
C47   O27   A    
C182  H143  S    
C106  H22   S    
C171  H114  S    
C90   O30   A    
C84   C88   S    
C166  H95   S    
O47   Zn9   S    
C39   C43   S    
C57   C61   A    
C180  H138  S    
C59   C63   A    
C46   O26   A    
C60   C64   A    
C149  H54   S    
C50   C70   A    
C145  H44   S    
C11   C136  S    
O37   Zn1   S    
C154  H65   S    
C47   O23   A    
C78   C94   S    
C49   C53   A    
C66   C155  S    
O27   Zn7   S    
C51   C55   A    
C18   C38   S    
C170  H105  S    
C127  C131  A    
C165  C166  S    
C124  O40   A    
C61   C65   A    
C36   C191  S    
C161  C162  S    
C147  H50   S    
C94   C98   S    
C103  C107  S    
C3    O19   A    
O33   Zn5   S    
C176  H120  S    
C155  H73   S    
C120  O16   A    
C116  O48   A    
C169  C170  S    
C4    O20   A    
C173  H118  S    
O40   Zn4   S    
O15   Zn12  S    
O35   Zn7   S    
C102  H14   S    
C7    C143  A    
C175  C176  S    
C79   C173  S    
C67   C157  S    
C16   H132  S    
C171  H113  S    
C179  H141  S    
C31   C43   S    
C64   C68   A    
C71   C123  S    
C192  H173  S    
C23   C119  S    
C145  C146  S    
C12   N3    A    
C181  C182  S    
C53   C145  S    
C174  H115  S    
C157  H78   S    
O1    Zn1   S    
C153  H68   S    
C38   H2    S    
C85   C93   S    
C8    C128  A    
C190  H169  S    
C174  H116  S    
C87   C95   S    
O17   Zn5   S    
C69   C121  S    
C73   N10   A    
C130  H18   S    
C108  H24   S    
C151  H59   S    
O42   Zn6   S    
C152  H58   S    
C164  H91   S    
C166  H97   S    
C88   C104  S    
C158  H76   S    
C123  O43   A    
C22   C34   S    
C180  H140  S    
C81   C105  S    
C30   C34   S    
C8    C144  A    
C17   C37   S    
C48   O28   A    
C91   O35   A    
O14   Zn9   S    
C153  C154  S    
C125  C129  A    
C186  H159  S    
C97   C109  S    
C70   C122  S    
C189  C190  S    
C132  C136  A    
C176  H122  S    
C99   C111  S    
C144  H32   S    
C129  H17   S    
C77   C109  S    
C121  O41   A    
C157  H79   S    
O26   Zn6   S    
C187  C188  S    
C114  O46   A    
C84   C167  S    
C26   C30   S    
C168  H101  S    
C127  H39   S    
C86   C102  S    
C93   C97   S    
C165  H99   S    
O9    Zn9   S    
C159  H83   S    
C21   C25   S    
C160  H82   S    
C29   C41   S    
C18   C22   S    
C107  C111  S    
C1    O1    A    
C11   N4    A    
C24   C28   S    
C93   H125  S    
C163  C164  S    
C27   C181  S    
C146  H41   S    
O32   Zn4   S    
O5    Zn12  S    
C66   C70   A    
C119  O15   A    
C94   H126  S    
C174  H117  S    
C13   C17   S    
C64   H64   S    
C45   O25   A    
O16   Zn11  S    
C117  O13   A    
C15   C43   S    
C167  H104  S    
C122  O42   A    
C2    C42   S    
C96   C100  S    
C10   N6    A    
C191  H175  S    
C82   C106  S    
C37   C41   S    
C149  H55   S    
N11   N15   A    
C142  H30   S    
O28   Zn8   S    
C101  H13   S    
N9    N13   A    
C40   C44   S    
C150  H51   S    
C18   H34   S    
C5    C125  A    
C152  H56   S    
C90   O34   A    
O48   Zn10  S    
C7    C127  A    
C187  H166  S    
C59   C76   S    
C81   C85   S    
C58   C62   A    
C83   C87   S    
C88   C96   S    
C98   C110  S    
C73   N13   A    
C149  C150  S    
C10   C133  S    
C80   C84   S    
C146  H43   S    
C13   C41   S    
N1    N2    A    
C15   C19   S    
C62   H62   S    
C86   C113  S    
N12   N16   A    
C80   C175  S    
C117  O9    A    
C54   C58   A    
C165  H98   S    
C124  O44   A    
C138  H26   S    
C126  C130  A    
C161  H88   S    
C45   O21   A    
C56   C151  S    
C30   H154  S    
C191  C192  S    
C163  H94   S    
C76   N16   A    
C177  H137  S    
C99   H11   S    
C173  C174  S    
C114  O6    A    
O45   Zn11  S    
C97   H9    S    
C6    C142  A    
C175  H123  S    
C189  H171  S    
C35   C189  S    
C100  H12   S    
C190  H168  S    
C162  H85   S    
C51   H7    S    
C160  H80   S    
C172  H111  S    
C2    O2    A    
C148  H46   S    
C188  H163  S    
C104  H16   S    
C182  H145  S    
O30   Zn2   S    
C156  H71   S    
C181  H146  S    
C26   C179  S    
C40   H4    S    
C157  C158  S    
C6    C126  A    
C154  H67   S    
C166  H96   S    
C138  C142  A    
C53   C57   A    
C92   C112  S    
C4    C44   S    
C170  H107  S    
C82   C86   S    
C5    C45   S    
C31   H155  S    
C56   C60   A    
C32   H156  S    
C7    C47   S    
C35   C39   S    
C192  H172  S    
C8    C48   S    
C79   C95   S    
O13   Zn10  S    
C74   N9    A    
O6    Zn11  S    
C150  H53   S    
C77   C81   S    
C52   H8    S    
C24   C36   S    
C170  H106  S    
C87   C116  S    
C185  H161  S    
C123  O39   A    
O25   Zn5   S    
C100  C112  S    
C121  O37   A    
C183  H151  S    
C1    O17   A    
C141  H29   S    
O23   Zn3   S    
C32   C36   S    
C104  C108  S    
C33   C37   S    
C177  C178  S    
C48   O24   A    
C155  H74   S    
C137  C141  A    
C91   O31   A    
C140  C144  A    
C89   O29   A    
C179  C180  S    
C145  H45   S    
C189  H170  S    
C49   H5    S    
C60   C75   S    
C55   C149  S    
C13   H129  S    
C178  H133  S    
N7    N8    A    
C98   C102  S    
O38   Zn2   S    
C79   C83   S    
C98   H10   S    
N5    N6    A    
C105  C109  S    
O2    Zn2   S    
C65   C69   A    
C77   C93   S    
C84   C108  S    
C105  H21   S    
C33   C185  S    
C67   C71   A    
C54   C147  S    
C108  C112  S    
C147  C148  S    
C92   O32   A    
C22   C26   S    
C148  H48   S    
C10   N1    A    
C183  C184  S    
C30   C42   S    
C83   C165  S    
C75   N15   A    
C16   C28   S    
C168  H100  S    
C151  H60   S    
C89   C109  S    
C152  H57   S    
O46   Zn12  S    
C164  H90   S    
C14   C18   S    
C178  H134  S    
C132  H20   S    
C185  C186  S    
C20   H36   S    
C180  H139  S    
C3    C43   S    
C11   N7    A    
O22   Zn2   S    
C38   C42   S    
C9    N5    A    
C34   C187  S    
C95   H127  S    
C12   N8    A    
C125  H37   S    
C29   H153  S    
C91   C111  S    
O11   Zn11  S    
C179  H142  S    
C86   C94   S    
C173  H119  S    
C20   C24   S    
C176  H121  S    
C147  H49   S    
O18   Zn6   S    
C3    O3    A    
C184  H148  S    
C23   C27   S    
C80   C96   S    
C159  H84   S    
C137  H25   S    
C14   H130  S    
C16   C20   S    
C14   C42   S    
O7    Zn10  S    
C9    C134  S    
C184  H149  S    
C140  H28   S    
C63   H63   S    
O41   Zn5   S    
C139  C143  A    
C128  C132  A    
O39   Zn3   S    
C101  C105  S    
C63   C67   A    
C160  H81   S    
O43   Zn7   S    
C36   C40   S    
C182  H144  S    
C192  H174  S    
C96   H128  S    
C146  H42   S    
O31   Zn3   S    
C57   C74   S    
C153  H69   S    
C50   H6    S    
C131  C135  A    
C5    C141  A    
C4    O4    A    
O20   Zn8   S    
C32   C44   S    
C68   C159  S    
C78   C110  S    
C191  H176  S    
C82   C163  S    
C19   C39   S    
C115  O47   A    
C150  H52   S    
C113  O45   A    
C164  H92   S    
C129  C133  A    
C119  O11   A    
C90   C110  S    
O10   Zn10  S    
C85   C101  S    
C158  H75   S    
C183  H152  S    
C186  H157  S    
C106  C110  S    
C6    C46   S    
C34   C38   S    
C134  C138  A    
O44   Zn8   S    
O3    Zn3   S    
C23   C35   S    
C79   C111  S    
C118  O14   A    
C37   H1    S    
C75   N12   A    
C76   N11   A    
C154  H66   S    
C103  H15   S    
C61   H61   S    
C169  H108  S    
C171  C172  S    
C83   C107  S    
C102  C106  S    
C31   C35   S    
C169  H109  S    
C175  H124  S    
N10   N14   A    
C177  H136  S    
C65   C153  S    
C131  H19   S    
C168  H102  S    
C39   H3    S    
O12   Zn12  S    
C89   O33   A    
O34   Zn6   S    
C97   C101  S    
C52   C56   A    
C58   C73   S    
