data_mof_unit_28849.cif
_audit_creation_date              2013-03-05T15:55:20-0500
_audit_creation_method            fapswitch 2.2
_symmetry_space_group_name_H-M    P1
_symmetry_Int_Tables_number       1
_space_group_crystal_system       triclinic
_cell_length_a                    12.334054
_cell_length_b                    13.196432
_cell_length_c                    13.867851
_cell_angle_alpha                 105.177392
_cell_angle_beta                  73.99647
_cell_angle_gamma                 116.373469
_cell_volume                      1918.28586339

loop_
_atom_site_label
_atom_site_type_symbol
_atom_site_description
_atom_site_fract_x
_atom_site_fract_y
_atom_site_fract_z
_atom_type_partial_charge
O1    O     O_R   0.025040 0.682470 0.528790 -0.529322
O2    O     O_R   0.194310 0.640150 0.490130 -0.611923
C1    C     C_R   0.143871 0.714004 0.514147 0.782354
O3    O     O_R   0.903380 0.524130 0.659910 -0.552113
O4    O     O_R   0.072660 0.481800 0.621240 -0.599949
C2    C     C_R   0.984406 0.504287 0.686365 0.829065
Cu1   Cu    Cu3+1 0.899780 0.525060 0.522890 1.023523
Cu2   Cu    Cu3+1 0.100220 0.474940 0.477110 0.938991
O5    O     O_R   0.805690 0.359850 0.509870 -0.528243
O6    O     O_R   0.974960 0.317530 0.471210 -0.594147
O7    O     O_R   0.927340 0.518200 0.378760 -0.586062
O8    O     O_R   0.096620 0.475870 0.340090 -0.587422
C3    C     C_R   0.855891 0.286499 0.489379 0.845207
C4    C     C_R   0.015716 0.495896 0.313645 0.799968
C5    C     C_1   0.024974 0.493726 0.208467 -0.162095
C6    C     C_2   0.041151 0.489986 0.014408 -0.155192
C7    C     C_2   0.959844 0.511368 0.985648 -0.152721
C8    C     C_1   0.967810 0.509149 0.880189 0.029278
C9    C     C_1   0.032950 0.491880 0.119850 0.012319
C10   C     C_1   0.975492 0.506924 0.791555 -0.122714
H1    H     H_    0.886925 0.530446 0.041025 0.161406
H2    H     H_    0.114048 0.470872 0.959027 0.165232
C11   C     C_R   0.730592 0.978523 0.374128 -0.177045
H3    H     H_    0.909891 0.113107 0.368081 0.169022
H4    H     H_    0.550233 0.796600 0.300534 0.144375
H5    H     H_    0.762545 0.923366 0.311460 0.149647
C12   C     C_R   0.774009 0.164314 0.479351 -0.141993
C13   C     C_R   0.183347 0.901929 0.628637 0.343296
C14   C     C_R   0.269196 0.989203 0.683963 -0.200498
C15   C     C_R   0.394172 0.018979 0.647669 -0.175201
C16   C     C_R   0.437737 0.972288 0.548879 0.093588
C17   C     C_R   0.351859 0.875089 0.497234 0.038709
C18   C     C_R   0.564430 0.015342 0.501680 -0.018026
C19   C     C_R   0.605344 0.945480 0.416212 0.115282
C20   C     C_R   0.520248 0.846994 0.369034 -0.204987
C21   C     C_R   0.395274 0.817180 0.404676 -0.153936
C22   C     C_R   0.649963 0.128362 0.530474 0.269627
C23   C     C_R   0.814750 0.086589 0.406811 -0.229864
C24   C     C_R   0.224523 0.835677 0.540664 -0.213146
H6    H     H_    0.454972 0.077920 0.698997 0.203138
H7    H     H_    0.239076 0.033596 0.756562 0.190386
H8    H     H_    0.333060 0.747077 0.359357 0.160609
C25   C     C_R   0.637567 0.672203 0.663017 -0.268769
H9    H     H_    0.811238 0.688759 0.682911 0.181744
H10   H     H_    0.435449 0.707854 0.695432 0.156159
H11   H     H_    0.631858 0.738498 0.727192 0.156305
N1    N     N_R   0.748810 0.563010 0.557590 -0.194402
C26   C     C_R   0.252162 0.351722 0.363949 0.090088
C27   C     C_R   0.351447 0.319731 0.333694 -0.244314
C28   C     C_R   0.450710 0.375972 0.384559 -0.157497
C29   C     C_R   0.451726 0.465354 0.467043 0.003174
C30   C     C_R   0.347446 0.494895 0.495559 0.288791
C31   C     C_R   0.551298 0.525793 0.522683 -0.026381
C32   C     C_R   0.543583 0.613229 0.605780 0.151911
C33   C     C_R   0.441715 0.640875 0.632038 -0.262641
C34   C     C_R   0.345942 0.583013 0.578364 -0.167896
C35   C     C_R   0.658801 0.503532 0.500225 0.092501
C36   C     C_R   0.739417 0.644889 0.638003 0.154178
N2    N     N_R   0.250540 0.437620 0.443020 -0.207022
H12   H     H_    0.672844 0.439182 0.438062 0.123570
H13   H     H_    0.175596 0.307611 0.323949 0.127543
H14   H     H_    0.524891 0.347457 0.358041 0.143002
H15   H     H_    0.351461 0.251069 0.270576 0.151932
H16   H     H_    0.271891 0.610054 0.605369 0.201372
N3    N     N_R   0.609442 0.211763 0.600394 0.104823
O9    O     O_R   0.657182 0.264953 0.681695 -0.372692
O10   O     O_R   0.533862 0.242504 0.577828 -0.360953
N4    N     N_R   0.055151 0.877849 0.665738 0.116054
O11   O     O_R   0.011039 0.881266 0.762756 -0.394300
O12   O     O_R   0.989713 0.877338 0.606171 -0.354705

loop_
_geom_bond_atom_site_label_1
_geom_bond_atom_site_label_2
_geom_bond_distance
_ccdc_geom_bond_type
C7    C8    1.431885 S    
C11   H5    1.084059 S    
O4    Cu2   1.917498 S    
H3    C23   1.083520 S    
C33   C34   1.385037 A    
C34   H16   1.064322 S    
C14   C15   1.386169 A    
C27   H15   1.082566 S    
C30   N2    1.385624 A    
C19   C20   1.392930 A    
N1    C35   1.366488 A    
C11   C23   1.386520 A    
C2    C10   1.424660 S    
C25   C32   1.400667 A    
C21   H8    1.081860 S    
C16   C17   1.417874 A    
C25   C36   1.387398 A    
Cu2   O8    1.916245 S    
C11   C19   1.398169 A    
C6    H2    1.086811 S    
C16   C18   1.426550 A    
O2    C1    1.304712 A    
C15   H6    1.077146 S    
Cu1   Cu2   2.705531 S    
O6    C3    1.305240 A    
C31   C32   1.417478 A    
C3    C12   1.467114 S    
N1    C36   1.354086 A    
C5    C9    1.200140 T    
C26   H13   1.081564 S    
C15   C16   1.411207 A    
C14   H7    1.083112 S    
H4    C20   1.084185 S    
O3    Cu1   1.916246 S    
C17   C21   1.410419 A    
O3    C2    1.298798 A    
C26   C27   1.391804 A    
C13   N4    1.434042 S    
O8    C4    1.298809 A    
C18   C22   1.421056 A    
C28   C29   1.410030 A    
C8    C10   1.200023 T    
N3    O9    1.301946 A    
Cu2   N2    2.027214 S    
C6    C9    1.431982 S    
O4    C2    1.301233 A    
C28   H14   1.077897 S    
O7    C4    1.301292 A    
O2    Cu2   1.947852 S    
C25   H11   1.083912 S    
C12   C23   1.398371 A    
C1    C24   1.475253 S    
C29   C30   1.430713 A    
Cu1   O5    1.947853 S    
C18   C19   1.421552 A    
C29   C31   1.438685 A    
H10   C33   1.084645 S    
C26   N2    1.358291 A    
Cu2   O6    1.959090 S    
C27   C28   1.393593 A    
C17   C24   1.420089 A    
Cu1   O7    1.917498 S    
C12   C22   1.414816 A    
N4    O12   1.301439 A    
C31   C35   1.418411 A    
C32   C33   1.389155 A    
C13   C14   1.392155 A    
C35   H12   1.076717 S    
O5    C3    1.300985 A    
C4    C5    1.424970 S    
C13   C24   1.415998 A    
O1    C1    1.304168 A    
O1    Cu1   1.959088 S    
N4    O11   1.301776 A    
C7    H1    1.086794 S    
C30   C34   1.406926 A    
C22   N3    1.436662 S    
H9    C36   1.080521 S    
C6    C7    1.332401 D    
N3    O10   1.301853 A    
C20   C21   1.384936 A    
Cu1   N1    2.039097 S    
