data_mof_unit_33631.cif
_audit_creation_date              2012-12-10T16:57:49-0500
_audit_creation_method            fapswitch 2.2
_symmetry_space_group_name_H-M    P1
_symmetry_Int_Tables_number       1
_space_group_crystal_system       triclinic
_cell_length_a                    7.753243
_cell_length_b                    8.563034
_cell_length_c                    19.185033
_cell_angle_alpha                 91.371514
_cell_angle_beta                  85.323014
_cell_angle_gamma                 93.79749
_cell_volume                      1266.47043459

loop_
_atom_site_label
_atom_site_type_symbol
_atom_type_description
_atom_site_fract_x
_atom_site_fract_y
_atom_site_fract_z
_atom_type_partial_charge
C1    C     C_R   0.545946 0.794853 0.498201 0.970320
C2    C     C_R   0.633063 0.415832 0.177656 0.013825
C3    C     C_R   0.494423 0.508061 0.854789 0.054925
C4    C     C_R   0.505557 0.491878 0.145211 0.054926
C5    C     C_R   0.626602 0.435895 0.814374 -0.172973
C6    C     C_R   0.373416 0.564104 0.185624 -0.173012
C7    C     C_R   0.631918 0.436926 0.742078 -0.200264
C8    C     C_R   0.368107 0.563093 0.257920 -0.200257
C9    C     C_R   0.503572 0.508437 0.709726 -0.043727
C10   C     C_R   0.496422 0.491546 0.290275 -0.043720
C11   C     C_R   0.505145 0.496352 0.069770 0.248382
C12   C     C_R   0.454054 0.205147 0.501799 0.970320
C13   C     C_R   0.494841 0.503586 0.930229 0.248429
C14   C     C_R   0.221608 0.658119 0.862279 0.125835
C15   C     C_R   0.090580 0.565693 0.899464 -0.159124
C16   C     C_R   0.952729 0.636053 0.936656 -0.142658
C17   C     C_R   0.944811 0.798631 0.937042 -0.106067
C18   C     C_R   0.074406 0.891265 0.899785 -0.136092
C19   C     C_R   0.212086 0.821334 0.862157 -0.135732
C20   C     C_R   0.778281 0.341701 0.137729 0.125816
C21   C     C_R   0.787609 0.178462 0.137801 -0.135665
C22   C     C_R   0.925234 0.108456 0.100170 -0.136084
C23   C     C_2   0.570176 0.958359 0.497145 -0.384990
C24   C     C_R   0.054962 0.201038 0.062959 -0.106080
C25   C     C_R   0.047235 0.363638 0.063395 -0.142628
C26   C     C_R   0.909442 0.434073 0.100591 -0.159170
C27   C     C_2   0.429824 0.041641 0.502855 -0.384991
C28   C     C_R   0.501593 0.502272 0.634315 0.865704
C29   C     C_R   0.498406 0.497726 0.365685 0.865702
C30   C     C_R   0.373003 0.583364 0.749727 -0.239742
C31   C     C_R   0.626949 0.416558 0.250277 -0.239729
C32   C     C_R   0.366878 0.584065 0.822349 0.013828
H1    H     H_    0.274125 0.639704 0.724442 0.159209
H2    H     H_    0.986047 0.618046 0.552647 0.190851
H3    H     H_    0.095132 0.439528 0.899467 0.124317
H4    H     H_    0.852209 0.564501 0.965262 0.158802
H5    H     H_    0.838165 0.852715 0.966084 0.143893
H6    H     H_    0.068111 0.017196 0.900024 0.130380
H7    H     H_    0.311810 0.894132 0.833430 0.130430
H8    H     H_    0.687779 0.105706 0.166490 0.130439
H9    H     H_    0.931382 0.982508 0.099892 0.130371
H10   H     H_    0.161565 0.146895 0.033913 0.143879
H11   H     H_    0.147853 0.435149 0.034822 0.158771
H12   H     H_    0.725799 0.360183 0.275565 0.159206
H13   H     H_    0.905033 0.560254 0.100625 0.124321
H14   H     H_    0.726454 0.379299 0.838867 0.149301
H15   H     H_    0.273590 0.620731 0.161130 0.149290
H16   H     H_    0.733784 0.379098 0.711587 0.157754
H17   H     H_    0.266272 0.620968 0.288410 0.157748
H18   H     H_    0.702639 0.009640 0.491682 0.179781
H19   H     H_    0.297361 0.990360 0.508318 0.179780
H20   H     H_    0.013952 0.381954 0.447353 0.190855
N1    N     N_R   0.535053 0.371539 0.961047 -0.191342
N2    N     N_R   0.464932 0.628399 0.038952 -0.191348
N3    N     N_R   0.539382 0.367767 0.029917 -0.168042
N4    N     N_R   0.460602 0.632171 0.970082 -0.168033
N5    N     N_2   0.950330 0.457950 0.481240 -0.175115
N6    N     N_2   0.049670 0.542050 0.518760 -0.175117
O1    O     O_R   0.389250 0.738570 0.504600 -0.613389
O2    O     O_R   0.610750 0.261430 0.495400 -0.613389
O3    O     O_R   0.678400 0.711620 0.492580 -0.627993
O4    O     O_R   0.321600 0.288380 0.507420 -0.627994
O5    O     O_R   0.355380 0.513500 0.607880 -0.619360
O6    O     O_R   0.644620 0.486500 0.392120 -0.619354
O7    O     O_R   0.644530 0.486550 0.595850 -0.627356
O8    O     O_R   0.355470 0.513450 0.404150 -0.627352
Zn1   Zn    Zn3+2 0.306930 0.517990 0.508030 0.940248
Zn2   Zn    Zn3+2 0.693070 0.482010 0.491970 0.940251

loop_
_geom_bond_atom_site_label_1
_geom_bond_atom_site_label_2
_ccdc_geom_bond_type
C2    C4    A    
C24   C25   A    
C5    C7    A    
N2    N4    A    
C1    O3    A    
C23   C27   D    
C12   O4    A    
C5    H14   S    
C3    C13   S    
C3    C5    A    
C13   N4    A    
C7    H16   S    
O7    Zn2   S    
N1    N3    A    
C17   C18   A    
C18   H6    S    
C29   O6    A    
C17   H5    S    
C21   C22   A    
C16   H4    S    
C4    C11   S    
C30   C32   A    
C24   H10   S    
C11   N2    A    
C10   C29   S    
C25   H11   S    
N5    N6    D    
C21   H8    S    
C20   C26   A    
C9    C30   A    
O6    Zn2   S    
C22   C24   A    
C4    C6    A    
C6    H15   S    
C27   H19   S    
C1    C23   S    
C13   N1    A    
C1    O1    A    
C3    C32   A    
O5    Zn1   S    
C8    H17   S    
C22   H9    S    
O4    Zn1   S    
C31   H12   S    
N5    Zn2   S    
C2    C20   S    
C29   O8    A    
C12   O2    A    
C28   O5    A    
C7    C9    A    
N6    Zn1   S    
C11   N3    A    
C20   C21   A    
O2    Zn2   S    
C19   H7    S    
C18   C19   A    
H20   N5    S    
C15   H3    S    
O8    Zn1   S    
H2    N6    S    
O3    Zn2   S    
C14   C15   A    
C2    C31   A    
C23   H18   S    
C6    C8    A    
C12   C27   S    
C30   H1    S    
O1    Zn1   S    
C25   C26   A    
C28   O7    A    
C14   C19   A    
C8    C10   A    
C15   C16   A    
C9    C28   S    
C14   C32   S    
C16   C17   A    
C26   H13   S    
C10   C31   A    
