data_mof_unit_11528.cif
_audit_creation_date              2012-12-10T17:19:22-0500
_audit_creation_method            fapswitch 2.2
_symmetry_space_group_name_H-M    P1
_symmetry_Int_Tables_number       1
_space_group_crystal_system       triclinic
_cell_length_a                    18.661597
_cell_length_b                    18.697536
_cell_length_c                    33.819067
_cell_angle_alpha                 90.344621
_cell_angle_beta                  90.157952
_cell_angle_gamma                 89.578348
_cell_volume                      11799.7713706

loop_
_atom_site_label
_atom_site_type_symbol
_atom_type_description
_atom_site_fract_x
_atom_site_fract_y
_atom_site_fract_z
_atom_type_partial_charge
C1    C     C_R   0.631982 0.977853 0.520684 0.439264
C2    C     C_R   0.868283 0.510677 0.979170 0.438699
C3    C     C_R   0.501670 0.933333 0.958191 -0.056925
C4    C     C_R   0.933841 0.506095 0.041498 -0.058372
C5    C     C_R   0.066300 0.492235 0.958461 -0.058124
C6    C     C_R   0.501872 0.933200 0.041357 -0.058175
C7    C     C_R   0.498771 0.066588 0.958658 -0.059292
C8    C     C_R   0.999907 0.500044 0.644688 0.785609
C9    C     C_R   0.000089 0.499942 0.355312 0.786849
C10   C     C_R   0.499977 0.999817 0.644710 0.775188
C11   C     C_R   0.499999 0.000173 0.355299 0.779829
C12   C     C_R   0.499914 0.000025 0.144671 0.784139
C13   C     C_R   0.500162 0.132478 0.021115 0.435710
C14   C     C_R   0.500095 0.999936 0.855329 0.783863
C15   C     C_R   1.000000 0.499826 0.144710 0.780689
C16   C     C_R   0.999967 0.500184 0.855294 0.778249
C17   C     C_R   0.859961 0.640391 0.750056 0.832347
C18   C     C_R   0.138831 0.358587 0.250617 0.830018
C19   C     C_R   0.358515 0.860636 0.749156 0.828403
C20   C     C_R   0.641955 0.138426 0.251323 0.828907
C21   C     C_R   0.140338 0.360280 0.749935 0.815788
C22   C     C_R   0.859814 0.639966 0.249999 0.823138
C23   C     C_R   0.642735 0.137369 0.748246 0.826407
C24   C     C_R   0.500939 0.867263 0.978894 0.436993
C25   C     C_R   0.358962 0.860752 0.250387 0.832247
C26   C     C_R   0.858187 0.361338 0.248818 0.829165
C27   C     C_R   0.142592 0.637472 0.752282 0.826113
C28   C     C_R   0.361154 0.141407 0.249375 0.831634
C29   C     C_R   0.639458 0.859533 0.750038 0.817334
C30   C     C_R   0.141767 0.638576 0.248921 0.831603
C31   C     C_R   0.859611 0.359805 0.749855 0.825029
C32   C     C_R   0.639999 0.860143 0.249987 0.814788
C33   C     C_R   0.359637 0.139599 0.750005 0.817927
C34   C     C_R   0.284057 0.614124 0.712609 -0.363245
C35   C     C_R   0.868215 0.511827 0.020307 0.439119
C36   C     C_R   0.730906 0.369307 0.302740 -0.375114
C37   C     C_R   0.334251 0.227300 0.680112 -0.367800
C38   C     C_R   0.664166 0.769961 0.319460 -0.376022
C39   C     C_R   0.753654 0.346564 0.682574 -0.385600
C40   C     C_R   0.266425 0.634920 0.305113 -0.362239
C41   C     C_R   0.659424 0.763183 0.680833 -0.386137
C42   C     C_R   0.358295 0.259499 0.310994 -0.383620
C43   C     C_R   0.238506 0.343528 0.317274 -0.375049
C44   C     C_R   0.760082 0.656596 0.681866 -0.379389
C45   C     C_R   0.349718 0.753695 0.314767 -0.373837
C46   C     C_R   0.131942 0.486491 0.979660 0.440126
C47   C     C_R   0.656547 0.237635 0.680647 -0.374655
C48   C     C_R   0.759414 0.658610 0.318028 -0.391576
C49   C     C_R   0.240392 0.340800 0.681417 -0.400414
C50   C     C_R   0.650594 0.249340 0.314853 -0.382568
C51   C     C_R   0.361838 0.733448 0.693340 -0.373153
C52   C     C_R   0.770492 0.128947 0.198515 -0.372666
C53   C     C_R   0.227989 0.871944 0.800980 -0.374265
C54   C     C_R   0.841215 0.738854 0.181847 -0.382793
C55   C     C_R   0.163901 0.269518 0.819295 -0.375475
C56   C     C_R   0.243074 0.856931 0.188113 -0.384293
C57   C     C_R   0.501444 0.867144 0.020107 0.436806
C58   C     C_R   0.774240 0.127202 0.799879 -0.364407
C59   C     C_R   0.141780 0.240778 0.188835 -0.383711
C60   C     C_R   0.844146 0.746538 0.818222 -0.381244
C61   C     C_R   0.721220 0.829401 0.821433 -0.371779
C62   C     C_R   0.260935 0.155867 0.182868 -0.372026
C63   C     C_R   0.848598 0.251444 0.813784 -0.371002
C64   C     C_R   0.149905 0.745474 0.184062 -0.376685
C65   C     C_R   0.262043 0.160629 0.818769 -0.391737
C66   C     C_R   0.731564 0.835999 0.180670 -0.383848
C67   C     C_R   0.144612 0.754040 0.813744 -0.375392
C68   C     C_R   0.499464 0.132636 0.979904 0.436072
C69   C     C_R   0.850230 0.249143 0.185791 -0.382512
C70   C     C_R   0.333313 0.609981 0.681320 0.490730
C71   C     C_R   0.686872 0.365571 0.336021 0.486956
C72   C     C_R   0.337675 0.277794 0.649908 0.508549
C73   C     C_R   0.662272 0.719866 0.349819 0.503070
C74   C     C_R   0.701972 0.344684 0.652525 0.485537
C75   C     C_R   0.309291 0.641722 0.338927 0.483608
C76   C     C_R   0.660240 0.712824 0.650167 0.496758
C77   C     C_R   0.353225 0.309038 0.342016 0.486335
C78   C     C_R   0.294112 0.352881 0.344430 0.500268
C79   C     C_R   0.310113 0.740544 0.724805 0.042376
C80   C     C_R   0.710154 0.658679 0.650975 0.498613
C81   C     C_R   0.354476 0.698827 0.342370 0.480384
C82   C     C_R   0.651930 0.291224 0.652229 0.495661
C83   C     C_R   0.710151 0.663566 0.349052 0.490420
C84   C     C_R   0.290095 0.335043 0.650436 0.485441
C85   C     C_R   0.645183 0.306204 0.341513 0.494352
C86   C     C_R   0.373641 0.669468 0.672372 0.478986
C87   C     C_R   0.814487 0.132303 0.165197 0.486781
C88   C     C_R   0.180008 0.871733 0.832790 0.482977
C89   C     C_R   0.838013 0.788736 0.151247 0.494894
C90   C     C_R   0.697766 0.249575 0.281385 0.041637
C91   C     C_R   0.162723 0.219603 0.849815 0.502556
C92   C     C_R   0.193797 0.853898 0.157212 0.484691
C93   C     C_R   0.814805 0.134207 0.834648 0.483663
C94   C     C_R   0.146659 0.191097 0.157895 0.485308
C95   C     C_R   0.832780 0.792527 0.850830 0.489851
C96   C     C_R   0.770104 0.832638 0.852851 0.503166
C97   C     C_R   0.205334 0.146666 0.155722 0.501670
C98   C     C_R   0.854122 0.195627 0.840902 0.486361
C99   C     C_R   0.145030 0.799866 0.156204 0.488939
C100  C     C_R   0.212511 0.164845 0.849660 0.491495
C101  C     C_R   0.244237 0.296699 0.716255 0.047102
C102  C     C_R   0.782264 0.837312 0.150422 0.497040
C103  C     C_R   0.135843 0.813933 0.837952 0.490544
C104  C     C_R   0.855775 0.191893 0.159353 0.493311
C105  C     C_R   0.500286 0.997676 0.520759 -0.021882
C106  C     C_R   0.500419 0.997567 0.479250 -0.022173
C107  C     C_R   0.000242 0.499801 0.520775 -0.022788
C108  C     C_R   0.000158 0.499935 0.479221 -0.022479
C109  C     C_R   0.000019 0.499091 0.020741 -0.024547
C110  C     C_R   0.000115 0.498959 0.979248 -0.024745
C111  C     C_R   0.500450 0.999839 0.020714 -0.021405
C112  C     C_R   0.368647 0.014679 0.479045 0.435576
C113  C     C_R   0.755704 0.703090 0.283416 0.044533
C114  C     C_R   0.500334 0.999924 0.979283 -0.021159
C115  C     C_R   0.704401 0.240778 0.714023 0.040125
C116  C     C_R   0.302698 0.751553 0.280735 0.036790
C117  C     C_R   0.755310 0.701787 0.716631 0.040242
C118  C     C_R   0.245025 0.299263 0.282631 0.030521
C119  C     C_R   0.304799 0.252581 0.280279 0.051019
C120  C     C_R   0.701832 0.755709 0.716288 0.042576
C121  C     C_R   0.256155 0.692135 0.277201 0.039520
C122  C     C_R   0.754888 0.297391 0.715328 0.048567
C123  C     C_R   0.704393 0.759023 0.283866 0.034930
C124  C     C_R   0.009778 0.631856 0.521076 0.433303
C125  C     C_R   0.294659 0.239731 0.715878 0.030788
C126  C     C_R   0.743340 0.309372 0.276836 0.041938
C127  C     C_R   0.265442 0.680841 0.731655 0.038613
C128  C     C_R   0.803085 0.249242 0.219285 0.041879
C129  C     C_R   0.196366 0.750209 0.782344 0.043041
C130  C     C_R   0.741540 0.795546 0.216148 0.035905
C131  C     C_R   0.256367 0.203494 0.783663 0.044481
C132  C     C_R   0.198997 0.746706 0.217064 0.041091
C133  C     C_R   0.805419 0.247371 0.778526 0.037509
C134  C     C_R   0.254725 0.200493 0.217401 0.030396
C135  C     C_R   0.990883 0.367816 0.478946 0.433760
C136  C     C_R   0.737195 0.792805 0.784942 0.027620
C137  C     C_R   0.796667 0.745295 0.783992 0.048284
C138  C     C_R   0.195112 0.247402 0.219668 0.050981
C139  C     C_R   0.761465 0.186258 0.773768 0.037628
C140  C     C_R   0.248445 0.804059 0.219001 0.048757
C141  C     C_R   0.204753 0.259179 0.783815 0.033756
C142  C     C_R   0.796758 0.743466 0.216540 0.041911
C143  C     C_R   0.242709 0.809467 0.777211 0.043474
C144  C     C_R   0.757675 0.189371 0.223992 0.040967
C145  C     C_R   0.301401 0.804320 0.749162 -0.112956
C146  C     C_R   0.368340 0.016316 0.520196 0.437182
C147  C     C_R   0.701305 0.191777 0.253139 -0.110411
C148  C     C_R   0.197648 0.305109 0.750035 -0.096743
C149  C     C_R   0.803298 0.696041 0.249949 -0.098748
C150  C     C_R   0.704912 0.187367 0.744596 -0.112620
C151  C     C_R   0.301508 0.805766 0.250483 -0.106396
C152  C     C_R   0.804008 0.697135 0.750100 -0.103822
C153  C     C_R   0.192428 0.299641 0.251448 -0.104470
C154  C     C_R   0.307468 0.200280 0.248532 -0.105238
C155  C     C_R   0.693429 0.801541 0.750415 -0.094426
C156  C     C_R   0.201056 0.691918 0.247026 -0.110999
C157  C     C_R   0.631896 0.977668 0.479542 0.440340
C158  C     C_R   0.804827 0.301768 0.748247 -0.104846
C159  C     C_R   0.696215 0.804128 0.250013 -0.093692
C160  C     C_R   0.302238 0.194560 0.749811 -0.096235
C161  C     C_R   0.799346 0.307335 0.247411 -0.110228
C162  C     C_R   0.203432 0.688938 0.756612 -0.114764
C163  C     C_R   0.435949 0.009557 0.582766 -0.192280
C164  C     C_R   0.564168 0.986965 0.417072 -0.193114
C165  C     C_R   0.997849 0.435021 0.582679 -0.193266
C166  C     C_R   0.002354 0.564832 0.417345 -0.190263
C167  C     C_R   0.564291 0.988362 0.583071 -0.192936
C168  C     C_R   0.991128 0.367616 0.520041 0.434783
C169  C     C_R   0.436517 0.011815 0.417180 -0.195891
C170  C     C_R   0.001860 0.564764 0.583051 -0.190874
C171  C     C_R   0.998137 0.435090 0.416917 -0.191676
C172  C     C_R   0.935882 0.508133 0.082796 -0.193426
C173  C     C_R   0.064203 0.491227 0.917143 -0.192765
C174  C     C_R   0.504462 0.935107 0.082642 -0.193626
C175  C     C_R   0.495767 0.064733 0.917386 -0.188759
C176  C     C_R   0.064127 0.491143 0.082997 -0.192799
C177  C     C_R   0.936040 0.508875 0.917077 -0.193970
C178  C     C_R   0.495621 0.064700 0.083005 -0.192997
C179  C     C_R   0.009342 0.632140 0.479994 0.433584
C180  C     C_R   0.504862 0.935152 0.916962 -0.199815
C181  C     C_R   0.500079 0.999344 0.602609 0.025857
C182  C     C_R   0.500328 0.000310 0.397395 0.021781
C183  C     C_R   0.999733 0.499955 0.602576 0.019464
C184  C     C_R   0.000270 0.499949 0.397427 0.019517
C185  C     C_R   0.999984 0.499500 0.102616 0.022363
C186  C     C_R   0.000103 0.500449 0.897380 0.023299
C187  C     C_R   0.499787 0.999940 0.102607 0.021388
C188  C     C_R   0.500309 0.999935 0.897393 0.021935
C189  C     C_R   0.566435 0.987958 0.541758 -0.060636
C190  C     C_R   0.131880 0.487916 0.020835 0.438636
C191  C     C_R   0.434435 0.007576 0.458364 -0.060229
C192  C     C_R   0.004601 0.566139 0.541801 -0.057758
C193  C     C_R   0.995790 0.433582 0.458188 -0.057148
C194  C     C_R   0.433984 0.007949 0.541461 -0.059418
C195  C     C_R   0.566422 0.987601 0.458412 -0.059560
C196  C     C_R   0.995904 0.433373 0.541354 -0.056960
C197  C     C_R   0.004434 0.566408 0.458661 -0.057651
C198  C     C_R   0.066165 0.492958 0.041694 -0.059730
C199  C     C_R   0.933999 0.505749 0.958303 -0.058810
C200  C     C_R   0.499152 0.066430 0.041792 -0.058578
H1    H     H_    0.264062 0.563106 0.722697 0.186601
H2    H     H_    0.803248 0.621178 0.674949 0.201585
H3    H     H_    0.380968 0.798302 0.324085 0.206707
H4    H     H_    0.625277 0.191922 0.672852 0.199408
H5    H     H_    0.801078 0.621376 0.324584 0.203479
H6    H     H_    0.197895 0.377764 0.674554 0.204388
H7    H     H_    0.620086 0.204361 0.324093 0.199190
H8    H     H_    0.391406 0.776733 0.680989 0.204213
H9    H     H_    0.752121 0.075961 0.204455 0.202629
H10   H     H_    0.247615 0.924374 0.794889 0.202829
H11   H     H_    0.876629 0.695695 0.174876 0.201534
H12   H     H_    0.749398 0.422339 0.297253 0.202907
H13   H     H_    0.135693 0.317916 0.826478 0.193026
H14   H     H_    0.273283 0.904093 0.185328 0.209053
H15   H     H_    0.758332 0.073148 0.792955 0.200064
H16   H     H_    0.093239 0.270150 0.186480 0.209165
H17   H     H_    0.890144 0.712112 0.823369 0.200614
H18   H     H_    0.669277 0.853284 0.827316 0.181925
H19   H     H_    0.310201 0.131154 0.173745 0.194023
H20   H     H_    0.876058 0.298295 0.823913 0.203413
H21   H     H_    0.117291 0.701410 0.175535 0.205010
H22   H     H_    0.305745 0.125611 0.825570 0.201185
H23   H     H_    0.359476 0.176681 0.672820 0.186833
H24   H     H_    0.683183 0.864221 0.173487 0.195470
H25   H     H_    0.113031 0.710042 0.823557 0.202900
H26   H     H_    0.880647 0.294042 0.176355 0.199231
H27   H     H_    0.389282 0.018169 0.601088 0.109254
H28   H     H_    0.610470 0.977018 0.398680 0.111397
H29   H     H_    0.998203 0.387367 0.600687 0.117080
H30   H     H_    0.002032 0.612515 0.399358 0.118463
H31   H     H_    0.610779 0.980779 0.601716 0.107423
H32   H     H_    0.389732 0.023996 0.399368 0.125599
H33   H     H_    0.000772 0.612794 0.601154 0.123575
H34   H     H_    0.636577 0.818752 0.326579 0.191823
H35   H     H_    0.998853 0.387206 0.398722 0.120440
H36   H     H_    0.889217 0.516018 0.101074 0.113699
H37   H     H_    0.110785 0.484063 0.898749 0.109293
H38   H     H_    0.509943 0.887703 0.100655 0.115982
H39   H     H_    0.490066 0.112171 0.899415 0.117472
H40   H     H_    0.110904 0.483357 0.101260 0.116967
H41   H     H_    0.889274 0.518021 0.898960 0.118880
H42   H     H_    0.489526 0.112380 0.101076 0.120552
H43   H     H_    0.510925 0.887574 0.898819 0.117358
H44   H     H_    0.045432 0.783229 0.860545 0.320618
H45   H     H_    0.792087 0.386713 0.676918 0.205477
H46   H     H_    0.938175 0.230099 0.131749 0.321806
H47   H     H_    0.251012 0.081012 0.876639 0.324897
H48   H     H_    0.737495 0.918120 0.123785 0.325793
H49   H     H_    0.940223 0.230344 0.866834 0.331929
H50   H     H_    0.053116 0.771343 0.135072 0.325197
H51   H     H_    0.710643 0.899024 0.884077 0.329387
H52   H     H_    0.249298 0.064049 0.130221 0.319914
H53   H     H_    0.063122 0.228358 0.129816 0.321694
H54   H     H_    0.921620 0.763300 0.878043 0.325329
H55   H     H_    0.229544 0.939410 0.130984 0.326948
H56   H     H_    0.249975 0.578582 0.300390 0.201300
H57   H     H_    0.782735 0.044366 0.856922 0.339627
H58   H     H_    0.925072 0.753394 0.125936 0.323433
H59   H     H_    0.079803 0.262972 0.875494 0.325146
H60   H     H_    0.788002 0.038058 0.145670 0.330929
H61   H     H_    0.208220 0.965556 0.852359 0.326673
H62   H     H_    0.562315 0.268179 0.368743 0.321495
H63   H     H_    0.460770 0.701978 0.646596 0.332357
H64   H     H_    0.745986 0.577869 0.375343 0.324020
H65   H     H_    0.254790 0.420968 0.623741 0.332819
H66   H     H_    0.445895 0.726811 0.364445 0.332643
H67   H     H_    0.626936 0.808659 0.673861 0.196472
H68   H     H_    0.560470 0.260771 0.630555 0.333148
H69   H     H_    0.249133 0.434418 0.370493 0.320720
H70   H     H_    0.749461 0.574197 0.624084 0.324445
H71   H     H_    0.582213 0.758859 0.620909 0.323949
H72   H     H_    0.437656 0.272720 0.369673 0.322213
H73   H     H_    0.732850 0.433250 0.627909 0.327975
H74   H     H_    0.272078 0.556240 0.363851 0.328050
H75   H     H_    0.418970 0.231051 0.624018 0.325796
H76   H     H_    0.581314 0.765398 0.376223 0.324875
H77   H     H_    0.312747 0.510006 0.668801 0.325043
H78   H     H_    0.407099 0.230506 0.313155 0.208982
H79   H     H_    0.714069 0.459100 0.356115 0.324240
H80   H     H_    0.697414 0.970424 0.567229 0.329094
H81   H     H_    0.303345 0.999783 0.433990 0.327938
H82   H     H_    0.037675 0.693462 0.565832 0.327600
H83   H     H_    0.965150 0.305765 0.433969 0.328737
H84   H     H_    0.302171 0.018983 0.566081 0.329794
H85   H     H_    0.698306 0.978668 0.433649 0.327914
H86   H     H_    0.969561 0.304545 0.564945 0.329931
H87   H     H_    0.030790 0.695268 0.435104 0.330156
H88   H     H_    0.196981 0.499210 0.066511 0.329545
H89   H     H_    0.188986 0.367838 0.326355 0.194449
H90   H     H_    0.803276 0.498691 0.933561 0.329512
H91   H     H_    0.521139 0.195866 0.066432 0.329467
H92   H     H_    0.481363 0.803553 0.933439 0.329263
H93   H     H_    0.802491 0.504786 0.065977 0.326058
H94   H     H_    0.197497 0.488669 0.933763 0.329281
H95   H     H_    0.486235 0.802782 0.065392 0.329768
H96   H     H_    0.514778 0.196947 0.934617 0.330689
O1    O     O_3   0.000000 0.500000 0.750000 -0.480352
O2    O     O_R   0.060740 0.500000 0.337440 -0.647475
O3    O     O_3   0.499966 0.199721 0.962457 -0.668879
O4    O     O_R   0.500000 0.939260 0.662560 -0.650181
O5    O     O_R   0.500000 0.060740 0.337440 -0.647833
O6    O     O_R   0.560740 0.000000 0.162560 -0.641840
O7    O     O_R   0.439260 0.000000 0.837440 -0.641759
O8    O     O_R   0.000000 0.560740 0.162560 -0.650907
O9    O     O_R   0.000000 0.439260 0.837440 -0.650936
O10   O     O_R   0.439260 0.000000 0.162560 -0.650918
O11   O     O_R   0.560740 0.000000 0.837440 -0.643791
O12   O     O_R   0.000000 0.439260 0.162560 -0.648489
O13   O     O_3   0.000000 0.500000 0.250000 -0.478912
O14   O     O_R   0.000000 0.560740 0.837440 -0.650111
O15   O     O_R   0.853850 0.585450 0.727070 -0.655369
O16   O     O_R   0.146150 0.414550 0.272930 -0.656859
O17   O     O_R   0.414550 0.853850 0.727070 -0.653411
O18   O     O_R   0.585450 0.146150 0.272930 -0.657058
O19   O     O_R   0.146150 0.414550 0.727070 -0.667238
O20   O     O_R   0.853850 0.585450 0.272930 -0.663641
O21   O     O_R   0.585450 0.146150 0.727070 -0.648428
O22   O     O_R   0.414550 0.853850 0.272930 -0.653011
O23   O     O_R   0.853850 0.414550 0.272930 -0.656632
O24   O     O_3   0.500000 0.000000 0.750000 -0.480863
O25   O     O_R   0.146150 0.585450 0.727070 -0.645886
O26   O     O_R   0.414550 0.146150 0.272930 -0.661179
O27   O     O_R   0.585450 0.853850 0.727070 -0.656485
O28   O     O_R   0.146150 0.585450 0.272930 -0.656903
O29   O     O_R   0.853850 0.414550 0.727070 -0.657175
O30   O     O_R   0.585450 0.853850 0.272930 -0.651062
O31   O     O_R   0.414550 0.146150 0.727070 -0.646113
O32   O     O_R   0.353850 0.085450 0.227070 -0.653499
O33   O     O_R   0.646150 0.914550 0.772930 -0.653987
O34   O     O_R   0.914550 0.353850 0.227070 -0.656899
O35   O     O_3   0.500000 0.000000 0.250000 -0.479255
O36   O     O_R   0.085450 0.646150 0.772930 -0.656763
O37   O     O_R   0.646150 0.914550 0.227070 -0.660844
O38   O     O_R   0.353850 0.085450 0.772930 -0.664074
O39   O     O_R   0.085450 0.646150 0.227070 -0.653985
O40   O     O_R   0.914550 0.353850 0.772930 -0.651224
O41   O     O_R   0.353850 0.914550 0.772930 -0.655321
O42   O     O_R   0.646150 0.085450 0.227070 -0.655053
O43   O     O_R   0.914550 0.646150 0.772930 -0.656581
O44   O     O_R   0.085450 0.353850 0.227070 -0.661080
O45   O     O_R   0.646150 0.085450 0.772930 -0.652041
O46   O     O_R   0.060740 0.500000 0.662560 -0.636398
O47   O     O_R   0.353850 0.914550 0.227070 -0.661348
O48   O     O_R   0.085450 0.353850 0.772930 -0.649728
O49   O     O_R   0.914550 0.646150 0.227070 -0.654271
O50   O     O_3   0.083732 0.817981 0.866909 -0.657528
O51   O     O_3   0.902300 0.192021 0.127691 -0.653760
O52   O     O_3   0.215040 0.119255 0.881674 -0.657045
O53   O     O_3   0.775843 0.882397 0.118405 -0.658892
O54   O     O_3   0.899322 0.198749 0.873257 -0.657968
O55   O     O_3   0.094300 0.800498 0.126506 -0.656012
O56   O     O_3   0.756793 0.872375 0.886813 -0.662635
O57   O     O_R   0.939260 0.500000 0.337440 -0.641699
O58   O     O_3   0.208868 0.097406 0.125190 -0.657642
O59   O     O_3   0.095786 0.186498 0.128235 -0.648775
O60   O     O_3   0.879744 0.795335 0.882698 -0.651382
O61   O     O_3   0.191440 0.903532 0.127105 -0.649443
O62   O     O_3   0.818913 0.081344 0.862980 -0.653418
O63   O     O_3   0.885592 0.787466 0.119985 -0.654347
O64   O     O_3   0.116851 0.226309 0.881622 -0.662621
O65   O     O_3   0.820378 0.077229 0.138030 -0.651881
O66   O     O_3   0.172752 0.928391 0.858863 -0.655848
O67   O     O_3   0.598492 0.305881 0.373092 -0.653643
O68   O     O_R   0.500000 0.060740 0.662560 -0.653792
O69   O     O_3   0.425293 0.662962 0.643166 -0.650604
O70   O     O_3   0.711150 0.617002 0.380651 -0.654602
O71   O     O_3   0.289420 0.381355 0.618676 -0.652030
O72   O     O_3   0.403743 0.698763 0.372876 -0.656214
O73   O     O_3   0.601326 0.290819 0.622297 -0.654992
O74   O     O_3   0.290289 0.401774 0.375142 -0.656167
O75   O     O_3   0.712450 0.611458 0.619339 -0.656864
O76   O     O_3   0.615484 0.717742 0.617626 -0.661030
O77   O     O_3   0.404331 0.314021 0.371547 -0.647603
O78   O     O_3   0.699807 0.393393 0.621994 -0.656583
O79   O     O_R   0.500000 0.939260 0.337440 -0.651664
O80   O     O_3   0.311903 0.590212 0.367956 -0.650280
O81   O     O_3   0.383288 0.269290 0.617986 -0.661512
O82   O     O_3   0.617129 0.727334 0.381889 -0.661620
O83   O     O_3   0.344671 0.548238 0.659143 -0.659951
O84   O     O_3   0.681280 0.420146 0.363493 -0.654204
O85   O     O_3   0.698990 0.967969 0.538058 -0.665710
O86   O     O_3   0.302171 0.020858 0.460785 -0.667900
O87   O     O_3   0.014709 0.698201 0.539466 -0.668054
O88   O     O_3   0.986446 0.301310 0.460660 -0.668434
O89   O     O_3   0.301332 0.026163 0.537323 -0.668587
O90   O     O_R   0.939260 0.500000 0.662560 -0.653313
O91   O     O_3   0.698437 0.966274 0.462049 -0.663556
O92   O     O_3   0.987048 0.300779 0.537614 -0.669583
O93   O     O_3   0.013426 0.698995 0.462450 -0.669926
O94   O     O_3   0.198713 0.484243 0.038655 -0.670124
O95   O     O_3   0.801540 0.514729 0.961251 -0.668784
O96   O     O_3   0.502033 0.199256 0.039310 -0.669473
O97   O     O_3   0.499448 0.800395 0.960760 -0.668556
O98   O     O_3   0.801474 0.519518 0.037738 -0.663870
O99   O     O_3   0.198848 0.479593 0.962342 -0.669000
O100  O     O_3   0.501077 0.800053 0.037561 -0.668155
Zn1   Zn    Zn3+2 0.000000 0.586740 0.782740 0.953591
Zn2   Zn    Zn3+2 0.500000 0.913260 0.717260 0.951490
Zn3   Zn    Zn3+2 0.913260 0.500000 0.282740 0.955170
Zn4   Zn    Zn3+2 0.086740 0.500000 0.717260 0.957924
Zn5   Zn    Zn3+2 0.500000 0.913260 0.282740 0.954598
Zn6   Zn    Zn3+2 0.500000 0.086740 0.717260 0.955719
Zn7   Zn    Zn3+2 0.086740 0.500000 0.282740 0.956226
Zn8   Zn    Zn3+2 0.913260 0.500000 0.717260 0.957509
Zn9   Zn    Zn3+2 1.000000 0.413260 0.217260 0.952341
Zn10  Zn    Zn3+2 0.413260 0.000000 0.782740 0.955191
Zn11  Zn    Zn3+2 0.586740 0.000000 0.217260 0.954189
Zn12  Zn    Zn3+2 1.000000 0.413260 0.782740 0.954370
Zn13  Zn    Zn3+2 0.000000 0.586740 0.217260 0.954745
Zn14  Zn    Zn3+2 0.586740 0.000000 0.782740 0.959575
Zn15  Zn    Zn3+2 0.413260 0.000000 0.217260 0.955666
Zn16  Zn    Zn3+2 0.500000 0.086740 0.282740 0.953001

loop_
_geom_bond_atom_site_label_1
_geom_bond_atom_site_label_2
_ccdc_geom_bond_type
C28   C154  S    
C101  C148  A    
C27   O25   A    
C13   C200  A    
C87   O65   S    
C81   O72   S    
C124  C192  A    
H87   O93   S    
C83   O70   S    
O46   Zn4   S    
O1    Zn12  S    
C15   C185  S    
C52   C144  A    
C92   O61   S    
C30   O39   A    
C63   C133  A    
C63   C98   A    
C27   C162  S    
C8    O90   A    
H47   O52   S    
C56   C140  A    
C42   C119  A    
C11   O5    A    
C34   H1    S    
C20   O18   A    
O41   Zn10  S    
O24   Zn14  S    
C100  O52   S    
C118  C153  A    
O40   Zn12  S    
C133  C158  A    
C39   C74   A    
O57   Zn3   S    
C9    O57   A    
C76   O76   S    
C175  C188  A    
C50   C90   A    
C82   O73   S    
C34   C127  A    
C93   O62   S    
C12   O10   A    
C135  C168  A    
H66   O72   S    
C91   C100  A    
C146  C194  A    
C38   C123  A    
C36   C71   A    
C29   C155  S    
O36   Zn1   S    
C30   C156  S    
O32   Zn15  S    
C29   O27   A    
C165  H29   S    
O48   Zn12  S    
C67   C129  A    
C163  H27   S    
C65   H22   S    
C172  H36   S    
C36   C126  A    
C164  C195  A    
C116  C121  A    
C165  C183  A    
C105  C189  A    
C31   O29   A    
C166  C184  A    
C6    C174  A    
C94   C97   A    
C120  C155  A    
C177  C186  A    
H63   O69   S    
O24   Zn10  S    
C130  C159  A    
O1    Zn1   S    
C135  O88   S    
O49   Zn13  S    
C45   H3    S    
C11   O79   A    
C190  O94   S    
C122  C158  A    
C31   O40   A    
C128  C144  A    
C9    O2    A    
C72   C84   A    
O1    Zn4   S    
C1    O85   S    
C133  C139  A    
C77   O77   S    
C35   O98   S    
O47   Zn15  S    
C41   H67   S    
H68   O73   S    
H60   O65   S    
O25   Zn4   S    
C79   C127  A    
C146  O89   S    
C139  C150  A    
C32   O37   A    
C157  C195  A    
C70   O83   S    
H54   O60   S    
C169  H32   S    
C104  O51   S    
H79   O84   S    
O79   Zn5   S    
C5    C46   A    
C17   O15   A    
C26   C161  S    
C112  O86   S    
C163  C194  A    
C18   O16   A    
C62   H19   S    
C170  C183  A    
C9    C184  S    
H72   O77   S    
C41   C76   A    
C123  C159  A    
H58   O63   S    
C47   H4    S    
C41   C120  A    
C169  C182  A    
C43   C118  A    
C40   H56   S    
C60   C95   A    
O31   Zn6   S    
C49   H6    S    
O4    Zn2   S    
H46   O51   S    
O29   Zn8   S    
O27   Zn2   S    
H44   O50   S    
H57   O62   S    
C73   C83   A    
C27   O36   A    
C112  C191  A    
H59   O64   S    
H65   O71   S    
C177  H41   S    
O8    Zn13  S    
C121  C156  A    
C163  C181  A    
C6    C111  A    
C14   O11   A    
C80   O75   S    
C171  C193  A    
C69   H26   S    
O37   Zn11  S    
C125  C160  A    
C67   C103  A    
C171  H35   S    
C15   O12   A    
O35   Zn5   S    
H48   O53   S    
C39   C122  A    
H90   O95   S    
C49   C84   A    
O44   Zn9   S    
H64   O70   S    
C174  C187  A    
C173  H37   S    
C5    C110  A    
O13   Zn7   S    
H84   O89   S    
C108  C197  A    
O35   Zn16  S    
C64   C99   A    
C69   C128  A    
C53   H10   S    
O22   Zn5   S    
C101  C125  A    
H49   O54   S    
C172  C185  A    
C56   H14   S    
C131  C141  A    
C33   C160  S    
C7    C68   A    
C44   H2    S    
C3    C24   A    
C94   O59   S    
C144  C147  A    
C107  C196  A    
C26   O34   A    
O68   Zn6   S    
C105  C194  A    
C167  C189  A    
C170  H33   S    
O90   Zn8   S    
C2    C199  A    
C21   C148  S    
C23   O21   A    
C37   H23   S    
C73   O82   S    
C136  C155  A    
C59   C138  A    
C85   O67   S    
C12   C187  S    
C30   O28   A    
O13   Zn3   S    
H77   O83   S    
C3    C180  A    
C90   C147  A    
C111  C200  A    
C62   C97   A    
C91   O64   S    
O30   Zn5   S    
C179  O93   S    
O28   Zn7   S    
C8    C183  S    
O19   Zn4   S    
C127  C162  A    
H80   O85   S    
C33   O38   A    
C29   O33   A    
C169  C191  A    
H74   O80   S    
O38   Zn10  S    
C180  H43   S    
H95   O100  S    
C4    C172  A    
O24   Zn6   S    
C5    C173  A    
C76   C80   A    
C176  C198  A    
C136  C137  A    
C3    C114  A    
H91   O96   S    
C55   H13   S    
C18   O44   A    
C48   C83   A    
C25   C151  S    
C45   C116  A    
C175  H39   S    
C43   H89   S    
C132  C156  A    
C130  C142  A    
C51   C79   A    
C22   C149  S    
C71   O84   S    
O14   Zn1   S    
C16   O9    A    
C57   O100  S    
C42   C77   A    
C177  C199  A    
C17   O43   A    
C116  C151  A    
C92   C99   A    
C13   C68   A    
C1    C189  A    
C2    C35   A    
C28   O26   A    
O11   Zn14  S    
C55   C141  A    
C88   O66   S    
C4    C109  A    
C168  O92   S    
C176  C185  A    
C77   C78   A    
C43   C78   A    
C47   C115  A    
O17   Zn2   S    
C7    C114  A    
C58   C93   A    
C129  C162  A    
C49   C101  A    
C42   H78   S    
C13   O96   S    
C67   H25   S    
C124  C179  A    
C55   C91   A    
C180  C188  A    
C50   C85   A    
C64   C132  A    
O12   Zn9   S    
C48   H5    S    
H52   O58   S    
C137  C152  A    
C14   O7    A    
C59   C94   A    
C126  C161  A    
H51   O56   S    
C34   C70   A    
H76   O82   S    
O42   Zn11  S    
C32   C159  S    
C58   H15   S    
O6    Zn11  S    
C4    C35   A    
C142  C149  A    
C166  H30   S    
C6    C57   A    
C109  C198  A    
C11   C182  S    
C74   C82   A    
O2    Zn7   S    
C51   C86   A    
C8    O46   A    
C25   O22   A    
C16   O14   A    
C61   C96   A    
C33   O31   A    
C171  C184  A    
C44   C80   A    
C61   H18   S    
C23   O45   A    
C117  C120  A    
O43   Zn1   S    
C59   H16   S    
C96   O56   S    
C63   H20   S    
O21   Zn6   S    
O39   Zn13  S    
C14   C188  S    
H83   O88   S    
C10   O68   A    
C113  C123  A    
O7    Zn10  S    
C140  C151  A    
C157  O91   S    
H94   O99   S    
H73   O78   S    
C178  C187  A    
C138  C153  A    
C54   C142  A    
C23   C150  S    
C21   O19   A    
C119  C154  A    
H93   O98   S    
C22   O20   A    
C52   H9    S    
C17   C152  S    
C103  O50   S    
C165  C196  A    
H55   O61   S    
C190  C198  A    
C24   C57   A    
C178  C200  A    
C65   C100  A    
C38   H34   S    
C106  C195  A    
C129  C143  A    
C132  C140  A    
C105  C106  A    
C40   C75   A    
O16   Zn7   S    
C166  C197  A    
C109  C110  A    
H88   O94   S    
O15   Zn8   S    
H85   O91   S    
O1    Zn8   S    
H86   O92   S    
C128  C161  A    
O26   Zn16  S    
C112  C146  A    
C111  C114  A    
C45   C81   A    
C31   C158  S    
C164  C182  A    
C10   O4    A    
C87   C104  A    
O35   Zn15  S    
C37   C72   A    
C10   C181  S    
O23   Zn3   S    
C134  C154  A    
C61   C136  A    
C48   C113  A    
C178  H42   S    
C58   C139  A    
C26   O23   A    
O13   Zn13  S    
C89   C102  A    
C66   C102  A    
C95   C96   A    
H81   O86   S    
C79   C145  A    
C167  C181  A    
C40   C121  A    
C19   C145  S    
C124  O87   S    
C15   O8    A    
C174  H38   S    
O20   Zn3   S    
C72   O81   S    
C107  C192  A    
C99   O55   S    
H70   O75   S    
C170  C192  A    
C47   C82   A    
C118  C119  A    
C141  C148  A    
C39   H45   S    
C75   O80   S    
O35   Zn11  S    
C7    C175  A    
O33   Zn14  S    
C78   O74   S    
H62   O67   S    
O34   Zn9   S    
C24   O97   S    
C53   C88   A    
H92   O97   S    
C2    O95   S    
C60   C137  A    
H82   O87   S    
C50   H7    S    
C115  C122  A    
C71   C85   A    
O13   Zn9   S    
C106  C191  A    
C46   C190  A    
C65   C131  A    
C22   O49   A    
C37   C125  A    
H61   O66   S    
H96   O3    S    
C90   C126  A    
C68   O3    S    
C173  C186  A    
C113  C149  A    
C54   C89   A    
C66   H24   S    
C51   H8    S    
C75   C81   A    
C179  C197  A    
C19   O41   A    
C46   O99   S    
C53   C143  A    
C20   O42   A    
C135  C193  A    
O10   Zn15  S    
C107  C108  A    
C97   O58   S    
C20   C147  S    
C164  H28   S    
O5    Zn16  S    
C19   O17   A    
C18   C153  S    
O18   Zn16  S    
C98   O54   S    
C54   H11   S    
C36   H12   S    
C70   C86   A    
C25   O47   A    
C88   C103  A    
C69   C104  A    
C143  C145  A    
H75   O81   S    
O9    Zn12  S    
C176  H40   S    
C110  C199  A    
C95   O60   S    
C52   C87   A    
H69   O74   S    
C102  O53   S    
C134  C138  A    
C167  H31   S    
H50   O55   S    
C62   C134  A    
C1    C157  A    
C21   O48   A    
C16   C186  S    
C60   H17   S    
C89   O63   S    
C28   O32   A    
O24   Zn2   S    
C44   C117  A    
C115  C150  A    
C64   H21   S    
C117  C152  A    
O45   Zn14  S    
C131  C160  A    
C74   O78   S    
C84   O71   S    
C56   C92   A    
C86   O69   S    
C12   O6    A    
C168  C196  A    
H71   O76   S    
C32   O30   A    
C108  C193  A    
H53   O59   S    
C93   C98   A    
C66   C130  A    
C38   C73   A    
