data_mof_unit_24532.cif
_audit_creation_date              2013-03-05T15:53:06-0500
_audit_creation_method            fapswitch 2.2
_symmetry_space_group_name_H-M    P1
_symmetry_Int_Tables_number       1
_space_group_crystal_system       triclinic
_cell_length_a                    10.019088
_cell_length_b                    10.743416
_cell_length_c                    15.654732
_cell_angle_alpha                 95.988905
_cell_angle_beta                  70.450788
_cell_angle_gamma                 89.237236
_cell_volume                      1577.16807678

loop_
_atom_site_label
_atom_site_type_symbol
_atom_site_description
_atom_site_fract_x
_atom_site_fract_y
_atom_site_fract_z
_atom_type_partial_charge
O1    O     O_R   0.385310 0.683220 0.500000 -0.624759
O2    O     O_R   0.614640 0.683250 0.500010 -0.631673
C1    C     C_R   0.505485 0.736356 0.488018 0.936377
O3    O     O_R   0.319840 0.499980 0.632240 -0.601582
O4    O     O_R   0.549160 0.500000 0.632250 -0.534252
C2    C     C_R   0.413814 0.489180 0.673391 0.970675
Zn1   Zn    Zn3+2 0.346880 0.499980 0.499990 1.007561
Zn2   Zn    Zn3+2 0.653120 0.500020 0.500010 1.105841
O5    O     O_R   0.385360 0.316750 0.499990 -0.601414
O6    O     O_R   0.614690 0.316780 0.500000 -0.532206
O7    O     O_R   0.450840 0.500000 0.367750 -0.627182
O8    O     O_R   0.680160 0.500020 0.367760 -0.578825
C3    C     C_R   0.497424 0.260331 0.506178 0.900655
C4    C     C_R   0.587136 0.500608 0.326287 0.868880
C5    C     C_R   0.367795 0.462876 0.769390 -0.216458
C6    C     C_R   0.632778 0.520516 0.231488 -0.048856
C7    C     C_R   0.179555 0.426118 0.909701 0.331363
C8    C     C_R   0.223419 0.457022 0.819750 -0.236367
C9    C     C_R   0.468351 0.435813 0.810634 0.260043
C10   C     C_R   0.423804 0.445451 0.906142 -0.011509
C11   C     C_R   0.280803 0.424458 0.955013 -0.022421
C12   C     C_R   0.518047 0.478553 0.953889 0.063178
C13   C     C_R   0.478787 0.465972 0.047262 0.074624
C14   C     C_R   0.343751 0.421633 0.091737 -0.176308
C15   C     C_R   0.245969 0.402542 0.046585 -0.066630
C16   C     C_R   0.643664 0.537253 0.912471 -0.146203
C17   C     C_R   0.719104 0.599021 0.962506 0.196223
C18   C     C_R   0.681717 0.588399 0.056448 0.050691
C19   C     C_R   0.572068 0.506074 0.094386 0.034621
C20   C     C_R   0.749481 0.650887 0.114597 0.231916
C21   C     C_R   0.726380 0.613316 0.200591 -0.173466
C22   C     C_R   0.556906 0.467461 0.178975 -0.184925
H1    H     H_    0.143339 0.372315 0.085212 0.238849
H2    H     H_    0.485811 0.395450 0.205495 0.172826
H3    H     H_    0.774627 0.662246 0.246055 0.164319
H4    H     H_    0.144570 0.471340 0.788001 0.234216
H5    H     H_    0.306188 0.411825 0.163670 0.187130
H6    H     H_    0.680433 0.543533 0.841104 0.242241
H7    H     H_    0.724651 0.876981 0.478614 0.182127
C23   C     C_R   0.299400 0.882705 0.428918 -0.163229
H8    H     H_    0.321435 0.791668 0.388858 0.162490
C24   C     C_R   0.173381 0.949256 0.439897 -0.122049
H9    H     H_    0.098198 0.908618 0.410379 0.195892
C25   C     C_R   0.136418 0.059384 0.499847 -0.132597
H10   H     H_    0.030176 0.100499 0.522018 0.238263
C26   C     C_R   0.233471 0.112341 0.537250 0.196807
C27   C     C_R   0.374160 0.060031 0.507860 0.029394
C28   C     C_R   0.395934 0.934983 0.468907 0.074883
C29   C     C_R   0.512853 0.866807 0.473313 -0.168102
C30   C     C_R   0.628891 0.928515 0.482347 -0.210939
C31   C     C_R   0.623134 0.056728 0.499372 0.354262
C32   C     C_R   0.494807 0.125549 0.512259 -0.230805
C33   C     C_R   0.808783 0.707553 0.592394 0.363957
C34   C     C_R   0.869805 0.821530 0.599043 -0.280868
H11   H     H_    0.804099 0.907601 0.622588 0.239081
C35   C     C_R   0.003096 0.822852 0.604483 -0.255723
H12   H     H_    0.033882 0.910588 0.631380 0.216418
C36   C     C_R   0.083183 0.711875 0.593304 0.252860
C37   C     C_R   0.044339 0.598254 0.551224 0.023520
C38   C     C_R   0.898804 0.596865 0.551738 -0.019345
N1    N     N_R   0.856800 0.501200 0.500850 -0.164702
C39   C     C_R   0.961326 0.422576 0.438891 0.335737
C40   C     C_R   0.101617 0.417566 0.442711 0.132342
N2    N     N_R   0.142390 0.501280 0.500880 -0.141438
I1    I     I_    0.860908 0.819215 0.097111 -0.187707
I2    I     I_    0.143969 0.236711 0.658402 -0.195589
N3    N     N_R   0.749775 0.113044 0.503049 0.216309
O9    O     O_R   0.751314 0.174718 0.578694 -0.326398
O10   O     O_R   0.869292 0.076625 0.439178 -0.411423
N4    N     N_R   0.939113 0.366964 0.357810 0.231707
O11   O     O_R   0.847228 0.282164 0.360878 -0.290516
O12   O     O_R   0.004738 0.408654 0.280279 -0.409055
N5    N     N_R   0.668112 0.704617 0.655758 0.255377
O13   O     O_R   0.654762 0.653780 0.729347 -0.391000
O14   O     O_R   0.574962 0.793942 0.662067 -0.379956
I3    I     I_    0.196998 0.748187 0.686399 -0.166403
I4    I     I_    0.250549 0.284101 0.347405 -0.236572
I5    I     I_    0.896255 0.685578 0.880295 -0.164389
N6    N     N_R   0.032739 0.402352 0.953333 0.213044
O15   O     O_R   0.965274 0.448114 0.037249 -0.398815
O16   O     O_R   0.960979 0.348602 0.905448 -0.327788
N7    N     N_R   0.593243 0.356595 0.760387 0.222311
O17   O     O_R   0.707324 0.401013 0.706991 -0.311065
O18   O     O_R   0.599968 0.242496 0.780088 -0.307501

loop_
_geom_bond_atom_site_label_1
_geom_bond_atom_site_label_2
_geom_bond_distance
_ccdc_geom_bond_type
C5    C8    1.402665 A    
N5    O13   1.293619 A    
C9    C10   1.401885 A    
C17   I5    2.106254 S    
C1    C29   1.442679 S    
C36   I3    2.140526 S    
C33   C34   1.385621 A    
C6    C21   1.389015 A    
C5    C9    1.408231 A    
C16   C17   1.387912 A    
C13   C19   1.417434 A    
C18   C19   1.428531 A    
C26   I2    2.118410 S    
C19   C22   1.389396 A    
C20   C21   1.391455 A    
O7    C4    1.301558 A    
C7    N6    1.438561 S    
C35   H12   1.082940 S    
C39   N4    1.432464 S    
C23   C28   1.410349 A    
O5    C3    1.305507 A    
C2    C5    1.476262 S    
C26   C27   1.416104 A    
C13   C14   1.413523 A    
N4    O11   1.296799 A    
C9    N7    1.442932 S    
Zn2   N1    2.045325 S    
C23   C24   1.392825 A    
C37   C38   1.455741 A    
N5    O14   1.302453 A    
C24   C25   1.393493 A    
O3    Zn1   1.996080 S    
C33   C38   1.435978 A    
C25   C26   1.392234 A    
C14   H5    1.078429 S    
C34   C35   1.366477 A    
C31   C32   1.417890 A    
C14   C15   1.392852 A    
O3    C2    1.316649 A    
N6    O16   1.301441 A    
C16   H6    1.062747 S    
C30   C31   1.372119 A    
C36   C37   1.446335 A    
C7    C11   1.419949 A    
C40   N2    1.375795 A    
C38   N1    1.390347 A    
O1    C1    1.303957 A    
C22   H2    1.077981 S    
Zn1   O7    1.981819 S    
N3    O9    1.300148 A    
C39   C40   1.427262 A    
C3    C32   1.461040 S    
C27   C28   1.398755 A    
Zn2   O8    1.996078 S    
C7    C8    1.404847 A    
C37   N2    1.398174 A    
C31   N3    1.428758 S    
C23   H8    1.082687 S    
O8    C4    1.302251 A    
C29   C30   1.386404 A    
N7    O18   1.301101 A    
C4    C6    1.439438 S    
C24   H9    1.082197 S    
C25   H10   1.075580 S    
C40   I4    2.124920 S    
Zn1   O5    2.000870 S    
C11   C15   1.403583 A    
C34   H11   1.083779 S    
C28   C29   1.398297 A    
O1    Zn1   2.010943 S    
C33   N5    1.429489 S    
O2    Zn2   2.000871 S    
C10   C12   1.415121 A    
O6    C3    1.308693 A    
O4    Zn2   1.981818 S    
C27   C32   1.424623 A    
C6    C22   1.382216 A    
C18   C20   1.427751 A    
O2    C1    1.303811 A    
O4    C2    1.304800 A    
C35   C36   1.390323 A    
C21   H3    1.084202 S    
N1    C39   1.369936 A    
Zn1   N2    2.044034 S    
C20   I1    2.131708 S    
N6    O15   1.298643 A    
H7    C30   1.082601 S    
C10   C11   1.414198 A    
Zn2   O6    2.010942 S    
N7    O17   1.300475 A    
C12   C16   1.400873 A    
C17   C18   1.408407 A    
C12   C13   1.402671 A    
N4    O12   1.301253 A    
N3    O10   1.300519 A    
C8    H4    1.081785 S    
C15   H1    1.078043 S    
