data_mof_unit_18448.cif
_audit_creation_date              2013-03-05T15:52:31-0500
_audit_creation_method            fapswitch 2.2
_symmetry_space_group_name_H-M    P1
_symmetry_Int_Tables_number       1
_space_group_crystal_system       triclinic
_cell_length_a                    27.767992
_cell_length_b                    10.708344
_cell_length_c                    9.694839
_cell_angle_alpha                 89.254072
_cell_angle_beta                  90.120735
_cell_angle_gamma                 93.039814
_cell_volume                      2878.44962485

loop_
_atom_site_label
_atom_site_type_symbol
_atom_site_description
_atom_site_fract_x
_atom_site_fract_y
_atom_site_fract_z
_atom_type_partial_charge
O1    O     O_R   0.500000 0.319640 0.618810 -0.492252
O2    O     O_R   0.500000 0.319660 0.381240 -0.619101
C1    C     C_R   0.500703 0.263168 0.500572 0.822862
O3    O     O_R   0.430260 0.500010 0.618770 -0.499344
O4    O     O_R   0.430270 0.500030 0.381200 -0.567571
C2    C     C_R   0.407551 0.501623 0.499830 0.836098
Cu1   Cu    Cu3+1 0.500000 0.499990 0.640660 1.019077
Cu2   Cu    Cu3+1 0.500000 0.500010 0.359340 0.976095
O5    O     O_R   0.500000 0.680340 0.618760 -0.600334
O6    O     O_R   0.500000 0.680360 0.381190 -0.537207
O7    O     O_R   0.569730 0.499970 0.618800 -0.607727
O8    O     O_R   0.569740 0.499990 0.381230 -0.592228
C3    C     C_R   0.500661 0.736713 0.499575 0.762142
C4    C     C_R   0.592360 0.501089 0.500148 0.764468
C5    C     C_R   0.175893 0.380814 0.502186 0.596370
O9    O     O_2   0.200713 0.278595 0.528120 -0.421870
N1    N     N_R   0.201376 0.491451 0.477165 -0.475486
C6    C     C_R   0.179224 0.598414 0.445050 0.565253
C7    C     C_R   0.276163 0.510550 0.611341 -0.125362
C8    C     C_R   0.326700 0.514769 0.620052 0.139972
C9    C     C_R   0.330010 0.487145 0.370978 -0.236478
C10   C     C_R   0.279915 0.484066 0.364248 -0.087101
C11   C     C_R   0.252964 0.495260 0.484240 0.314104
C12   C     C_R   0.101233 0.486530 0.467792 -0.091686
C13   C     C_R   0.124627 0.374485 0.499501 -0.152071
C14   C     C_R   0.095654 0.262879 0.527103 0.445332
C15   C     C_R   0.128943 0.597984 0.438867 -0.061835
C16   C     C_R   0.354189 0.501799 0.498132 -0.071075
H1    H     H_    0.349774 0.477098 0.275924 0.196551
H2    H     H_    0.261939 0.472363 0.265670 0.156879
C17   C     C_R   0.645396 0.501488 0.500440 -0.114408
C18   C     C_R   0.970992 0.375634 0.473981 0.071093
C19   C     C_R   0.976888 0.605330 0.464134 0.037893
C20   C     C_R   0.948675 0.491421 0.472148 0.089903
C21   C     C_R   0.941313 0.264284 0.467502 -0.192541
C22   C     C_R   0.891295 0.267208 0.469295 -0.119750
C23   C     C_R   0.869114 0.380980 0.478709 -0.026484
C24   C     C_R   0.897743 0.493445 0.480632 -0.050006
C25   C     C_R   0.875460 0.607967 0.491846 -0.024910
C26   C     C_R   0.825000 0.607977 0.498832 0.612517
N2    N     N_R   0.797901 0.497605 0.496534 -0.453043
C27   C     C_R   0.818769 0.385299 0.485676 0.609975
C28   C     C_R   0.721394 0.501945 0.626841 0.477057
C29   C     C_R   0.671022 0.503273 0.625638 -0.266999
C30   C     C_R   0.670800 0.499381 0.375576 -0.216406
C31   C     C_R   0.720873 0.498578 0.375881 -0.175411
C32   C     C_R   0.746381 0.499758 0.500484 0.232575
O10   O     O_2   0.790835 0.278322 0.482269 -0.516286
C33   C     C_R   0.022010 0.375244 0.484425 -0.018975
C34   C     C_R   0.050126 0.488100 0.464724 0.055680
C35   C     C_R   0.027364 0.602641 0.440968 0.010134
C36   C     C_R   0.045506 0.265658 0.517856 -0.256934
H3    H     H_    0.651771 0.505387 0.722458 0.211318
H4    H     H_    0.870074 0.179497 0.464579 0.192906
H5    H     H_    0.955781 0.173356 0.457162 0.146840
H6    H     H_    0.024835 0.180869 0.543634 0.199407
O11   O     O_2   0.205998 0.705133 0.419441 -0.498737
C37   C     C_R   0.106255 0.706019 0.398708 -0.094248
H7    H     H_    0.254613 0.520137 0.703240 0.143157
H8    H     H_    0.127402 0.788861 0.365160 0.227336
C38   C     C_R   0.953937 0.717533 0.487934 -0.217564
C39   C     C_R   0.904047 0.719170 0.499076 -0.117800
O12   O     O_2   0.803123 0.717190 0.507242 -0.506003
C40   C     C_R   0.056308 0.708665 0.393884 0.123775
H9    H     H_    0.974181 0.804769 0.503594 0.162906
H10   H     H_    0.652058 0.498039 0.277485 0.185149
H11   H     H_    0.888031 0.807986 0.514563 0.190103
H12   H     H_    0.740070 0.496716 0.278880 0.161006
H13   H     H_    0.427698 0.104368 0.553595 0.176014
C41   C     C_R   0.589010 0.142196 0.435544 -0.156340
H14   H     H_    0.590706 0.243217 0.435376 0.132493
C42   C     C_R   0.630944 0.082614 0.403413 -0.103157
H15   H     H_    0.663758 0.137573 0.379141 0.169543
C43   C     C_R   0.630708 0.952573 0.402941 -0.111546
H16   H     H_    0.663331 0.906571 0.378219 0.164616
C44   C     C_R   0.588547 0.881479 0.434623 -0.179469
H17   H     H_    0.589961 0.780718 0.433697 0.122967
C45   C     C_R   0.545604 0.940141 0.466967 0.082507
C46   C     C_R   0.545893 0.071899 0.467580 0.085851
C47   C     C_R   0.502981 0.129471 0.501198 -0.145729
C48   C     C_R   0.460719 0.059094 0.532321 -0.052639
C49   C     C_R   0.460062 0.930229 0.533243 0.184713
C50   C     C_R   0.502340 0.870772 0.499727 -0.084054
C51   C     C_R   0.522485 0.724859 0.119657 0.450170
C52   C     C_R   0.559924 0.804127 0.067129 -0.294712
H18   H     H_    0.567714 0.894721 0.112956 0.187620
C53   C     C_R   0.578795 0.780330 0.936840 0.109106
C54   C     C_R   0.559243 0.678852 0.862044 -0.060850
H19   H     H_    0.570681 0.671404 0.757286 0.196557
C55   C     C_R   0.526262 0.591184 0.925164 0.047999
C56   C     C_R   0.518539 0.602097 0.069749 0.049630
N3    N     N_R   0.500460 0.501210 0.147910 -0.222483
C57   C     C_R   0.478169 0.405015 0.075503 0.163026
C58   C     C_R   0.474166 0.409157 0.928429 0.490577
N4    N     N_R   0.500480 0.501290 0.852040 -0.261913
N5    N     N_3   0.037233 0.811547 0.318742 -0.567559
H20   H     H_    0.034336 0.887543 0.384075 0.250664
H21   H     H_    0.004281 0.786156 0.272031 0.241221
N6    N     N_3   0.415681 0.861387 0.565334 -0.553183
H22   H     H_    0.421081 0.805627 0.652702 0.246394
H23   H     H_    0.406456 0.803025 0.482705 0.226439
N7    N     N_3   0.456502 0.298491 0.146223 -0.473504
H24   H     H_    0.482373 0.234531 0.171101 0.270877
H25   H     H_    0.434252 0.323697 0.226505 0.270161
S1    S     S_3+6 0.467312 0.800624 0.130292 0.031362
O13   O     O_2   0.474350 0.920127 0.208946 -0.306729
O14   O     O_2   0.451402 0.831695 0.986106 -0.257036
O15   O     O_3   0.424032 0.707265 0.204883 -0.524568
H26   H     H_    0.395212 0.757880 0.206953 0.369571
N8    N     N_3   0.613370 0.866370 0.873191 -0.557587
H27   H     H_    0.643617 0.874033 0.937525 0.245677
H28   H     H_    0.598521 0.954031 0.867808 0.249397
S2    S     S_3+6 0.437668 0.278871 0.858130 0.066013
O16   O     O_2   0.468446 0.167550 0.858408 -0.257257
O17   O     O_2   0.395718 0.249513 0.953418 -0.268371
O18   O     O_3   0.412923 0.290903 0.701398 -0.525669
H29   H     H_    0.382702 0.237421 0.703998 0.368358
S3    S     S_3+6 0.118583 0.116204 0.575963 0.050648
O19   O     O_2   0.148464 0.069362 0.460255 -0.229217
O20   O     O_2   0.149140 0.131712 0.703424 -0.211076
O21   O     O_3   0.073542 0.008909 0.610053 -0.578776
H30   H     H_    0.089586 0.929339 0.624699 0.377690
S4    S     S_3+6 0.752239 0.502581 0.786620 0.021892
O22   O     O_2   0.785381 0.396143 0.792258 -0.266662
O23   O     O_2   0.781507 0.623910 0.800221 -0.256912
O24   O     O_3   0.712816 0.487445 0.918084 -0.554248
H31   H     H_    0.732953 0.491221 0.002534 0.371474
N9    N     N_3   0.349772 0.533330 0.751594 -0.503332
H32   H     H_    0.324502 0.524990 0.831445 0.231743
H33   H     H_    0.364275 0.625409 0.752911 0.230910

loop_
_geom_bond_atom_site_label_1
_geom_bond_atom_site_label_2
_geom_bond_distance
_ccdc_geom_bond_type
C53   C54   1.399181 A    
C57   C58   1.430251 A    
N2    C27   1.367679 A    
C21   C22   1.391053 A    
C12   C15   1.410650 A    
C4    C17   1.472471 S    
N9    H32   1.045703 S    
C48   C49   1.379006 A    
S4    O22   1.502789 D    
C53   N8    1.430129 S    
C52   H18   1.083443 S    
O18   H29   0.990741 S    
Cu1   O7    1.948281 S    
S1    O14   1.503584 D    
O24   H31   0.990537 S    
C26   O12   1.349595 S    
C43   C44   1.394771 A    
C39   H11   1.083378 S    
C22   C23   1.398107 A    
C44   C45   1.414562 A    
C8    N9    1.437333 S    
C24   C25   1.408123 A    
O7    C4    1.311539 A    
S4    O23   1.502635 D    
C37   H8    1.084237 S    
C5    O9    1.344785 S    
O15   H26   0.990435 S    
C5    N1    1.366555 A    
C49   N6    1.434659 S    
C23   C27   1.403008 A    
O5    C3    1.296396 A    
N8    H27   1.045454 S    
S3    O19   1.503709 D    
C29   H3    1.082266 S    
C2    C16   1.481921 S    
C7    C8    1.404041 A    
N5    H21   1.044664 S    
C41   H14   1.080275 S    
Cu2   N3    2.049715 S    
C51   C56   1.405456 A    
S2    O18   1.672569 S    
O1    Cu1   1.945572 S    
C9    C10   1.391090 A    
C37   C40   1.389395 A    
C58   N4    1.400904 A    
O3    Cu1   1.947702 S    
C1    C47   1.436355 S    
C45   C50   1.413075 A    
C58   S2    1.819319 S    
N1    C6    1.360843 A    
N8    H28   1.045745 S    
C52   C53   1.400137 A    
C12   C34   1.420374 A    
S1    O15   1.680517 S    
C17   C29   1.405525 A    
C6    C15   1.397120 A    
C21   H5    1.078759 S    
N7    H24   1.044257 S    
C18   C21   1.415063 A    
Cu1   Cu2   2.727349 S    
C51   C52   1.399281 A    
H13   C48   1.081155 S    
C12   C13   1.424179 A    
C40   N5    1.436785 S    
C42   C43   1.392256 A    
C43   H16   1.082604 S    
C56   N3    1.384234 A    
C45   C46   1.410599 A    
C47   C48   1.392087 A    
S4    O24   1.682483 S    
C27   O10   1.349692 S    
C8    C16   1.420697 A    
C7    H7    1.083294 S    
C13   C14   1.427505 A    
C30   C31   1.390909 A    
C9    H1    1.083033 S    
O6    C3    1.303273 A    
O1    C1    1.303632 A    
S3    O21   1.683151 S    
C18   C20   1.415114 A    
C7    C11   1.396737 A    
C28   C29   1.399586 A    
C31   H12   1.082882 S    
C23   C24   1.407715 A    
C14   C36   1.397067 A    
C6    O11   1.350402 S    
N6    H22   1.045101 S    
Cu2   O8    1.947697 S    
C33   C36   1.406475 A    
N5    H20   1.044271 S    
C19   C20   1.415658 A    
N2    C32   1.432643 S    
C34   C35   1.425191 A    
N1    C11   1.432431 S    
C44   H17   1.081928 S    
N7    H25   1.041889 S    
O21   H30   0.990707 S    
O3    C2    1.313453 A    
C26   N2    1.367447 A    
N6    H23   1.045517 S    
C9    C16   1.409035 A    
C54   C55   1.410920 A    
C49   C50   1.405484 A    
C51   S1    1.775012 S    
C28   S4    1.768392 S    
C25   C26   1.402969 A    
S2    O16   1.503128 D    
Cu1   O5    1.940136 S    
C25   C39   1.398103 A    
C31   C32   1.398912 A    
C10   H2    1.082919 S    
C41   C46   1.412983 A    
C20   C24   1.418165 A    
Cu2   O6    1.945572 S    
O2    Cu2   1.940136 S    
C35   C40   1.426409 A    
C14   S3    1.783851 S    
O8    C4    1.311619 A    
C42   H15   1.082763 S    
C15   C37   1.396920 A    
N9    H33   1.045358 S    
C57   N7    1.428914 S    
O4    Cu2   1.948284 S    
C19   C35   1.421799 A    
Cu1   N4    2.049535 S    
S1    O13   1.501827 D    
C3    C50   1.433854 S    
O2    C1    1.299114 A    
C55   C56   1.425717 A    
O4    C2    1.313662 A    
N3    C57   1.373445 A    
C38   C39   1.390854 A    
S3    O20   1.503502 D    
C18   C33   1.420305 A    
C22   H4    1.083422 S    
C46   C47   1.411000 A    
C38   H9    1.076724 S    
C54   H19   1.069978 S    
C5    C13   1.421782 A    
C19   C38   1.411407 A    
C33   C34   1.414574 A    
C17   C30   1.403398 A    
C30   H10   1.082993 S    
C10   C11   1.394462 A    
C41   C42   1.394803 A    
C28   C32   1.410184 A    
C55   N4    1.372694 A    
C36   H6    1.075043 S    
S2    O17   1.505744 D    
