data_mof_unit_18916.cif
_audit_creation_date              2013-03-05T15:50:44-0500
_audit_creation_method            fapswitch 2.2
_symmetry_space_group_name_H-M    P1
_symmetry_Int_Tables_number       1
_space_group_crystal_system       triclinic
_cell_length_a                    10.67446
_cell_length_b                    12.020927
_cell_length_c                    12.839072
_cell_angle_alpha                 93.901094
_cell_angle_beta                  90.503459
_cell_angle_gamma                 86.193122
_cell_volume                      1640.01095649

loop_
_atom_site_label
_atom_site_type_symbol
_atom_site_description
_atom_site_fract_x
_atom_site_fract_y
_atom_site_fract_z
_atom_type_partial_charge
O1    O     O_R   0.506240 0.421700 0.658830 -0.631337
O2    O     O_R   0.491240 0.609310 0.646410 -0.610119
C1    C     C_R   0.498489 0.522533 0.700366 0.888486
O3    O     O_R   0.692710 0.406190 0.506230 -0.633343
O4    O     O_R   0.677700 0.593810 0.493810 -0.629716
C2    C     C_R   0.741900 0.500189 0.502184 0.860465
Zn1   Zn    Zn3+2 0.510020 0.374730 0.508290 1.005782
Zn2   Zn    Zn3+2 0.489980 0.625270 0.491710 0.995942
O5    O     O_R   0.508760 0.390690 0.353590 -0.572669
O6    O     O_R   0.493760 0.578300 0.341170 -0.645876
O7    O     O_R   0.322300 0.406190 0.506190 -0.590031
O8    O     O_R   0.307290 0.593810 0.493770 -0.581150
C3    C     C_R   0.500640 0.477562 0.299649 0.885065
C4    C     C_R   0.257664 0.500264 0.501490 0.842733
C5    C     C_3   0.936637 0.380207 0.518243 -0.421007
H1    H     H_    0.912290 0.323003 0.450155 0.201968
H2    H     H_    0.896449 0.346639 0.588735 0.198567
C6    C     C_3   0.079276 0.381743 0.526683 -0.216532
H3    H     H_    0.119883 0.316852 0.468826 0.226027
H4    H     H_    0.876320 0.490019 0.331890 0.152408
C7    C     C_3   0.920401 0.539334 0.397549 -0.418941
C8    C     C_3   0.920144 0.579831 0.594440 -0.443584
C9    C     C_3   0.877716 0.499838 0.503161 0.058006
H5    H     H_    0.869828 0.663600 0.592037 0.232444
H6    H     H_    0.893905 0.547411 0.669956 0.149150
C10   C     C_3   0.120361 0.501082 0.501640 -0.093977
C11   C     C_3   0.065443 0.528867 0.390138 -0.040813
C12   C     C_3   0.063901 0.587006 0.590659 0.156208
H7    H     H_    0.102064 0.560724 0.666853 0.105382
H8    H     H_    0.883176 0.627542 0.391091 0.209325
C13   C     C_R   0.502228 0.463719 0.188183 -0.048237
C14   C     C_R   0.493703 0.536999 0.811763 -0.081923
C15   C     C_R   0.415121 0.638436 0.968500 -0.021141
C16   C     C_R   0.431490 0.631932 0.861078 -0.185099
C17   C     C_R   0.544135 0.449976 0.868281 -0.247070
C18   C     C_R   0.528633 0.454427 0.974615 0.159782
C19   C     C_R   0.462716 0.548599 0.025781 0.120798
C20   C     C_R   0.448182 0.550620 0.132851 -0.255893
C21   C     C_R   0.565900 0.370555 0.137433 -0.126857
C22   C     C_R   0.578277 0.365467 0.030184 -0.171264
H9    H     H_    0.397640 0.621095 0.174287 0.157802
H10   H     H_    0.609956 0.304271 0.180795 0.196786
H11   H     H_    0.628881 0.293550 0.991026 0.174124
H12   H     H_    0.392458 0.698903 0.815639 0.204924
H13   H     H_    0.594071 0.377546 0.829074 0.164161
N1    N     N_R   0.523380 0.207800 0.519350 -0.175975
N2    N     N_R   0.476620 0.792180 0.480650 -0.112982
C23   C     C_R   0.412349 0.949401 0.384043 -0.181444
C24   C     C_R   0.417057 0.834909 0.397004 0.056397
C25   C     C_R   0.533052 0.859956 0.554067 0.069601
C26   C     C_R   0.529349 0.977325 0.545960 -0.084255
C27   C     C_R   0.469747 0.021978 0.457931 -0.059578
C28   C     C_R   0.468802 0.138325 0.445877 0.396032
C29   C     C_R   0.582044 0.165963 0.604185 -0.126787
C30   C     C_R   0.585572 0.051047 0.620708 0.233117
H14   H     H_    0.623644 0.222937 0.661273 0.181966
H15   H     H_    0.364451 0.980015 0.315998 0.207012
H16   H     H_    0.375130 0.779605 0.338845 0.142080
H17   H     H_    0.583009 0.821150 0.617008 0.169743
N3    N     N_R   0.098079 0.702840 0.582323 0.235909
O9    O     O_R   0.030809 0.771811 0.527224 -0.374440
O10   O     O_R   0.182309 0.743026 0.645657 -0.366409
C31   C     C_1   0.109178 0.632352 0.350942 0.265900
N4    N     N_1   0.142696 0.713021 0.318981 -0.169045
C32   C     C_1   0.348805 0.737088 0.017115 0.199170
N5    N     N_1   0.295796 0.816015 0.056069 -0.146975
N6    N     N_R   0.410924 0.183752 0.356207 0.218149
O11   O     O_R   0.465896 0.165415 0.266104 -0.408140
O12   O     O_R   0.292191 0.215119 0.359174 -0.406243
N7    N     N_R   0.643044 0.012509 0.714450 0.208122
O13   O     O_R   0.743112 0.057293 0.751844 -0.367738
O14   O     O_R   0.583558 0.948849 0.772427 -0.380449
C33   C     C_1   0.123024 0.346702 0.630202 0.216812
N8    N     N_1   0.157362 0.319361 0.710895 -0.156005
C34   C     C_1   0.104093 0.440109 0.308962 0.138948
N9    N     N_1   0.133726 0.371422 0.244709 -0.102247

loop_
_geom_bond_atom_site_label_1
_geom_bond_atom_site_label_2
_geom_bond_distance
_ccdc_geom_bond_type
C5    C6    1.526742 S    
C33   N8    1.157308 T    
C17   C18   1.373664 A    
C6    C10   1.581931 S    
C15   C32   1.446586 S    
C23   H15   1.082125 S    
N2    C24   1.356878 A    
Zn1   O7    2.014649 S    
C10   C11   1.590265 S    
C25   H17   1.079679 S    
C12   H7    1.113885 S    
O4    C2    1.288608 A    
O7    C4    1.289753 A    
C5    H1    1.114692 S    
N3    O10   1.301667 A    
C6    H3    1.109090 S    
O5    C3    1.289578 A    
C22   H11   1.084227 S    
C8    H6    1.114020 S    
N7    O13   1.301342 A    
C21   H10   1.082580 S    
C5    C9    1.554593 S    
C7    C11   1.548242 S    
C8    C12   1.544033 S    
O3    Zn1   2.011684 S    
C11   C34   1.480753 S    
C15   C16   1.388011 A    
N2    C25   1.365961 A    
C12   N3    1.473719 S    
C29   H14   1.081589 S    
N6    O11   1.300478 A    
Zn1   N1    2.016823 S    
C18   C22   1.398326 A    
C16   H12   1.084960 S    
C20   H9    1.083889 S    
O3    C2    1.281583 A    
C21   C22   1.381281 A    
C15   C19   1.412037 A    
C24   H16   1.079778 S    
C26   C27   1.412385 A    
N3    O9    1.302027 A    
O1    C1    1.288387 A    
C14   C16   1.397361 A    
C34   N9    1.157402 T    
C14   C17   1.390086 A    
C19   C20   1.383145 A    
Zn2   O8    2.011684 S    
N1    C29   1.360949 A    
C25   C26   1.419678 A    
C4    C10   1.465029 S    
C11   C31   1.478210 S    
C23   C24   1.395075 A    
O8    C4    1.284579 A    
C6    C33   1.483620 S    
C7    C9    1.548810 S    
C8    H5    1.111554 S    
C17   H13   1.085842 S    
C27   C28   1.416925 A    
C5    H2    1.116004 S    
C29   C30   1.409780 A    
C18   C19   1.417509 A    
O1    Zn1   1.976352 S    
C3    C13   1.429587 S    
O2    Zn2   2.008243 S    
O6    C3    1.287260 A    
O4    Zn2   2.014648 S    
C7    H8    1.115582 S    
C10   C12   1.582772 S    
C13   C20   1.393741 A    
O2    C1    1.288682 A    
Zn2   N2    2.016584 S    
C2    C9    1.449437 S    
N1    C28   1.369134 A    
C13   C21   1.395759 A    
C26   C30   1.418221 A    
C1    C14   1.429927 S    
C28   N6    1.426036 S    
C30   N7    1.436900 S    
C31   N4    1.157391 T    
Zn1   O5    2.008242 S    
C23   C27   1.408773 A    
H4    C7    1.116050 S    
Zn2   O6    1.976352 S    
C32   N5    1.157416 T    
C8    C9    1.548668 S    
N7    O14   1.301248 A    
N6    O12   1.298225 A    
