data_mof_unit_53142.cif
_audit_creation_date              2012-12-10T20:31:53-0500
_audit_creation_method            fapswitch 2.2
_symmetry_space_group_name_H-M    P1
_symmetry_Int_Tables_number       1
_space_group_crystal_system       triclinic
_cell_length_a                    9.872918
_cell_length_b                    10.68809
_cell_length_c                    15.420145
_cell_angle_alpha                 90.076005
_cell_angle_beta                  68.094431
_cell_angle_gamma                 89.983586
_cell_volume                      1509.690492

loop_
_atom_site_label
_atom_site_type_symbol
_atom_type_description
_atom_site_fract_x
_atom_site_fract_y
_atom_site_fract_z
_atom_type_partial_charge
C1    C     C_R   0.500673 0.739927 0.498819 0.881210
C2    C     C_R   0.399448 0.433496 0.916933 0.093799
C3    C     C_R   0.253898 0.467942 0.971845 0.151676
C4    C     C_R   0.498159 0.401644 0.960617 0.030042
C5    C     C_R   0.456065 0.424737 0.057501 0.055523
C6    C     C_R   0.305259 0.443423 0.112383 0.076948
C7    C     C_R   0.206792 0.466135 0.068745 -0.302362
C8    C     C_R   0.638119 0.349790 0.910897 -0.221086
C9    C     C_R   0.738466 0.332850 0.953648 -0.240474
C10   C     C_R   0.705877 0.374541 0.044793 0.168876
C11   C     C_R   0.566738 0.426610 0.095293 0.105370
C12   C     C_R   0.408808 0.497952 0.676123 0.864428
C13   C     C_R   0.810550 0.366584 0.086222 -0.224557
C14   C     C_R   0.778100 0.411900 0.176794 -0.212001
C15   C     C_R   0.545548 0.486562 0.179606 -0.223153
C16   C     C_R   0.376269 0.936647 0.504355 0.082698
C17   C     C_R   0.505202 0.871679 0.489290 -0.075306
C18   C     C_R   0.639127 0.935144 0.459053 -0.226880
C19   C     C_R   0.639592 0.064595 0.457823 -0.218756
C20   C     C_R   0.506167 0.128673 0.486043 -0.112038
C21   C     C_R   0.377152 0.064190 0.500636 0.091995
C22   C     C_3   0.231324 0.074829 0.578932 -0.093158
C23   C     C_R   0.501285 0.260158 0.497625 0.880979
C24   C     C_3   0.230800 0.932244 0.583981 -0.184207
C25   C     C_R   0.901034 0.589936 0.547800 0.216958
C26   C     C_R   0.959151 0.417634 0.446727 -0.156344
C27   C     C_R   0.102929 0.417413 0.446938 -0.099802
C28   C     C_R   0.043589 0.589873 0.547827 0.206105
C29   C     C_3   0.989275 0.612283 0.650579 -0.537026
C30   C     C_3   0.835836 0.612961 0.650529 -0.484358
C31   C     C_R   0.591007 0.497689 0.323811 0.865158
C32   C     C_R   0.351168 0.484878 0.777584 -0.059369
C33   C     C_R   0.644469 0.471931 0.223675 -0.070375
C34   C     C_R   0.157309 0.504785 0.929069 -0.200060
C35   C     C_R   0.205962 0.513677 0.832177 -0.208059
C36   C     C_R   0.445077 0.442069 0.819815 -0.252493
H1    H     H_    0.093494 0.484942 0.111192 0.150772
H2    H     H_    0.915549 0.322898 0.049533 0.146053
H3    H     H_    0.741815 0.885674 0.441109 0.164564
H4    H     H_    0.742426 0.113757 0.439771 0.161988
H5    H     H_    0.235538 0.124507 0.641401 0.173921
H6    H     H_    0.144270 0.884600 0.566181 0.152196
H7    H     H_    0.929221 0.349623 0.405007 0.137378
H8    H     H_    0.181291 0.349005 0.405601 0.165671
H9    H     H_    0.010449 0.531709 0.689253 0.216292
H10   H     H_    0.450767 0.544691 0.212918 0.173776
H11   H     H_    0.023023 0.704692 0.668419 0.190232
H12   H     H_    0.769260 0.533210 0.689875 0.215722
H13   H     H_    0.781796 0.705935 0.667560 0.200013
H14   H     H_    0.855021 0.397418 0.210782 0.148013
H15   H     H_    0.843971 0.291820 0.913969 0.148528
H16   H     H_    0.045693 0.530655 0.970597 0.149986
H17   H     H_    0.131541 0.546050 0.800328 0.148590
H18   H     H_    0.555880 0.420969 0.775521 0.145947
H19   H     H_    0.671309 0.317624 0.839634 0.144986
N1    N     N_R   0.856900 0.500860 0.500610 -0.103160
N2    N     N_R   0.142540 0.500820 0.500610 -0.102346
O1    O     O_R   0.385310 0.683210 0.499990 -0.622225
O2    O     O_R   0.614650 0.683240 0.500000 -0.618871
O3    O     O_R   0.319830 0.499970 0.632240 -0.617735
O4    O     O_R   0.549170 0.500000 0.632250 -0.613911
O5    O     O_R   0.385350 0.316760 0.500000 -0.599341
O6    O     O_R   0.614690 0.316790 0.500010 -0.622891
O7    O     O_R   0.450830 0.500000 0.367750 -0.609760
O8    O     O_R   0.680170 0.500030 0.367760 -0.619157
Zn1   Zn    Zn3+2 0.346870 0.499980 0.499990 0.946794
Zn2   Zn    Zn3+2 0.653130 0.500020 0.500010 0.934377
N3    N     N_3   0.120036 0.125625 0.547136 -0.443892
H20   H     H_    0.018218 0.112047 0.600587 0.184151
H21   H     H_    0.119412 0.076113 0.488656 0.181292
N4    N     N_3   0.242099 0.888343 0.670789 -0.451846
H22   H     H_    0.141976 0.906065 0.724892 0.184348
H23   H     H_    0.254119 0.791142 0.666823 0.198050
N5    N     N_3   0.248361 0.427790 0.211872 -0.470185
H24   H     H_    0.173855 0.353719 0.228612 0.179165
H25   H     H_    0.190978 0.508959 0.242327 0.182616

loop_
_geom_bond_atom_site_label_1
_geom_bond_atom_site_label_2
_ccdc_geom_bond_type
C16   C21   A    
C35   H17   S    
C24   H6    S    
C19   C20   A    
C9    H15   S    
C25   N1    A    
N2    Zn1   S    
C4    C8    A    
C14   C33   A    
C28   N2    A    
C25   C28   A    
C26   C27   A    
N5    H25   S    
C29   H11   S    
C32   C36   A    
C30   H12   S    
C28   C29   S    
C5    C11   A    
C3    C7    A    
C1    O2    A    
C5    C6    A    
C22   H5    S    
C16   C17   A    
C34   C35   A    
O2    Zn2   S    
N3    H20   S    
C11   C15   A    
C27   H8    S    
O1    Zn1   S    
C23   O5    A    
C8    C9    A    
O8    Zn2   S    
C31   C33   S    
C9    C10   A    
C23   O6    A    
O3    Zn1   S    
C16   C24   S    
C13   C14   A    
C12   C32   S    
C8    H19   S    
C26   H7    S    
C6    N5    S    
C19   H4    S    
O6    Zn2   S    
N5    H24   S    
O5    Zn1   S    
C32   C35   A    
C27   N2    A    
N4    H23   S    
C18   C19   A    
C3    C34   A    
C29   H9    S    
O7    Zn1   S    
C2    C4    A    
C18   H3    S    
C29   C30   S    
O4    Zn2   S    
C20   C23   S    
C17   C18   A    
C7    H1    S    
C22   N3    S    
C13   H2    S    
C30   H13   S    
C22   C24   S    
C2    C36   A    
C25   C30   S    
C31   O8    A    
C34   H16   S    
C31   O7    A    
C4    C5    A    
C10   C13   A    
C26   N1    A    
C6    C7    A    
N1    Zn2   S    
C1    C17   S    
C2    C3    A    
N4    H22   S    
C1    O1    A    
C12   O4    A    
C14   H14   S    
C36   H18   S    
C10   C11   A    
C12   O3    A    
C20   C21   A    
N3    H21   S    
C15   H10   S    
C21   C22   S    
C15   C33   A    
C24   N4    S    
