data_mof_unit_33415.cif
_audit_creation_date              2012-12-10T19:42:33-0500
_audit_creation_method            fapswitch 2.2
_symmetry_space_group_name_H-M    P1
_symmetry_Int_Tables_number       1
_space_group_crystal_system       triclinic
_cell_length_a                    10.906742
_cell_length_b                    10.905098
_cell_length_c                    9.801687
_cell_angle_alpha                 98.735487
_cell_angle_beta                  98.72798
_cell_angle_gamma                 92.979719
_cell_volume                      1135.5732442

loop_
_atom_site_label
_atom_site_type_symbol
_atom_type_description
_atom_site_fract_x
_atom_site_fract_y
_atom_site_fract_z
_atom_type_partial_charge
C1    C     C_R   0.500939 0.261970 0.499289 0.788602
C2    C     C_R   0.499054 0.738030 0.500711 0.788595
C3    C     C_R   0.872248 0.497804 0.503795 -0.087597
C4    C     C_R   0.127753 0.502213 0.496204 -0.087597
C5    C     C_R   0.958794 0.525420 0.630324 0.002230
C6    C     C_R   0.041207 0.474605 0.369675 0.002231
C7    C     C_R   0.301732 0.083061 0.016780 -0.139089
C8    C     C_R   0.698184 0.916921 0.983248 -0.139101
C9    C     C_R   0.327542 0.051030 0.150354 -0.158970
C10   C     C_R   0.672398 0.948962 0.849676 -0.158961
C11   C     C_R   0.447569 0.076596 0.228531 0.133698
C12   C     C_R   0.552380 0.923400 0.771473 0.133697
C13   C     C_R   0.542000 0.132144 0.169860 -0.048658
C14   C     C_R   0.457933 0.867845 0.830116 -0.048679
C15   C     C_R   0.515014 0.166420 0.037377 -0.112425
C16   C     C_R   0.484896 0.833557 0.962596 -0.112381
C17   C     C_R   0.394765 0.142321 0.961126 -0.152460
C18   C     C_R   0.605136 0.857653 0.038873 -0.152462
C19   C     C_R   0.471573 0.914922 0.375976 -0.261863
C20   C     C_R   0.528405 0.085076 0.624026 -0.261858
C21   C     C_R   0.497760 0.872246 0.503789 -0.087540
C22   C     C_R   0.502223 0.127753 0.496212 -0.087541
C23   C     C_R   0.261971 0.500942 0.499287 0.788479
C24   C     C_R   0.738029 0.499064 0.500713 0.788485
C25   C     C_R   0.525251 0.958799 0.630336 0.002172
C26   C     C_R   0.474724 0.041199 0.369666 0.002170
C27   C     C_2   0.510773 0.510298 0.078979 -0.100714
C28   C     C_2   0.489227 0.489701 0.921021 -0.100712
C29   C     C_R   0.166098 0.514595 0.037110 -0.113717
C30   C     C_R   0.833916 0.485465 0.962906 -0.113744
C31   C     C_R   0.132131 0.541653 0.169743 -0.048344
C32   C     C_R   0.867878 0.458394 0.830271 -0.048331
C33   C     C_R   0.076575 0.447300 0.228531 0.133708
C34   C     C_R   0.923428 0.552739 0.771467 0.133706
C35   C     C_R   0.050754 0.327267 0.150356 -0.159157
C36   C     C_R   0.949249 0.672778 0.849628 -0.159166
C37   C     C_R   0.082494 0.301381 0.016647 -0.139054
C38   C     C_R   0.917514 0.698678 0.983339 -0.139051
C39   C     C_R   0.141713 0.394345 0.960842 -0.152998
C40   C     C_R   0.858302 0.605721 0.039160 -0.152996
C41   C     C_R   0.914938 0.471500 0.375996 -0.261830
C42   C     C_R   0.085063 0.528522 0.624003 -0.261833
Cu1   Cu    Cu3+1 0.521120 0.521140 0.639640 0.943742
Cu2   Cu    Cu3+1 0.478880 0.478860 0.360360 0.943741
H1    H     H_    0.167354 0.373436 0.857912 0.120862
H2    H     H_    0.832665 0.626639 0.142092 0.120862
H3    H     H_    0.635684 0.150338 0.227643 0.101063
H4    H     H_    0.364257 0.849652 0.772311 0.101053
H5    H     H_    0.587418 0.211111 0.993609 0.114833
H6    H     H_    0.412480 0.788861 0.006342 0.114823
H7    H     H_    0.449315 0.849429 0.279201 0.154589
H8    H     H_    0.550658 0.150568 0.720802 0.154587
H9    H     H_    0.620067 0.618909 0.904927 0.226802
H10   H     H_    0.379930 0.381094 0.095073 0.226802
H11   H     H_    0.210766 0.586946 0.993237 0.114988
H12   H     H_    0.789253 0.413120 0.006791 0.114996
H13   H     H_    0.150494 0.635351 0.227509 0.101252
H14   H     H_    0.849515 0.364692 0.772516 0.101259
H15   H     H_    0.005674 0.254113 0.192786 0.114640
H16   H     H_    0.994326 0.745925 0.807186 0.114641
H17   H     H_    0.849458 0.449181 0.279230 0.154509
H18   H     H_    0.150544 0.550844 0.720768 0.154511
H19   H     H_    0.373905 0.168216 0.858319 0.120759
H20   H     H_    0.625979 0.831748 0.141677 0.120758
H21   H     H_    0.209822 0.060993 0.955938 0.113350
H22   H     H_    0.790086 0.938988 0.044112 0.113357
N1    N     N_2   0.447120 0.447110 0.150550 -0.278362
N2    N     N_2   0.552880 0.552890 0.849450 -0.278360
O1    O     O_R   0.517830 0.337490 0.617920 -0.589310
O2    O     O_R   0.482170 0.662510 0.382080 -0.589313
O3    O     O_R   0.482150 0.301790 0.382070 -0.567367
O4    O     O_R   0.517850 0.698210 0.617930 -0.567362
O5    O     O_R   0.337480 0.517860 0.617920 -0.589416
O6    O     O_R   0.662520 0.482140 0.382080 -0.589414
O7    O     O_R   0.301810 0.482160 0.382070 -0.567642
O8    O     O_R   0.698190 0.517840 0.617930 -0.567646
H23   H     H_    0.417922 0.419252 0.864985 0.158357
H24   H     H_    0.582079 0.580745 0.135015 0.158358
H25   H     H_    0.060208 0.209472 0.955808 0.113263
H26   H     H_    0.939801 0.790592 0.044166 0.113258
H27   H     H_    0.254321 0.005977 0.192701 0.114618
H28   H     H_    0.745630 0.994018 0.807350 0.114617

loop_
_geom_bond_atom_site_label_1
_geom_bond_atom_site_label_2
_ccdc_geom_bond_type
Cu1   O5    S    
C30   C32   A    
C5    C42   A    
C8    H22   S    
Cu1   O4    S    
C32   H14   S    
C27   H24   S    
C18   H20   S    
C28   N2    D    
C40   H2    S    
C37   H25   S    
C1    O3    A    
C4    C42   A    
C19   C21   A    
C16   H6    S    
C20   C25   A    
Cu2   O3    S    
C35   H15   S    
H9    N2    S    
C19   C26   A    
Cu1   N2    S    
C7    C17   A    
C6    C41   A    
C31   C33   A    
Cu2   O2    S    
C41   H17   S    
C42   H18   S    
C39   H1    S    
C1    C22   S    
Cu1   O1    S    
C3    C24   S    
C23   O5    A    
C2    O4    A    
C4    C6    A    
C23   O7    A    
C13   H3    S    
C4    C23   S    
C24   O8    A    
C14   H4    S    
H10   N1    S    
C29   H11   S    
C11   C26   S    
C36   H16   S    
C30   H12   S    
C10   H28   S    
C8    C18   A    
C32   C34   A    
Cu2   O7    S    
Cu1   Cu2   S    
C7    H21   S    
C29   C31   A    
C5    C34   S    
C29   C39   A    
C2    C21   S    
C30   C40   A    
Cu2   O6    S    
C28   H23   S    
C9    C11   A    
C10   C12   A    
C8    C10   A    
C12   C14   A    
C13   C15   A    
C14   C16   A    
Cu1   O8    S    
C7    C9    A    
C21   C25   A    
C3    C41   A    
C35   C37   A    
C20   C22   A    
C3    C5    A    
C15   C17   A    
C6    C33   S    
C12   C25   S    
C20   H8    S    
C31   H13   S    
C36   C38   A    
C37   C39   A    
C17   H19   S    
C38   C40   A    
C11   C13   A    
C24   O6    A    
C38   H26   S    
C33   C35   A    
C34   C36   A    
C15   H5    S    
C1    O1    A    
C27   N1    D    
C19   H7    S    
C16   C18   A    
C22   C26   A    
C27   C28   S    
Cu2   N1    S    
C2    O2    A    
C9    H27   S    
