data_mof_unit_44816.cif
_audit_creation_date              2012-12-10T18:45:11-0500
_audit_creation_method            fapswitch 2.2
_symmetry_space_group_name_H-M    P1
_symmetry_Int_Tables_number       1
_space_group_crystal_system       triclinic
_cell_length_a                    10.779156
_cell_length_b                    9.786715
_cell_length_c                    10.517583
_cell_angle_alpha                 89.400402
_cell_angle_beta                  90.313655
_cell_angle_gamma                 90.579492
_cell_volume                      1109.39292606

loop_
_atom_site_label
_atom_site_type_symbol
_atom_type_description
_atom_site_fract_x
_atom_site_fract_y
_atom_site_fract_z
_atom_type_partial_charge
C1    C     C_R   0.259456 0.498601 0.502001 0.849471
C2    C     C_R   0.739977 0.500096 0.493641 0.922961
C3    C     C_R   0.937450 0.619797 0.506179 -0.245622
C4    C     C_R   0.064259 0.618355 0.511359 -0.252434
C5    C     C_R   0.596073 0.072560 0.553642 -0.071432
C6    C     C_R   0.404279 0.071621 0.446447 -0.065850
C7    C     C_R   0.596178 0.928326 0.553484 -0.077774
C8    C     C_R   0.403482 0.927623 0.447559 -0.109255
C9    C     C_R   0.474114 0.500368 0.262738 0.907584
C10   C     C_R   0.480240 0.498728 0.739443 0.903147
C11   C     C_R   0.354272 0.737721 0.126542 -0.139272
C12   C     C_R   0.350633 0.731426 0.862411 -0.143347
C13   C     C_R   0.316599 0.852124 0.057285 -0.153799
C14   C     C_R   0.314454 0.848924 0.925411 -0.150574
C15   C     C_R   0.396169 0.616348 0.930703 0.072594
C16   C     C_R   0.396389 0.619468 0.064594 0.068914
C17   C     C_R   0.429817 0.499458 0.131582 -0.242083
C18   C     C_R   0.436341 0.495003 0.870605 -0.259387
C19   C     C_R   0.417301 0.373302 0.070564 0.199977
C20   C     C_R   0.430517 0.369219 0.939403 0.137419
C21   C     C_R   0.061252 0.370132 0.482347 0.163477
C22   C     C_R   0.933898 0.374211 0.463565 0.158698
C23   C     C_R   0.872200 0.498430 0.484626 -0.102921
C24   C     C_R   0.126551 0.494627 0.500586 -0.086943
H1    H     H_    0.341308 0.740274 0.227846 0.152882
H2    H     H_    0.334719 0.730264 0.761054 0.165032
H3    H     H_    0.283613 0.941184 0.106247 0.134181
H4    H     H_    0.280235 0.935926 0.871812 0.141197
H5    H     H_    0.890663 0.715848 0.520636 0.169899
H6    H     H_    0.113226 0.714130 0.526520 0.169492
H7    H     H_    0.672556 0.127713 0.596781 0.131446
H8    H     H_    0.328308 0.126082 0.403697 0.162623
H9    H     H_    0.672755 0.873823 0.596422 0.126745
H10   H     H_    0.325391 0.873033 0.407223 0.116101
N1    N     N_R   0.500000 0.857200 0.500000 -0.074728
N2    N     N_R   0.500000 0.142810 0.500000 -0.070960
O1    O     O_R   0.316770 0.614620 0.499990 -0.661986
O2    O     O_R   0.683230 0.614620 0.500010 -0.627728
O3    O     O_R   0.316800 0.385290 0.500000 -0.598013
O4    O     O_R   0.683200 0.385290 0.500000 -0.590629
O5    O     O_R   0.500010 0.614690 0.316770 -0.624734
O6    O     O_R   0.499990 0.614690 0.683230 -0.622020
O7    O     O_R   0.500040 0.385360 0.316770 -0.581832
O8    O     O_R   0.499960 0.385360 0.683230 -0.616959
Zn1   Zn    Zn3+2 0.500000 0.653120 0.500000 0.925169
Zn2   Zn    Zn3+2 0.500000 0.346880 0.500000 0.957176
N3    N     N_2   0.378755 0.254288 0.140080 -0.270361
H11   H     H_    0.411603 0.162750 0.107565 0.246489
C25   C     C_3   0.246492 0.249507 0.163085 -0.810941
H12   H     H_    0.221335 0.153617 0.214143 0.208906
H13   H     H_    0.194517 0.251743 0.071498 0.237243
H14   H     H_    0.218552 0.337421 0.222121 0.249446
N4    N     N_2   0.428129 0.238924 0.879596 -0.304846
H15   H     H_    0.375747 0.230565 0.797777 0.245831
C26   C     C_3   0.544506 0.165962 0.879947 -0.763105
H16   H     H_    0.529307 0.062084 0.840991 0.236460
H17   H     H_    0.581998 0.155358 0.978011 0.229520
H18   H     H_    0.614580 0.220549 0.821013 0.250950
N5    N     N_2   0.122664 0.241753 0.484715 -0.294204
H19   H     H_    0.096281 0.174790 0.414369 0.212108
C27   C     C_3   0.129280 0.178484 0.609640 -0.801149
H20   H     H_    0.034868 0.152266 0.644615 0.219997
H21   H     H_    0.175294 0.248554 0.678079 0.247313
H22   H     H_    0.184105 0.083299 0.605018 0.227514
N6    N     N_2   0.867638 0.254196 0.425248 -0.292606
H23   H     H_    0.894572 0.163517 0.467053 0.216788
C28   C     C_3   0.846791 0.244567 0.289690 -0.764364
H24   H     H_    0.936555 0.233924 0.239436 0.219555
H25   H     H_    0.798215 0.336816 0.253388 0.247981
H26   H     H_    0.787571 0.153774 0.269495 0.239576

loop_
_geom_bond_atom_site_label_1
_geom_bond_atom_site_label_2
_ccdc_geom_bond_type
C27   H22   S    
C6    H8    S    
C26   H16   S    
C25   H12   S    
C22   N6    S    
N2    Zn2   S    
C13   C14   A    
C10   O6    A    
C11   C13   A    
C11   C16   A    
C2    O2    A    
C15   C18   A    
C9    O5    A    
C19   C20   A    
N6    C28   S    
C12   C15   A    
C1    O1    A    
C25   H14   S    
C28   H26   S    
C6    N2    A    
N4    C26   S    
N5    H19   S    
N3    C25   S    
C8    H10   S    
N4    H15   S    
O4    Zn2   S    
C7    H9    S    
C3    H5    S    
C26   H18   S    
C5    H7    S    
C10   C18   S    
O3    Zn2   S    
C10   O8    A    
C9    C17   S    
C17   C19   A    
C12   C14   A    
O5    Zn1   S    
C21   N5    S    
C18   C20   A    
C26   H17   S    
C27   H20   S    
C4    C24   A    
O7    Zn2   S    
C19   N3    S    
C9    O7    A    
N5    C27   S    
C1    O3    A    
O1    Zn1   S    
C28   H24   S    
N1    Zn1   S    
C5    N2    A    
C2    O4    A    
N3    H11   S    
C1    C24   S    
C27   H21   S    
N6    H23   S    
C21   C24   A    
C28   H25   S    
C2    C23   S    
C5    C7    A    
C11   H1    S    
C22   C23   A    
C13   H3    S    
O2    Zn1   S    
C6    C8    A    
O8    Zn2   S    
C14   H4    S    
C3    C23   A    
C21   C22   A    
C7    N1    A    
O6    Zn1   S    
C4    H6    S    
C3    C4    A    
C15   C16   A    
C16   C17   A    
C12   H2    S    
C20   N4    S    
C25   H13   S    
C8    N1    A    
