data_mof_unit_19257.cif
_audit_creation_date              2012-12-10T17:29:15-0500
_audit_creation_method            fapswitch 2.2
_symmetry_space_group_name_H-M    P1
_symmetry_Int_Tables_number       1
_space_group_crystal_system       triclinic
_cell_length_a                    12.048756
_cell_length_b                    12.843984
_cell_length_c                    13.10036
_cell_angle_alpha                 87.439915
_cell_angle_beta                  113.498685
_cell_angle_gamma                 93.933614
_cell_volume                      1854.49308588

loop_
_atom_site_label
_atom_site_type_symbol
_atom_type_description
_atom_site_fract_x
_atom_site_fract_y
_atom_site_fract_z
_atom_type_partial_charge
C1    C     C_R   0.477406 0.299506 0.499612 0.883022
C2    C     C_R   0.559843 0.514552 0.988413 0.120009
C3    C     C_R   0.546420 0.551272 0.881506 -0.017947
C4    C     C_R   0.469709 0.535537 0.027205 0.098306
C5    C     C_R   0.376614 0.604307 0.966722 0.048892
C6    C     C_R   0.376683 0.651354 0.868376 -0.228467
C7    C     C_R   0.465017 0.631034 0.829325 -0.135801
C8    C     C_R   0.469523 0.488237 0.124693 -0.170887
C9    C     C_R   0.299754 0.584304 0.112748 -0.236194
C10   C     C_R   0.612942 0.504398 0.829747 -0.140616
C11   C     C_R   0.536885 0.812074 0.500985 -0.027298
C12   C     C_R   0.567407 0.500255 0.708673 0.883398
C13   C     C_R   0.462706 0.187953 0.498155 -0.058707
C14   C     C_R   0.336867 0.030537 0.438453 -0.181778
C15   C     C_R   0.347369 0.137735 0.450616 -0.176767
C16   C     C_R   0.567175 0.131735 0.537997 -0.254703
C17   C     C_R   0.557734 0.025377 0.525500 0.171487
C18   C     C_R   0.441722 0.974549 0.474299 0.179406
C19   C     C_R   0.432409 0.868299 0.460790 -0.219506
C20   C     C_R   0.652038 0.862137 0.550803 -0.114425
C21   C     C_R   0.662532 0.969299 0.562580 -0.203201
C22   C     C_R   0.012790 0.601893 0.400981 -0.259696
C23   C     C_R   0.522196 0.700499 0.499273 0.937227
C24   C     C_R   0.131139 0.591889 0.409864 0.051032
C25   C     C_R   0.158004 0.454828 0.543057 0.011392
C26   C     C_R   0.036834 0.459413 0.535320 -0.006241
C27   C     C_R   0.963901 0.536030 0.464048 0.005290
C28   C     C_R   0.844112 0.545248 0.457769 0.063653
C29   C     C_R   0.867658 0.406141 0.588702 -0.057043
C30   C     C_R   0.986776 0.392475 0.597597 -0.115412
C31   C     C_R   0.433192 0.503729 0.291342 0.879564
C32   C     C_R   0.288792 0.626385 0.009088 -0.002381
C33   C     C_R   0.394009 0.519999 0.172184 -0.074956
C34   C     C_R   0.713576 0.447334 0.893516 -0.153100
C35   C     C_R   0.741662 0.428718 0.005862 -0.132865
C36   C     C_R   0.663917 0.458912 0.052663 -0.153033
H1    H     H_    0.240449 0.608037 0.150653 0.170992
H2    H     H_    0.247614 0.991791 0.399949 0.151653
H3    H     H_    0.751726 0.007914 0.602093 0.159584
H4    H     H_    0.656261 0.171030 0.576712 0.158893
H5    H     H_    0.828844 0.355436 0.635626 0.159384
H6    H     H_    0.167096 0.642523 0.360757 0.122753
H7    H     H_    0.311232 0.707634 0.822954 0.217402
H8    H     H_    0.767782 0.413809 0.855657 0.170288
H9    H     H_    0.689233 0.439717 0.139720 0.155912
H10   H     H_    0.820215 0.385722 0.055478 0.156471
N1    N     N_R   0.798200 0.480260 0.519790 -0.145913
N2    N     N_R   0.201820 0.519740 0.480210 -0.106923
O1    O     O_R   0.579910 0.341070 0.505280 -0.631979
O2    O     O_R   0.388440 0.353740 0.492580 -0.616631
O3    O     O_R   0.643280 0.490550 0.663120 -0.609837
O4    O     O_R   0.451810 0.503220 0.650420 -0.613157
O5    O     O_R   0.611560 0.646260 0.507420 -0.604938
O6    O     O_R   0.420090 0.658930 0.494720 -0.602720
O7    O     O_R   0.548190 0.496780 0.349580 -0.594969
O8    O     O_R   0.356720 0.509450 0.336880 -0.632243
Zn1   Zn    Zn3+2 0.627850 0.491540 0.508480 0.978932
Zn2   Zn    Zn3+2 0.372150 0.508460 0.491520 0.971661
H11   H     H_    0.732975 0.818302 0.584042 0.205480
H12   H     H_    0.266281 0.181480 0.419750 0.175831
C37   C     C_2   0.769877 0.627133 0.385395 0.946307
O9    O     O_2   0.708666 0.609813 0.287295 -0.653119
O10   O     O_R   0.779809 0.727230 0.426621 -0.813792
H13   H     H_    0.727595 0.777744 0.368366 0.337039
H14   H     H_    0.960527 0.661315 0.344477 0.163775
C38   C     C_2   0.053166 0.305776 0.669912 0.884719
O11   O     O_2   0.045291 0.287046 0.759224 -0.616317
O12   O     O_R   0.119937 0.242320 0.634172 -0.816867
H15   H     H_    0.159695 0.185328 0.690503 0.358765
H16   H     H_    0.219088 0.400915 0.599973 0.172628
C39   C     C_2   0.189091 0.697399 0.953185 0.890982
O13   O     O_2   0.209563 0.784136 0.920064 -0.621904
O14   O     O_R   0.072118 0.666746 0.944583 -0.792682
H17   H     H_    0.011772 0.721918 0.906751 0.352034
H18   H     H_    0.532544 0.430111 0.169691 0.145799
C40   C     C_2   0.480866 0.705729 0.745346 0.969944
O15   O     O_2   0.392226 0.743839 0.673771 -0.571526
O16   O     O_R   0.596011 0.738525 0.750242 -0.805632
H19   H     H_    0.664629 0.712633 0.819135 0.307364
H20   H     H_    0.343417 0.828990 0.421498 0.154906

loop_
_geom_bond_atom_site_label_1
_geom_bond_atom_site_label_2
_ccdc_geom_bond_type
C38   O12   S    
C28   N1    A    
C24   H6    S    
C15   H12   S    
C14   C18   A    
C35   C36   A    
C4    C8    A    
C11   C19   A    
C26   C27   A    
C29   N1    A    
C40   O16   S    
C18   C19   A    
C3    C7    A    
C5    C6    A    
N1    Zn1   S    
O1    Zn1   S    
C34   C35   A    
O14   H17   S    
C37   O10   S    
C9    C32   A    
C6    C7    A    
C16   C17   A    
C31   C33   S    
O3    Zn1   S    
C31   O8    A    
C1    O2    A    
C5    C32   A    
C28   C37   S    
C38   O11   D    
C9    C33   A    
C19   H20   S    
C10   C12   S    
C12   O4    A    
C23   O5    A    
C32   C39   S    
C11   C20   A    
O2    Zn2   S    
C34   H8    S    
C40   O15   D    
C39   O14   S    
O5    Zn1   S    
O16   H19   S    
O12   H15   S    
C25   C26   A    
C8    H18   S    
C17   C21   A    
C24   N2    A    
C2    C4    A    
C22   H14   S    
C29   C30   A    
C14   H2    S    
C21   H3    S    
C9    H1    S    
C17   C18   A    
C36   H9    S    
C10   C34   A    
C20   H11   S    
C25   N2    A    
C30   C38   S    
O4    Zn2   S    
C16   H4    S    
C26   C30   A    
C6    H7    S    
C13   C15   A    
C22   C24   A    
C1    C13   S    
C12   O3    A    
C23   O6    A    
O6    Zn2   S    
C2    C36   A    
C29   H5    S    
C4    C5    A    
N2    Zn2   S    
C7    C40   S    
C22   C27   A    
O7    Zn1   S    
C2    C3    A    
C39   O13   D    
C3    C10   A    
C11   C23   S    
O8    Zn2   S    
C8    C33   A    
C37   O9    D    
O10   H13   S    
C20   C21   A    
C13   C16   A    
C27   C28   A    
C14   C15   A    
C25   H16   S    
C31   O7    A    
C35   H10   S    
C1    O1    A    
