data_mof_unit_31006.cif
_audit_creation_date              2012-12-11T14:19:22-0500
_audit_creation_method            fapswitch 2.2
_symmetry_space_group_name_H-M    P1
_symmetry_Int_Tables_number       1
_space_group_crystal_system       triclinic
_cell_length_a                    19.434603
_cell_length_b                    7.241988
_cell_length_c                    17.722456
_cell_angle_alpha                 90.046004
_cell_angle_beta                  107.672126
_cell_angle_gamma                 90.060201
_cell_volume                      2376.63680312

loop_
_atom_site_label
_atom_site_type_symbol
_atom_type_description
_atom_site_fract_x
_atom_site_fract_y
_atom_site_fract_z
_atom_type_partial_charge
O1    O     O_R   0.414820 0.494320 0.416790 -0.538883
O2    O     O_R   0.585180 0.994320 0.583210 -0.537023
O3    O     O_R   0.560270 0.819500 0.430140 -0.544136
O4    O     O_R   0.439730 0.319500 0.569860 -0.544776
C1    C     C_R   0.581204 0.655438 0.414679 0.707477
C2    C     C_R   0.418801 0.155411 0.585329 0.712730
O5    O     O_R   0.413840 0.823740 0.407440 -0.511871
O6    O     O_R   0.586160 0.323740 0.592560 -0.543644
O7    O     O_R   0.437710 0.998590 0.560350 -0.540732
O8    O     O_R   0.562290 0.498590 0.439650 -0.541559
C3    C     C_R   0.387029 0.655676 0.385642 0.749074
C4    C     C_R   0.612938 0.156190 0.614461 0.727796
O9    O     O_3   0.508000 0.662290 0.550200 -0.385912
O10   O     O_3   0.492000 0.162290 0.449800 -0.370691
V1    V     V_3+5 0.498520 0.935380 0.490690 1.428893
V2    V     V_3+5 0.501480 0.435380 0.509310 1.393873
C5    C     C_2   0.789333 0.271960 0.785741 -0.110390
C6    C     C_2   0.211320 0.772496 0.214655 -0.174849
C7    C     C_2   0.821752 0.112450 0.815868 -0.371101
C8    C     C_2   0.177877 0.613350 0.184903 -0.344483
H1    H     H_    0.813043 0.401113 0.812731 0.164912
H2    H     H_    0.188825 0.901012 0.186212 0.147753
H3    H     H_    0.801127 0.981256 0.788913 0.145104
H4    H     H_    0.197163 0.482702 0.213216 0.131547
C9    C     C_2   0.724171 0.290354 0.715197 0.227160
C10   C     C_2   0.275598 0.788905 0.287223 0.235152
C11   C     C_2   0.679713 0.145494 0.683399 -0.346678
C12   C     C_2   0.320318 0.644116 0.316636 -0.306758
H5    H     H_    0.692189 0.009350 0.709138 0.122276
H6    H     H_    0.308875 0.509819 0.288583 0.108605
C13   C     C_R   0.326643 0.990075 0.633937 -0.220009
C14   C     C_R   0.673338 0.490310 0.366076 -0.216850
C15   C     C_R   0.369590 0.147466 0.635082 -0.081601
C16   C     C_R   0.630420 0.647518 0.364929 -0.078459
C17   C     C_R   0.364334 0.298925 0.682981 -0.220612
C18   C     C_R   0.635701 0.798774 0.317019 -0.218063
C19   C     C_R   0.317212 0.293906 0.729305 0.089373
C20   C     C_R   0.682812 0.793720 0.270680 0.088489
C21   C     C_R   0.273785 0.136511 0.727029 0.056358
C22   C     C_R   0.726210 0.636517 0.272963 0.056125
C23   C     C_R   0.278419 0.984287 0.679017 0.090555
C24   C     C_R   0.721556 0.484508 0.320991 0.090108
C25   C     C_R   0.312684 0.443711 0.777869 -0.186955
C26   C     C_R   0.687356 0.943300 0.222093 -0.186085
C27   C     C_R   0.265000 0.438620 0.823214 -0.189847
C28   C     C_R   0.735030 0.938183 0.176738 -0.190594
C29   C     C_R   0.221002 0.283578 0.820847 0.088206
C30   C     C_R   0.779002 0.783339 0.179116 0.088189
C31   C     C_R   0.225599 0.131403 0.772807 0.055895
C32   C     C_R   0.774386 0.631382 0.227175 0.056317
C33   C     C_R   0.182152 0.974057 0.770517 0.088126
C34   C     C_R   0.817809 0.474232 0.229475 0.088301
C35   C     C_R   0.186669 0.824264 0.721932 -0.186369
C36   C     C_R   0.813272 0.324660 0.278079 -0.187164
C37   C     C_R   0.234393 0.829292 0.676623 -0.191949
C38   C     C_R   0.765554 0.329708 0.323394 -0.189963
C39   C     C_R   0.172861 0.277725 0.866013 -0.214216
C40   C     C_R   0.827138 0.777471 0.133947 -0.215254
C41   C     C_R   0.129870 0.120383 0.864905 -0.076840
C42   C     C_R   0.870110 0.620327 0.135070 -0.076980
C43   C     C_R   0.135035 0.969046 0.816864 -0.217682
C44   C     C_R   0.864923 0.469196 0.183124 -0.219440
H7    H     H_    0.329788 0.873100 0.596911 0.124625
H8    H     H_    0.670174 0.373488 0.403106 0.125937
H9    H     H_    0.397318 0.420620 0.684716 0.129572
H10   H     H_    0.602740 0.920323 0.315281 0.131585
H11   H     H_    0.345863 0.565362 0.780564 0.135629
H12   H     H_    0.654198 0.064797 0.219389 0.136188
H13   H     H_    0.262363 0.556441 0.859966 0.134093
H14   H     H_    0.737681 0.055833 0.139971 0.133800
H15   H     H_    0.169848 0.394709 0.903082 0.129124
H16   H     H_    0.830165 0.894294 0.096867 0.128935
H17   H     H_    0.102014 0.847388 0.815029 0.132320
H18   H     H_    0.897927 0.347695 0.184969 0.131302
H19   H     H_    0.153476 0.702636 0.719220 0.135981
H20   H     H_    0.846445 0.203188 0.280802 0.135501
H21   H     H_    0.237040 0.711459 0.639882 0.132813
H22   H     H_    0.762890 0.212042 0.360147 0.133739
O11   O     O_R   0.937810 0.773680 0.060480 -0.538235
O12   O     O_R   0.062190 0.273680 0.939520 -0.537839
O13   O     O_R   0.086190 0.439740 0.092580 -0.543612
O14   O     O_R   0.913810 0.939740 0.907420 -0.540175
C45   C     C_R   0.112203 0.608232 0.115082 0.748662
C46   C     C_R   0.887801 0.107939 0.885025 0.750375
O15   O     O_R   0.939760 0.444210 0.069890 -0.544143
O16   O     O_R   0.060240 0.944210 0.930110 -0.543686
O17   O     O_R   0.914790 0.269640 0.916760 -0.536606
O18   O     O_R   0.085210 0.769640 0.083240 -0.535776
C47   C     C_R   0.919270 0.612487 0.085169 0.698191
C48   C     C_R   0.080725 0.112513 0.914822 0.699914
O19   O     O_3   0.992050 0.601530 0.949880 -0.378390
O20   O     O_3   0.007950 0.101530 0.050120 -0.380584
V3    V     V_3+5 0.001480 0.328340 0.009300 1.397593
V4    V     V_3+5 0.998520 0.828340 0.990700 1.403045
N1    N     N_3   0.710747 0.473693 0.683148 -0.671534
H23   H     H_    0.707286 0.471296 0.623109 0.237998
H24   H     H_    0.663042 0.524380 0.690969 0.247423
N2    N     N_3   0.290203 0.966722 0.325359 -0.626814
H25   H     H_    0.255208 0.066679 0.292084 0.207239
H26   H     H_    0.278738 0.956756 0.379184 0.215832

loop_
_geom_bond_atom_site_label_1
_geom_bond_atom_site_label_2
_ccdc_geom_bond_type
O4    V2    S    
O14   V4    S    
C11   H5    S    
N1    H23   S    
O1    C3    A    
C46   O17   A    
O2    C4    A    
C2    O7    A    
C29   C31   A    
C42   C47   S    
O5    C3    A    
C17   C19   A    
C37   H21   S    
C18   H10   S    
C39   C41   A    
C17   H9    S    
C40   C42   A    
C38   H22   S    
C42   C44   A    
C27   C29   A    
C23   C37   A    
O16   V4    S    
C24   C38   A    
O15   V3    S    
C8    H4    S    
C34   C36   A    
C31   C33   A    
C6    C10   S    
C32   C34   A    
C13   C15   A    
C16   C18   A    
C22   C24   A    
C45   O18   A    
O6    V2    S    
C35   H19   S    
O13   C45   A    
C26   C28   A    
C28   C30   A    
C35   C37   A    
C36   C38   A    
C41   C43   A    
C28   H14   S    
C4    C11   S    
C27   H13   S    
C13   H7    S    
C14   H8    S    
O11   V4    S    
C21   C23   A    
O16   C48   A    
O15   C47   A    
C5    C7    D    
O5    V1    S    
C43   H17   S    
C5    H1    S    
C33   C35   A    
C41   C48   S    
C14   C16   A    
C19   C25   A    
C7    H3    S    
C20   C26   A    
C29   C39   A    
O13   V3    S    
O6    C4    A    
C1    C16   S    
O1    V2    S    
C39   H15   S    
O2    V1    S    
C25   C27   A    
C10   N2    S    
C36   H20   S    
O4    C2    A    
C21   C31   A    
C9    N1    S    
O14   C46   A    
C26   H12   S    
C7    C46   S    
O3    V1    S    
C13   C23   A    
C6    H2    S    
C10   C12   D    
O3    C1    A    
N1    H24   S    
O9    V2    S    
C30   C40   A    
C9    C11   D    
N2    H26   S    
C2    C15   S    
C5    C9    S    
C12   H6    S    
O7    V1    S    
C1    O8    A    
C19   C21   A    
O8    V2    S    
C18   C20   A    
C20   C22   A    
C33   C43   A    
C40   H16   S    
C3    C12   S    
C22   C32   A    
O17   V3    S    
C30   C32   A    
O20   V3    S    
C15   C17   A    
C6    C8    D    
O12   C48   A    
O11   C47   A    
C25   H11   S    
N2    H25   S    
C8    C45   S    
O18   V4    S    
C14   C24   A    
O10   V1    S    
C44   H18   S    
C34   C44   A    
O12   V3    S    
O19   V4    S    
