data_mof_unit_47815.cif
_audit_creation_date              2012-12-10T18:43:47-0500
_audit_creation_method            fapswitch 2.2
_symmetry_space_group_name_H-M    P1
_symmetry_Int_Tables_number       1
_space_group_crystal_system       triclinic
_cell_length_a                    10.778467
_cell_length_b                    10.710393
_cell_length_c                    9.849349
_cell_angle_alpha                 89.981081
_cell_angle_beta                  105.313709
_cell_angle_gamma                 90.005462
_cell_volume                      1096.65380788

loop_
_atom_site_label
_atom_site_type_symbol
_atom_type_description
_atom_site_fract_x
_atom_site_fract_y
_atom_site_fract_z
_atom_type_partial_charge
C1    C     C_R   0.499655 0.259904 0.499861 0.909950
C2    C     C_2   0.879757 0.501649 0.598776 -0.379183
C3    C     C_2   0.057350 0.535376 0.494270 0.338180
C4    C     C_2   0.942649 0.464626 0.505728 0.338179
C5    C     C_R   0.530182 0.064001 0.389024 -0.122266
C6    C     C_R   0.469818 0.935999 0.610976 -0.122266
C7    C     C_R   0.530581 0.936088 0.389223 -0.178893
C8    C     C_R   0.469419 0.063912 0.610777 -0.178893
C9    C     C_R   0.500327 0.872541 0.500155 -0.014081
C10   C     C_R   0.499673 0.127459 0.499845 -0.014082
C11   C     C_R   0.500345 0.740096 0.500139 0.909954
C12   C     C_R   0.258487 0.503844 0.439778 0.992653
C13   C     C_R   0.741513 0.496155 0.560222 0.992652
C14   C     C_R   0.577868 0.579513 0.094332 -0.005065
C15   C     C_R   0.422132 0.420487 0.905668 -0.005069
C16   C     C_R   0.577838 0.579470 0.950495 -0.044028
C17   C     C_R   0.422162 0.420530 0.049505 -0.044028
C18   C     C_2   0.120244 0.498350 0.401223 -0.379184
H1    H     H_    0.640193 0.643081 0.166716 0.132544
H2    H     H_    0.444666 0.112683 0.696406 0.162056
H3    H     H_    0.986836 0.164548 0.345275 0.394454
H4    H     H_    0.013169 0.835483 0.654675 0.394463
H5    H     H_    0.359807 0.356919 0.833284 0.132543
H6    H     H_    0.923159 0.561734 0.686944 0.195255
H7    H     H_    0.076842 0.438267 0.313055 0.195247
H8    H     H_    0.640099 0.643007 0.913960 0.129944
H9    H     H_    0.359901 0.356993 0.086040 0.129942
H10   H     H_    0.554688 0.112842 0.303259 0.183463
H11   H     H_    0.445313 0.887158 0.696741 0.183462
H12   H     H_    0.555334 0.887317 0.303594 0.162056
N1    N     N_R   0.499970 0.499970 0.857200 -0.082323
N2    N     N_R   0.500030 0.500030 0.142800 -0.082322
O1    O     O_R   0.499990 0.316750 0.614620 -0.638162
O2    O     O_2   0.829744 0.361321 0.254130 -0.312248
O3    O     O_3   0.020572 0.234623 0.410135 -0.577265
O4    O     O_2   0.170253 0.638684 0.745867 -0.312229
O5    O     O_2   0.201812 0.747446 0.538199 -0.308791
O6    O     O_3   0.979426 0.765381 0.589858 -0.577265
O7    O     O_R   0.500010 0.683250 0.385380 -0.638162
O8    O     O_R   0.499990 0.316780 0.385290 -0.611705
O9    O     O_R   0.500010 0.683220 0.614710 -0.611705
O10   O     O_R   0.317810 0.500000 0.571850 -0.561978
O11   O     O_R   0.682190 0.500000 0.428150 -0.561976
O12   O     O_R   0.317810 0.500030 0.342520 -0.625015
O13   O     O_R   0.682190 0.499970 0.657480 -0.625014
O14   O     O_2   0.798187 0.252555 0.461797 -0.308773
S1    S     S_3+6 0.892079 0.325715 0.404334 0.007840
S2    S     S_3+6 0.107919 0.674288 0.595663 0.007841
Zn1   Zn    Zn3+2 0.500000 0.499980 0.653120 1.014646
Zn2   Zn    Zn3+2 0.500000 0.500020 0.346880 1.014646

loop_
_geom_bond_atom_site_label_1
_geom_bond_atom_site_label_2
_ccdc_geom_bond_type
H4    O6    S    
C2    C4    D    
O11   Zn2   S    
C15   N1    A    
H3    O3    S    
C5    H10   S    
O6    S2    S    
O13   Zn1   S    
O3    S1    S    
C6    H11   S    
C6    C9    A    
C15   H5    S    
C1    O1    A    
C5    C10   A    
C12   O12   A    
C7    H12   S    
C12   O10   A    
O5    S2    D    
C11   O7    A    
C9    C11   S    
N2    Zn2   S    
C8    H2    S    
C18   H7    S    
N1    Zn1   S    
O8    Zn2   S    
C2    C13   S    
O4    S2    D    
C5    C7    A    
C2    H6    S    
C14   C16   A    
O10   Zn1   S    
O1    Zn1   S    
C3    C4    S    
C17   H9    S    
C3    S2    S    
C13   O11   A    
O7    Zn2   S    
C13   O13   A    
C3    C18   D    
C8    C10   A    
C11   O9    A    
O12   Zn2   S    
C7    C9    A    
C17   N2    A    
O14   S1    D    
C4    S1    S    
C6    C8    A    
O2    S1    D    
C1    O8    A    
C15   C17   A    
C14   H1    S    
O9    Zn1   S    
C1    C10   S    
C14   N2    A    
C16   N1    A    
C16   H8    S    
C12   C18   S    
