data_mof_unit_49987.cif
_audit_creation_date              2013-03-05T16:41:35-0500
_audit_creation_method            fapswitch 2.2
_symmetry_space_group_name_H-M    P1
_symmetry_Int_Tables_number       1
_space_group_crystal_system       triclinic
_cell_length_a                    12.8623
_cell_length_b                    10.778835
_cell_length_c                    9.873722
_cell_angle_alpha                 88.956216
_cell_angle_beta                  96.667636
_cell_angle_gamma                 91.003997
_cell_volume                      1359.25091648

loop_
_atom_site_label
_atom_site_type_symbol
_atom_site_description
_atom_site_fract_x
_atom_site_fract_y
_atom_site_fract_z
_atom_type_partial_charge
O1    O     O_R   0.500010 0.316790 0.614690 -0.575921
O2    O     O_R   0.500000 0.316760 0.385350 -0.636859
C1    C     C_R   0.500223 0.260251 0.501013 0.905383
O3    O     O_R   0.346360 0.499990 0.595720 -0.624990
O4    O     O_R   0.346350 0.499960 0.366370 -0.630620
C2    C     C_R   0.298283 0.506348 0.473512 0.916250
Zn1   Zn    Zn3+2 0.500010 0.500020 0.653130 1.056809
Zn2   Zn    Zn3+2 0.499990 0.499980 0.346870 0.973049
O5    O     O_R   0.500000 0.683240 0.614650 -0.572486
O6    O     O_R   0.499990 0.683210 0.385310 -0.629807
O7    O     O_R   0.653650 0.500040 0.633630 -0.611290
O8    O     O_R   0.653640 0.500010 0.404280 -0.641301
C3    C     C_R   0.502481 0.739394 0.499189 0.916967
C4    C     C_R   0.701928 0.502960 0.526301 0.936303
C5    C     C_R   0.814045 0.516608 0.542164 -0.114199
C6    C     C_R   0.186941 0.526556 0.457852 -0.144851
C7    C     C_R   0.022567 0.554638 0.317747 0.502980
C8    C     C_R   0.130502 0.541856 0.329029 -0.265126
C9    C     C_R   0.137360 0.533995 0.575309 -0.183475
C10   C     C_R   0.029815 0.538976 0.567178 -0.007817
C11   C     C_R   0.971752 0.544893 0.436336 0.012788
C12   C     C_R   0.864098 0.536253 0.425773 -0.215147
C13   C     C_R   0.870619 0.514307 0.671906 -0.204570
C14   C     C_R   0.978765 0.528539 0.686100 0.332074
H1    H     H_    0.819277 0.540721 0.325979 0.201440
H2    H     H_    0.830903 0.502234 0.762289 0.191398
H3    H     H_    0.169316 0.543501 0.237616 0.187169
H4    H     H_    0.182844 0.529940 0.673334 0.206934
C15   C     C_R   0.515480 0.058688 0.620935 -0.007096
C16   C     C_R   0.502381 0.128635 0.500904 -0.064181
C17   C     C_R   0.494019 0.066460 0.375455 -0.195098
H5    H     H_    0.485268 0.116623 0.279009 0.160640
C18   C     C_R   0.495692 0.937690 0.373542 -0.188190
H6    H     H_    0.485894 0.891731 0.276089 0.191542
C19   C     C_R   0.507884 0.870448 0.497296 -0.041656
C20   C     C_R   0.522533 0.934703 0.618054 -0.051643
C21   C     C_3   0.534360 0.917524 0.769735 0.353696
C22   C     C_3   0.529653 0.062424 0.774306 0.518924
C23   C     C_R   0.408088 0.496571 0.057825 0.254137
N1    N     N_R   0.499290 0.499140 0.142710 -0.128130
C24   C     C_R   0.590522 0.515164 0.085028 -0.078009
H7    H     H_    0.663929 0.525478 0.149190 0.152234
C25   C     C_R   0.590508 0.515474 0.941322 0.032499
H8    H     H_    0.663789 0.526098 0.898417 0.158404
N2    N     N_R   0.499290 0.499180 0.857070 -0.114145
C26   C     C_R   0.407905 0.496533 0.915266 0.312940
C27   C     C_3   0.326408 0.395974 0.901632 -0.508906
C28   C     C_3   0.326645 0.396951 0.055124 -0.509550
H9    H     H_    0.250754 0.426557 0.848679 0.239184
H10   H     H_    0.355622 0.310015 0.861279 0.259007
H11   H     H_    0.252138 0.430561 0.086320 0.243627
H12   H     H_    0.356036 0.310916 0.108639 0.206314
N3    N     N_R   0.634893 0.865009 0.826895 0.216895
O9    O     O_R   0.692819 0.805858 0.750531 -0.398710
O10   O     O_R   0.665144 0.873607 0.956805 -0.398365
O11   O     O_3   0.439457 0.108160 0.825820 -0.613822
C29   C     C_3   0.444656 0.090872 0.969390 0.122441
H13   H     H_    0.472035 0.178482 0.019866 0.171212
H14   H     H_    0.499162 0.016968 0.011613 0.176798
C30   C     C_3   0.335733 0.058977 0.007959 -0.761631
H15   H     H_    0.309500 0.966266 0.969748 0.311018
H16   H     H_    0.336784 0.057605 0.120446 0.192466
H17   H     H_    0.278320 0.128564 0.963815 0.268567
N4    N     N_R   0.627880 0.128519 0.823534 0.199508
O12   O     O_R   0.715189 0.100169 0.777564 -0.347236
O13   O     O_R   0.625544 0.229817 0.892616 -0.398725
O14   O     O_3   0.966094 0.566460 0.190344 -0.586039
C31   C     C_3   0.965416 0.693174 0.151225 0.061017
H18   H     H_    0.041735 0.720221 0.115618 0.194371
H19   H     H_    0.950114 0.754817 0.236243 0.132821
C32   C     C_3   0.878664 0.714175 0.035163 -0.583292
H20   H     H_    0.801611 0.690021 0.069797 0.235357
H21   H     H_    0.878869 0.813145 0.001953 0.250576
H22   H     H_    0.890427 0.655802 0.947175 0.268569
N5    N     N_R   0.035219 0.527811 0.820520 0.167742
O15   O     O_R   0.099142 0.618979 0.858141 -0.413370
O16   O     O_R   0.010337 0.447513 0.911829 -0.359940
N6    N     N_R   0.444119 0.850921 0.817062 0.201734
O17   O     O_R   0.455635 0.784087 0.928695 -0.414334
O18   O     O_R   0.351832 0.856664 0.747418 -0.373254

loop_
_geom_bond_atom_site_label_1
_geom_bond_atom_site_label_2
_geom_bond_distance
_ccdc_geom_bond_type
C24   H7    1.079426 S    
C9    C10   1.378207 A    
C25   H8    1.080829 S    
C27   H9    1.102613 S    
N2    C26   1.366632 A    
Zn1   O7    2.007644 S    
C15   C20   1.342121 A    
C21   C22   1.565761 S    
C30   H17   1.109357 S    
Zn1   N2    2.014597 S    
C20   C21   1.496125 S    
C5    C12   1.392185 A    
C3    C19   1.412990 S    
C31   C32   1.520529 S    
C16   C17   1.411279 A    
O7    C4    1.288624 A    
N6    O18   1.302752 A    
C29   H14   1.113324 S    
O11   C29   1.420388 S    
C30   H16   1.109008 S    
C13   H2    1.083327 S    
O5    C3    1.284403 A    
C28   H11   1.108733 S    
C10   C14   1.412165 A    
C31   H18   1.112924 S    
C12   H1    1.083003 S    
C15   C22   1.505304 S    
C13   C14   1.387833 A    
C17   C18   1.389047 A    
C21   N3    1.468178 S    
C5    C13   1.397929 A    
C11   C12   1.378110 A    
C24   C25   1.418829 A    
O3    Zn1   1.991705 S    
C18   H6    1.083586 S    
C27   H10   1.104005 S    
C22   N4    1.475987 S    
N3    O10   1.300946 A    
C7    O14   1.382567 S    
O14   C31   1.412510 S    
C27   C28   1.515413 S    
O3    C2    1.291620 A    
C23   N1    1.360407 A    
C32   H21   1.110362 S    
N6    O17   1.301056 A    
C29   C30   1.525863 S    
N3    O9    1.301830 A    
C7    C11   1.407158 A    
C30   H15   1.107787 S    
O1    C1    1.287209 A    
C19   C20   1.382088 A    
N4    O13   1.300530 A    
C1    C16   1.419450 S    
N5    O15   1.301429 A    
C15   C16   1.388138 A    
C32   H22   1.107832 S    
N5    O16   1.301243 A    
C17   H5    1.081827 S    
Zn2   O8    1.991705 S    
C7    C8    1.388875 A    
C6    C8    1.397925 A    
C9    H4    1.071822 S    
C25   N2    1.367803 A    
C23   C26   1.407318 A    
C31   H19   1.117206 S    
N1    C24   1.369567 A    
O8    C4    1.290443 A    
Zn1   O5    2.004305 S    
C26   C27   1.491482 S    
O1    Zn1   2.017924 S    
O2    Zn2   2.004305 S    
C8    H3    1.080725 S    
O6    C3    1.283679 A    
O4    Zn2   2.007645 S    
C14   N5    1.436972 S    
C21   N6    1.471568 S    
N4    O12   1.302294 A    
O2    C1    1.284212 A    
C32   H20   1.110569 S    
C29   H13   1.108553 S    
O4    C2    1.289244 A    
C6    C9    1.391059 A    
C18   C19   1.403642 A    
C2    C6    1.442418 S    
C28   H12   1.109119 S    
C22   O11   1.419094 S    
C10   C11   1.416129 A    
Zn2   O6    2.017922 S    
C4    C5    1.437608 S    
Zn2   N1    2.014979 S    
C23   C28   1.485338 S    
