data_mof_unit_57826.cif
_audit_creation_date              2012-12-11T14:08:22-0500
_audit_creation_method            fapswitch 2.2
_symmetry_space_group_name_H-M    P1
_symmetry_Int_Tables_number       1
_space_group_crystal_system       monoclinic
_cell_length_a                    27.94729
_cell_length_b                    7.194101
_cell_length_c                    17.197627
_cell_angle_alpha                 90.0
_cell_angle_beta                  100.584255
_cell_angle_gamma                 90.0
_cell_volume                      3398.85023996

loop_
_atom_site_label
_atom_site_type_symbol
_atom_type_description
_atom_site_fract_x
_atom_site_fract_y
_atom_site_fract_z
_atom_type_partial_charge
O1    O     O_R   0.000700 0.436510 0.857920 -0.535792
O2    O     O_R   0.999300 0.563490 0.142080 -0.528421
O3    O     O_R   0.999300 0.936510 0.642080 -0.535793
O4    O     O_R   0.000700 0.063490 0.357920 -0.528421
O5    O     O_R   0.930080 0.766380 0.721890 -0.538751
O6    O     O_R   0.069920 0.233620 0.278110 -0.540060
O7    O     O_R   0.069920 0.266380 0.778110 -0.538751
O8    O     O_R   0.930080 0.733620 0.221890 -0.540060
C1    C     C_R   0.910624 0.597610 0.711326 0.719751
C2    C     C_R   0.089162 0.401851 0.293855 0.694813
C3    C     C_R   0.089376 0.097610 0.788674 0.719752
C4    C     C_R   0.910837 0.901851 0.206145 0.694813
O9    O     O_R   0.996180 0.766230 0.862310 -0.542597
O10   O     O_R   0.003820 0.233770 0.137690 -0.550524
O11   O     O_R   0.003820 0.266230 0.637690 -0.542598
O12   O     O_R   0.996180 0.733770 0.362310 -0.550524
O13   O     O_R   0.065870 0.936460 0.783500 -0.541270
O14   O     O_R   0.934130 0.063540 0.216500 -0.539326
O15   O     O_R   0.934130 0.436460 0.716500 -0.541270
O16   O     O_R   0.065870 0.563540 0.283500 -0.539326
C5    C     C_R   0.998284 0.596457 0.894446 0.760070
C6    C     C_R   0.001204 0.403448 0.105408 0.751566
C7    C     C_R   0.001715 0.096457 0.605554 0.760070
C8    C     C_R   0.998796 0.903448 0.394592 0.751566
O17   O     O_3   0.022790 0.603020 0.723980 -0.379330
O18   O     O_3   0.977210 0.396980 0.276020 -0.375072
O19   O     O_3   0.977210 0.103020 0.776020 -0.379330
O20   O     O_3   0.022790 0.896980 0.223980 -0.375072
V1    V     V_3+5 0.995770 0.877900 0.754830 1.369279
V2    V     V_3+5 0.004230 0.122100 0.245170 1.384664
V3    V     V_3+5 0.004230 0.377900 0.745170 1.369279
V4    V     V_3+5 0.995770 0.622100 0.254830 1.384664
C9    C     C_2   0.001977 0.082674 0.519597 -0.330439
C10   C     C_2   0.999471 0.917134 0.480813 -0.351673
C11   C     C_2   0.998023 0.582674 0.980403 -0.330439
C12   C     C_2   0.000529 0.417133 0.019186 -0.351672
C13   C     C_R   0.685378 0.932596 0.997335 0.565655
C14   C     C_R   0.317999 0.003647 0.958074 0.577189
C15   C     C_R   0.314622 0.432596 0.502665 0.565656
C16   C     C_R   0.682001 0.503645 0.541925 0.577190
O21   O     O_2   0.714121 0.893642 0.944428 -0.523546
O22   O     O_2   0.288554 0.961659 0.009601 -0.531385
O23   O     O_2   0.285879 0.393642 0.555572 -0.523546
O24   O     O_2   0.711446 0.461658 0.490399 -0.531386
N1    N     N_R   0.705177 0.943771 0.076477 -0.540712
N2    N     N_R   0.298299 0.045566 0.880986 -0.544254
N3    N     N_R   0.294823 0.443771 0.423523 -0.540712
N4    N     N_R   0.701701 0.545565 0.619013 -0.544254
C17   C     C_R   0.676348 0.986357 0.130599 0.537126
C18   C     C_R   0.327950 0.086846 0.827807 0.542598
C19   C     C_R   0.323652 0.486356 0.369400 0.537125
C20   C     C_R   0.672050 0.586845 0.672192 0.542597
C21   C     C_R   0.774850 0.781550 0.161696 0.167486
C22   C     C_R   0.220599 0.937115 0.795862 0.161436
C23   C     C_R   0.225150 0.281550 0.338303 0.167486
C24   C     C_R   0.779401 0.437115 0.704138 0.161437
C25   C     C_R   0.823613 0.797394 0.204146 0.056981
C26   C     C_R   0.170035 0.968398 0.767251 0.061443
C27   C     C_R   0.176386 0.297394 0.295853 0.056981
C28   C     C_R   0.829965 0.468398 0.732748 0.061443
C29   C     C_R   0.840306 0.018123 0.103416 0.076671
C30   C     C_R   0.168516 0.189723 0.875595 0.061990
C31   C     C_R   0.159694 0.518123 0.396584 0.076671
C32   C     C_R   0.831484 0.689723 0.624405 0.061990
C33   C     C_R   0.790063 0.032473 0.075548 -0.161892
C34   C     C_R   0.219375 0.177802 0.894735 -0.175759
C35   C     C_R   0.209937 0.532473 0.424452 -0.161892
C36   C     C_R   0.780625 0.677802 0.605265 -0.175760
C37   C     C_R   0.757028 0.916883 0.103870 0.304208
C38   C     C_R   0.245771 0.052933 0.856586 0.287802
C39   C     C_R   0.242972 0.416882 0.396130 0.304208
C40   C     C_R   0.754229 0.552932 0.643413 0.287802
C41   C     C_R   0.604554 0.986515 0.026695 -0.043011
C42   C     C_R   0.399647 0.033491 0.929099 -0.043081
C43   C     C_R   0.395446 0.486514 0.473305 -0.043011
C44   C     C_R   0.600353 0.533489 0.570901 -0.043081
C45   C     C_R   0.634953 0.959310 0.970879 -0.030105
C46   C     C_R   0.368805 0.003349 0.984032 -0.033633
C47   C     C_R   0.365047 0.459310 0.529121 -0.030104
C48   C     C_R   0.631195 0.503348 0.515968 -0.033633
C49   C     C_R   0.614238 0.956283 0.890259 -0.136539
C50   C     C_R   0.389280 0.971560 0.063454 -0.132470
C51   C     C_R   0.385761 0.456282 0.609741 -0.136539
C52   C     C_R   0.610720 0.471558 0.436545 -0.132470
C53   C     C_R   0.625530 0.998721 0.107387 -0.025895
C54   C     C_R   0.378974 0.072617 0.849901 -0.027097
C55   C     C_R   0.374470 0.498720 0.392613 -0.025895
C56   C     C_R   0.621026 0.572616 0.650098 -0.027097
C57   C     C_R   0.857634 0.908934 0.172081 -0.142900
C58   C     C_R   0.143308 0.086649 0.810393 -0.114019
C59   C     C_R   0.142366 0.408934 0.327919 -0.142900
C60   C     C_R   0.856692 0.586649 0.689606 -0.114019
C61   C     C_R   0.481703 0.035583 0.896129 0.034655
C62   C     C_R   0.522821 0.009851 0.059531 0.036389
C63   C     C_R   0.518297 0.535582 0.603871 0.034655
C64   C     C_R   0.477179 0.509850 0.440469 0.036389
C65   C     C_R   0.471444 0.003712 0.034830 0.034732
C66   C     C_R   0.532791 0.007523 0.920073 0.035800
C67   C     C_R   0.528556 0.503710 0.465169 0.034732
C68   C     C_R   0.467209 0.507522 0.579927 0.035800
C69   C     C_R   0.451107 0.024399 0.953414 0.065438
C70   C     C_R   0.553226 0.001633 0.001964 0.065506
C71   C     C_R   0.548893 0.524398 0.546586 0.065438
C72   C     C_R   0.446774 0.501632 0.498036 0.065506
C73   C     C_R   0.459929 0.075385 0.816949 -0.189059
C74   C     C_R   0.545012 0.025280 0.140041 -0.185500
C75   C     C_R   0.540071 0.575384 0.683051 -0.189059
C76   C     C_R   0.454988 0.525279 0.359958 -0.185500
C77   C     C_R   0.409625 0.096446 0.794698 -0.145533
C78   C     C_R   0.595415 0.022655 0.163251 -0.140773
C79   C     C_R   0.590375 0.596446 0.705301 -0.145532
C80   C     C_R   0.404585 0.522653 0.336749 -0.140773
O25   O     O_2   0.308147 0.139120 0.753497 -0.529973
O26   O     O_2   0.696803 0.015887 0.207011 -0.539653
O27   O     O_2   0.691853 0.639119 0.746502 -0.529973
O28   O     O_2   0.303197 0.515885 0.292989 -0.539653
C81   C     C_R   0.564278 0.982481 0.865169 -0.192839
C82   C     C_R   0.439553 0.974333 0.088683 -0.182613
C83   C     C_R   0.435722 0.482480 0.634830 -0.192840
C84   C     C_R   0.560447 0.474332 0.411317 -0.182613
H1    H     H_    0.394767 0.127990 0.733438 0.165324
H2    H     H_    0.610644 0.035437 0.225663 0.165747
H3    H     H_    0.605233 0.627990 0.766562 0.165324
H4    H     H_    0.389356 0.535435 0.274336 0.165747
H5    H     H_    0.481140 0.096803 0.771255 0.126237
H6    H     H_    0.524218 0.045382 0.186371 0.120963
H7    H     H_    0.518860 0.596803 0.728744 0.126237
H8    H     H_    0.475782 0.545380 0.313629 0.120963
H9    H     H_    0.550974 0.975469 0.802257 0.126275
H10   H     H_    0.452578 0.945843 0.150527 0.121442
H11   H     H_    0.449026 0.475468 0.697743 0.126275
H12   H     H_    0.547422 0.445842 0.349473 0.121442
H13   H     H_    0.003781 0.211812 0.487536 0.153925
H14   H     H_    0.998024 0.787963 0.512957 0.154700
H15   H     H_    0.996219 0.711812 0.012464 0.153925
H16   H     H_    0.001976 0.287963 0.987043 0.154700
C85   C     C_3   0.873184 0.118397 0.055770 -0.343452
C86   C     C_3   0.870005 0.030315 0.974171 -0.768718
H17   H     H_    0.880580 0.881499 0.980547 0.227665
H18   H     H_    0.832582 0.041679 0.939071 0.248893
H19   H     H_    0.895485 0.102281 0.941687 0.212641
H20   H     H_    0.862330 0.266924 0.049296 0.168379
H21   H     H_    0.911975 0.115812 0.083237 0.201293
C87   C     C_3   0.142742 0.314166 0.926361 -0.330568
C88   C     C_3   0.110317 0.203325 0.972298 -0.739714
H22   H     H_    0.075698 0.162444 0.933720 0.222109
H23   H     H_    0.129237 0.075927 0.998342 0.226045
H24   H     H_    0.101192 0.290452 0.020826 0.212011
H25   H     H_    0.169750 0.390940 0.970309 0.176115
H26   H     H_    0.121153 0.422671 0.889750 0.192679
C89   C     C_3   0.126816 0.618398 0.444230 -0.343453
C90   C     C_3   0.129994 0.530315 0.525828 -0.768717
H27   H     H_    0.119419 0.381499 0.519453 0.227665
H28   H     H_    0.167418 0.541677 0.560929 0.248893
H29   H     H_    0.104515 0.602281 0.558313 0.212641
H30   H     H_    0.137670 0.766924 0.450704 0.168379
H31   H     H_    0.088025 0.615813 0.416762 0.201294
C91   C     C_3   0.857258 0.814166 0.573639 -0.330568
C92   C     C_3   0.889682 0.703325 0.527702 -0.739715
H32   H     H_    0.924302 0.662444 0.566279 0.222109
H33   H     H_    0.870763 0.575927 0.501658 0.226045
H34   H     H_    0.898808 0.790453 0.479174 0.212012
H35   H     H_    0.830250 0.890940 0.529691 0.176115
H36   H     H_    0.878847 0.922671 0.610250 0.192679
H37   H     H_    0.776527 0.130048 0.028658 0.153585
H38   H     H_    0.239060 0.263336 0.941854 0.149084
H39   H     H_    0.223473 0.630047 0.471342 0.153585
H40   H     H_    0.760940 0.763335 0.558145 0.149084
H41   H     H_    0.636667 0.934765 0.845922 0.180679
H42   H     H_    0.366457 0.946110 0.106906 0.168964
H43   H     H_    0.363333 0.434765 0.654077 0.180679
H44   H     H_    0.633543 0.446108 0.393094 0.168964
C93   C     C_3   0.146759 0.896420 0.685495 -0.374285
C94   C     C_3   0.160444 0.021655 0.621305 -0.740763
H45   H     H_    0.149289 0.167051 0.630362 0.227131
H46   H     H_    0.200269 0.018253 0.622409 0.256323
H47   H     H_    0.141355 0.974454 0.562317 0.212914
H48   H     H_    0.157644 0.751498 0.676255 0.189613
H49   H     H_    0.106615 0.892036 0.675901 0.191418
C95   C     C_3   0.837528 0.707239 0.285554 -0.360994
C96   C     C_3   0.806245 0.782234 0.343032 -0.718805
H50   H     H_    0.816269 0.928791 0.358595 0.229062
H51   H     H_    0.766795 0.776568 0.318104 0.255763
H52   H     H_    0.812344 0.697485 0.397663 0.229952
H53   H     H_    0.834553 0.553756 0.280642 0.181394
H54   H     H_    0.875629 0.735641 0.314005 0.183606
C97   C     C_3   0.853240 0.396421 0.814505 -0.374284
C98   C     C_3   0.839555 0.521655 0.878695 -0.740761
H55   H     H_    0.850710 0.667051 0.869638 0.227131
H56   H     H_    0.799731 0.518251 0.877590 0.256323
H57   H     H_    0.858645 0.474455 0.937683 0.212914
H58   H     H_    0.842356 0.251498 0.823745 0.189613
H59   H     H_    0.893385 0.392038 0.824099 0.191418
C99   C     C_3   0.162472 0.207239 0.214446 -0.360994
C100  C     C_3   0.193755 0.282233 0.156968 -0.718805
H60   H     H_    0.183731 0.428790 0.141404 0.229062
H61   H     H_    0.233204 0.276566 0.181895 0.255763
H62   H     H_    0.187656 0.197484 0.102337 0.229952
H63   H     H_    0.165446 0.053756 0.219358 0.181394
H64   H     H_    0.124371 0.235642 0.185995 0.183606
C101  C     C_3   0.246457 0.772361 0.765978 -0.308978
C102  C     C_3   0.230372 0.589538 0.798480 -0.765658
H65   H     H_    0.240735 0.588213 0.864015 0.232784
H66   H     H_    0.190444 0.569261 0.782085 0.220471
H67   H     H_    0.248705 0.471395 0.774464 0.260175
H68   H     H_    0.240079 0.768765 0.700435 0.197637
H69   H     H_    0.286424 0.778754 0.784835 0.198375
C103  C     C_3   0.742556 0.616556 0.173634 -0.344636
C104  C     C_3   0.734002 0.491264 0.100700 -0.740053
H70   H     H_    0.712844 0.564761 0.048898 0.246495
H71   H     H_    0.769405 0.446009 0.086481 0.220860
H72   H     H_    0.713145 0.366330 0.112453 0.234027
H73   H     H_    0.758676 0.527922 0.224154 0.200375
H74   H     H_    0.707072 0.662707 0.186617 0.205739
C105  C     C_3   0.753543 0.272360 0.734021 -0.308978
C106  C     C_3   0.769628 0.089538 0.701520 -0.765658
H75   H     H_    0.759265 0.088213 0.635985 0.232784
H76   H     H_    0.809556 0.069261 0.717915 0.220471
H77   H     H_    0.751295 0.971395 0.725535 0.260175
H78   H     H_    0.759921 0.268764 0.799565 0.197637
H79   H     H_    0.713576 0.278753 0.715164 0.198375
C107  C     C_3   0.257444 0.116555 0.326366 -0.344637
C108  C     C_3   0.265997 0.991263 0.399300 -0.740054
H80   H     H_    0.287156 0.064760 0.451102 0.246496
H81   H     H_    0.230595 0.946009 0.413519 0.220860
H82   H     H_    0.286855 0.866329 0.387546 0.234027
H83   H     H_    0.241324 0.027921 0.275846 0.200375
H84   H     H_    0.292928 0.162706 0.313383 0.205739

loop_
_geom_bond_atom_site_label_1
_geom_bond_atom_site_label_2
_ccdc_geom_bond_type
O17   V3    S    
C67   C71   A    
C85   H20   S    
C50   H42   S    
O1    C5    A    
C103  H73   S    
C23   C27   A    
O19   V1    S    
O13   V1    S    
C101  C102  S    
O3    C7    A    
C108  H80   S    
C106  H77   S    
C68   C72   A    
C48   C52   A    
C21   C37   A    
C21   C103  S    
C88   H22   S    
C102  H66   S    
C108  H82   S    
O4    V2    S    
C45   C49   A    
C34   C38   A    
C96   H50   S    
O7    C3    A    
C25   C57   A    
C98   H57   S    
C32   C36   A    
O9    V1    S    
N4    C40   S    
C80   H4    S    
N4    C20   A    
C22   C26   A    
O4    C8    A    
C96   H52   S    
C93   H49   S    
C64   C67   A    
C49   C81   A    
O1    V3    S    
C104  H72   S    
C52   C84   A    
O2    V4    S    
C51   C83   A    
C65   C82   A    
O3    V1    S    
C94   H45   S    
C24   C105  S    
C87   H26   S    
C61   C73   A    
C67   C84   A    
C56   C79   A    
C1    O15   A    
C99   H64   S    
C11   C12   D    
C98   H56   S    
C2    O16   A    
C103  C104  S    
C24   C40   A    
C102  H67   S    
C51   H43   S    
O2    C6    A    
C83   H11   S    
C101  H68   S    
C16   C48   A    
O14   V2    S    
C49   H41   S    
C81   H9    S    
C44   C56   A    
C91   H36   S    
C100  H62   S    
C44   C71   A    
O11   C7    A    
C17   O26   S    
C85   H21   S    
C89   C90   S    
O15   V3    S    
O12   C8    A    
C97   H59   S    
C31   C59   A    
O10   V2    S    
C105  H79   S    
C1    C60   S    
C88   H23   S    
C63   C71   A    
N2    C18   A    
C104  H70   S    
O5    V1    S    
C28   C60   A    
C27   C99   S    
C31   C35   A    
O7    V3    S    
C102  H65   S    
C30   C34   A    
C79   H3    S    
O8    V4    S    
C17   C53   A    
C4    C57   S    
C20   C56   A    
C54   C77   A    
C106  H75   S    
C53   C78   A    
C86   H17   S    
C96   H51   S    
C19   C55   A    
C21   C25   A    
C63   C68   A    
N3    C19   A    
C55   C80   A    
C14   C46   A    
C62   C65   A    
C7    C9    S    
C93   C94   S    
N1    C37   S    
C42   C54   A    
C76   C80   A    
C36   C40   A    
C15   C47   A    
C105  C106  S    
N2    C38   S    
C61   C69   A    
O5    C1    A    
C87   H25   S    
C82   H10   S    
C9    H13   S    
C46   C50   A    
C92   H32   S    
C22   C38   A    
C90   H29   S    
N1    C17   A    
O8    C4    A    
C31   C89   S    
C92   H33   S    
C9    C10   D    
C101  H69   S    
C92   H34   S    
O9    C5    A    
C68   C83   A    
C27   C59   A    
C89   H30   S    
C76   H8    S    
C26   C58   A    
C94   H47   S    
N3    C39   S    
C97   H58   S    
C95   H54   S    
C91   H35   S    
C42   C69   A    
C5    C11   S    
C36   H40   S    
C43   C55   A    
C41   C70   A    
O6    V2    S    
C90   H28   S    
C2    C59   S    
C28   C97   S    
C23   C107  S    
C91   C92   S    
C86   H18   S    
C26   C93   S    
C50   C82   A    
C13   N1    A    
C89   H31   S    
C88   H24   S    
C95   C96   S    
C66   C81   A    
C15   N3    A    
O16   V4    S    
C20   O27   S    
C35   H39   S    
C16   N4    A    
C73   C77   A    
C62   C74   A    
C103  H74   S    
C84   H12   S    
C107  H83   S    
C75   C79   A    
C14   O22   S    
C11   H15   S    
C44   C48   A    
C34   H38   S    
C106  H76   S    
C87   C88   S    
C52   H44   S    
C86   H19   S    
C3    O13   A    
O6    C2    A    
C25   C95   S    
C15   O23   S    
C108  H81   S    
O11   V3    S    
O18   V4    S    
C10   H14   S    
O12   V4    S    
C22   C101  S    
C6    C12   S    
C85   C86   S    
C74   H6    S    
C19   O28   S    
C73   H5    S    
C12   H16   S    
C18   O25   S    
O10   C6    A    
C64   C72   A    
C75   H7    S    
C41   C53   A    
C66   C70   A    
C105  H78   S    
C78   H2    S    
C47   C51   A    
C3    C58   S    
C29   C85   S    
C43   C72   A    
C13   C45   A    
C93   H48   S    
C33   C37   A    
C30   C58   A    
O20   V2    S    
C104  H71   S    
C94   H46   S    
C63   C75   A    
C99   C100  S    
C35   C39   A    
C13   O21   S    
C107  C108  S    
C29   C57   A    
C32   C91   S    
C65   C69   A    
C14   N2    A    
C95   H53   S    
C18   C54   A    
C100  H60   S    
C99   H63   S    
C29   C33   A    
C16   O24   S    
C33   H37   S    
C24   C28   A    
C90   H27   S    
C62   C70   A    
C74   C78   A    
C107  H84   S    
C42   C46   A    
C4    O14   A    
C41   C45   A    
C8    C10   S    
C64   C76   A    
C97   C98   S    
C77   H1    S    
C32   C60   A    
C43   C47   A    
C61   C66   A    
C98   H55   S    
C23   C39   A    
C30   C87   S    
C100  H61   S    
