data_mof_unit_61013.cif
_audit_creation_date              2012-10-26T19:16:40-0400
_audit_creation_method            fapswitch 2.2
_symmetry_space_group_name_H-M    P1
_symmetry_Int_Tables_number       1
_space_group_crystal_system       triclinic
_cell_length_a                    13.902705
_cell_length_b                    14.772364
_cell_length_c                    16.015441
_cell_angle_alpha                 90.108962
_cell_angle_beta                  89.987269
_cell_angle_gamma                 84.86162
_cell_volume                      3275.95987118

loop_
_atom_site_label
_atom_site_type_symbol
_atom_type_description
_atom_site_fract_x
_atom_site_fract_y
_atom_site_fract_z
_atom_type_partial_charge
C1    C     C_R   0.499978 0.500124 0.659093 0.547212
C2    C     C_R   0.451465 0.956060 0.437341 0.358981
C3    C     C_1   0.500033 0.197316 0.499979 0.292236
C4    C     C_1   0.499967 0.802683 0.500020 0.292236
C5    C     C_R   0.683470 0.485458 0.499975 0.544946
C6    C     C_R   0.316530 0.514542 0.500025 0.544946
C7    C     C_1   0.213509 0.523447 0.500042 0.019746
C8    C     C_1   0.786491 0.476552 0.499958 0.019746
C9    C     C_2   0.023289 0.537532 0.500073 -0.104191
C10   C     C_2   0.976711 0.462468 0.499927 -0.104191
C11   C     C_1   0.873221 0.469489 0.499943 -0.017431
C12   C     C_R   0.500022 0.499876 0.340907 0.547212
C13   C     C_1   0.126779 0.530511 0.500057 -0.017431
C14   C     C_R   0.491684 0.416166 0.041231 0.022577
C15   C     C_R   0.508316 0.583834 0.958769 0.022577
C16   C     C_R   0.499652 0.496894 0.087387 0.042022
C17   C     C_R   0.500348 0.503106 0.912613 0.042022
C18   C     C_R   0.507820 0.579245 0.046069 -0.152112
C19   C     C_R   0.492180 0.420755 0.953931 -0.152112
C20   C     C_1   0.499778 0.498219 0.176983 0.033338
C21   C     C_1   0.500222 0.501781 0.823017 0.033338
C22   C     C_2   0.482728 0.325859 0.080055 0.262016
C23   C     C_1   0.500084 0.500589 0.748065 0.042759
C24   C     C_2   0.517272 0.674141 0.919945 0.262016
C25   C     C_1   0.499916 0.499411 0.251935 0.042759
C26   C     C_R   0.451491 0.051865 0.437326 0.365841
C27   C     C_R   0.548509 0.948135 0.562674 0.365841
C28   C     C_R   0.500025 0.097119 0.499986 -0.099244
C29   C     C_R   0.499975 0.902881 0.500014 -0.099244
C30   C     C_R   0.548535 0.043940 0.562659 0.358981
Cu1   Cu    Cu3+1 0.499970 0.410780 0.500000 1.086709
Cu2   Cu    Cu3+1 0.500030 0.589220 0.500000 1.086709
F1    F     F_    0.403833 0.915172 0.375856 -0.553045
F2    F     F_    0.596167 0.084828 0.624144 -0.553045
F3    F     F_    0.403889 0.100531 0.375824 -0.540331
F4    F     F_    0.596111 0.899469 0.624176 -0.540331
H1    H     H_    0.015993 0.395470 0.499793 0.157588
H2    H     H_    0.984007 0.604530 0.500207 0.157588
H3    H     H_    0.486129 0.359488 0.917524 0.117445
H4    H     H_    0.513871 0.640512 0.082476 0.117445
H5    H     H_    0.476926 0.266880 0.040426 0.126957
H6    H     H_    0.523074 0.733120 0.959574 0.126957
N1    N     N_1   0.499970 0.723290 0.500020 -0.159528
N2    N     N_1   0.500030 0.276710 0.499980 -0.159528
O1    O     O_R   0.499950 0.424680 0.619690 -0.498059
O2    O     O_2   0.518362 0.684569 0.844390 -0.452459
O3    O     O_R   0.500050 0.575320 0.380310 -0.498059
O4    O     O_R   0.500000 0.575360 0.619690 -0.465960
O5    O     O_R   0.500000 0.424640 0.380310 -0.465960
O6    O     O_R   0.637820 0.414010 0.499980 -0.488247
O7    O     O_R   0.362180 0.585990 0.500020 -0.488248
O8    O     O_R   0.637870 0.564690 0.499980 -0.489764
O9    O     O_R   0.362130 0.435310 0.500020 -0.489764
O10   O     O_2   0.481638 0.315431 0.155610 -0.452459

loop_
_geom_bond_atom_site_label_1
_geom_bond_atom_site_label_2
_ccdc_geom_bond_type
C2    C26   A    
C15   C18   A    
Cu2   O7    S    
C6    C7    S    
C4    N1    T    
C27   F4    S    
C27   C29   A    
C24   H6    S    
C9    C10   D    
C26   C28   A    
C4    C29   S    
C8    C11   T    
C12   C25   S    
C16   C20   S    
C24   O2    D    
C14   C22   S    
C28   C30   A    
C12   O5    A    
C22   O10   D    
Cu1   O9    S    
C27   C30   A    
Cu2   O4    S    
C1    O1    A    
C19   H3    S    
Cu1   O5    S    
C10   H1    S    
C14   C19   A    
C2    F1    S    
C15   C24   S    
C17   C19   A    
Cu2   N1    S    
C1    C23   S    
C12   O3    A    
C1    O4    A    
Cu1   O1    S    
C5    O6    A    
Cu2   O3    S    
C14   C16   A    
C3    N2    T    
C22   H5    S    
C3    C28   S    
Cu1   N2    S    
C30   F2    S    
Cu1   O6    S    
C9    C13   S    
C26   F3    S    
C7    C13   T    
C2    C29   A    
C16   C18   A    
C10   C11   S    
C6    O7    A    
C15   C17   A    
C5    C8    S    
C9    H2    S    
C18   H4    S    
C6    O9    A    
C5    O8    A    
C21   C23   T    
Cu2   O8    S    
Cu1   Cu2   S    
C20   C25   T    
C17   C21   S    
