data_mof_unit_55834.cif
_audit_creation_date              2012-12-11T14:08:41-0500
_audit_creation_method            fapswitch 2.2
_symmetry_space_group_name_H-M    P1
_symmetry_Int_Tables_number       1
_space_group_crystal_system       triclinic
_cell_length_a                    27.740985
_cell_length_b                    7.230758
_cell_length_c                    17.346318
_cell_angle_alpha                 90.077619
_cell_angle_beta                  99.444698
_cell_angle_gamma                 89.731891
_cell_volume                      3432.26497474

loop_
_atom_site_label
_atom_site_type_symbol
_atom_type_description
_atom_site_fract_x
_atom_site_fract_y
_atom_site_fract_z
_atom_type_partial_charge
O1    O     O_R   0.000700 0.436510 0.857920 -0.547296
O2    O     O_R   0.999300 0.563490 0.142080 -0.526386
O3    O     O_R   0.999300 0.936510 0.642080 -0.548519
O4    O     O_R   0.000700 0.063490 0.357920 -0.526894
O5    O     O_R   0.930080 0.766380 0.721890 -0.510237
O6    O     O_R   0.069920 0.233620 0.278110 -0.539127
O7    O     O_R   0.069920 0.266380 0.778110 -0.518212
O8    O     O_R   0.930080 0.733620 0.221890 -0.535799
C1    C     C_R   0.910563 0.597755 0.711346 0.785791
C2    C     C_R   0.089579 0.402391 0.287692 0.773889
C3    C     C_R   0.089361 0.097038 0.787671 0.788452
C4    C     C_R   0.910346 0.903271 0.212789 0.768829
O9    O     O_R   0.996180 0.766230 0.862310 -0.529371
O10   O     O_R   0.003820 0.233770 0.137690 -0.551459
O11   O     O_R   0.003820 0.266230 0.637690 -0.529555
O12   O     O_R   0.996180 0.733770 0.362310 -0.550056
O13   O     O_R   0.065870 0.936460 0.783500 -0.545238
O14   O     O_R   0.934130 0.063540 0.216500 -0.516378
O15   O     O_R   0.934130 0.436460 0.716500 -0.542739
O16   O     O_R   0.065870 0.563540 0.283500 -0.516961
C5    C     C_R   0.998594 0.596435 0.894474 0.788107
C6    C     C_R   0.001304 0.403497 0.105501 0.788988
C7    C     C_R   0.001244 0.096333 0.605519 0.792861
C8    C     C_R   0.998637 0.903620 0.394443 0.785172
O17   O     O_3   0.022790 0.603020 0.723980 -0.381226
O18   O     O_3   0.977210 0.396980 0.276020 -0.352705
O19   O     O_3   0.977210 0.103020 0.776020 -0.368277
O20   O     O_3   0.022790 0.896980 0.223980 -0.356129
V1    V     V_3+5 0.995770 0.877900 0.754830 1.585669
V2    V     V_3+5 0.004230 0.122100 0.245170 1.616741
V3    V     V_3+5 0.004230 0.377900 0.745170 1.571069
V4    V     V_3+5 0.995770 0.622100 0.254830 1.623843
C9    C     C_2   0.001478 0.082140 0.519652 -0.249509
C10   C     C_2   0.998414 0.917809 0.480312 -0.289078
C11   C     C_2   0.998385 0.582236 0.980379 -0.249106
C12   C     C_2   0.001495 0.417691 0.019592 -0.288720
H1    H     H_    0.004075 0.210413 0.488130 0.156849
H2    H     H_    0.995815 0.789541 0.511834 0.146231
H3    H     H_    0.995789 0.710609 0.012037 0.154635
H4    H     H_    0.004109 0.289321 0.987942 0.143793
C13   C     C_R   0.683136 0.959247 0.035173 0.698762
C14   C     C_R   0.317303 0.159439 0.945645 0.679761
C15   C     C_R   0.316012 0.462271 0.465699 0.699691
C16   C     C_R   0.682805 0.666055 0.548868 0.659291
O21   O     O_2   0.715653 0.959251 0.985361 -0.503448
O22   O     O_2   0.290873 0.311890 0.955572 -0.525128
O23   O     O_2   0.283427 0.464488 0.515380 -0.485045
O24   O     O_2   0.710889 0.803314 0.528551 -0.542968
N1    N     N_R   0.700404 0.969092 0.113952 -0.516542
N2    N     N_R   0.295969 0.021032 0.897887 -0.510190
N3    N     N_R   0.298893 0.470522 0.386912 -0.518315
N4    N     N_R   0.703208 0.541796 0.604501 -0.506112
C17   C     C_R   0.668238 0.999472 0.164970 0.716396
C18   C     C_R   0.322829 0.872452 0.879324 0.702757
C19   C     C_R   0.331036 0.502347 0.336133 0.711280
C20   C     C_R   0.675856 0.405465 0.630667 0.718899
C21   C     C_R   0.779356 0.093692 0.188335 -0.154847
C22   C     C_R   0.228039 0.086340 0.788262 -0.123549
C23   C     C_R   0.219742 0.590984 0.311200 -0.143108
C24   C     C_R   0.772440 0.685279 0.693377 -0.163956
C25   C     C_R   0.829119 0.063532 0.221830 0.264658
C26   C     C_R   0.177182 0.112593 0.759950 0.354858
C27   C     C_R   0.170292 0.558535 0.277483 0.265999
C28   C     C_R   0.823252 0.694106 0.723799 0.339153
C29   C     C_R   0.830115 0.781917 0.146408 -0.318412
C30   C     C_R   0.159811 0.032821 0.889106 -0.328003
C31   C     C_R   0.169834 0.281524 0.355444 -0.311766
C32   C     C_R   0.838465 0.458486 0.630129 -0.299366
C33   C     C_R   0.779216 0.791463 0.123570 -0.028017
C34   C     C_R   0.209518 0.007404 0.917477 -0.015352
C35   C     C_R   0.220719 0.291642 0.378186 -0.016153
C36   C     C_R   0.788419 0.438559 0.603492 -0.023280
C37   C     C_R   0.752865 0.950980 0.142512 0.309972
C38   C     C_R   0.244183 0.034347 0.867248 0.300700
C39   C     C_R   0.246576 0.450599 0.358267 0.307187
C40   C     C_R   0.754906 0.553291 0.634739 0.305191
C41   C     C_R   0.599584 0.988731 0.058777 -0.065291
C42   C     C_R   0.395303 0.001037 0.958025 -0.028356
C43   C     C_R   0.399452 0.496517 0.442916 -0.064627
C44   C     C_R   0.603970 0.517597 0.544158 -0.031314
C45   C     C_R   0.631857 0.944323 0.007045 -0.112662
C46   C     C_R   0.366386 0.142279 0.983547 -0.143283
C47   C     C_R   0.367247 0.448345 0.494060 -0.123161
C48   C     C_R   0.633078 0.649926 0.513561 -0.131852
C49   C     C_R   0.611929 0.889968 0.929918 -0.163030
C50   C     C_R   0.387245 0.250948 0.048669 -0.158779
C51   C     C_R   0.387054 0.388894 0.570493 -0.165237
C52   C     C_R   0.611674 0.750816 0.446358 -0.152446
C53   C     C_R   0.618753 0.036020 0.136245 -0.051233
C54   C     C_R   0.373541 0.864326 0.906195 -0.027039
C55   C     C_R   0.380194 0.542229 0.365230 -0.049220
C56   C     C_R   0.625668 0.392062 0.601525 -0.025329
C57   C     C_R   0.855788 0.916408 0.194325 -0.107683
C58   C     C_R   0.143032 0.084606 0.811712 -0.130422
C59   C     C_R   0.143983 0.413893 0.306283 -0.109675
C60   C     C_R   0.856588 0.586006 0.688548 -0.130215
H5    H     H_    0.850078 0.665817 0.127293 0.151274
H6    H     H_    0.133460 0.010558 0.927980 0.138638
H7    H     H_    0.150085 0.166699 0.375401 0.140279
H8    H     H_    0.863981 0.374252 0.604037 0.145784
C61   C     C_R   0.476515 0.878294 0.948168 0.086248
C62   C     C_R   0.517456 0.080755 0.080412 0.061540
C63   C     C_R   0.522996 0.395369 0.555589 0.090232
C64   C     C_R   0.481279 0.588571 0.420892 0.060186
C65   C     C_R   0.466101 0.095658 0.052713 -0.080382
C66   C     C_R   0.528125 0.905866 0.961871 -0.089406
C67   C     C_R   0.532722 0.602530 0.447607 -0.077487
C68   C     C_R   0.471111 0.418781 0.540769 -0.082996
C69   C     C_R   0.446361 0.995902 0.985080 0.032685
C70   C     C_R   0.548237 0.991149 0.033495 0.045124
C71   C     C_R   0.552831 0.509689 0.516934 0.032344
C72   C     C_R   0.450766 0.501188 0.468539 0.042470
C73   C     C_R   0.453799 0.725580 0.907126 -0.039034
C74   C     C_R   0.539994 0.162908 0.150616 -0.024312
C75   C     C_R   0.546488 0.249293 0.600498 -0.038474
C76   C     C_R   0.458442 0.669640 0.350525 -0.024855
C77   C     C_R   0.402843 0.719537 0.885536 -0.072647
C78   C     C_R   0.588818 0.128011 0.181264 -0.005760
C79   C     C_R   0.597069 0.250469 0.625205 -0.068201
C80   C     C_R   0.409717 0.634570 0.320120 0.001671
O25   O     O_2   0.300774 0.735685 0.833877 -0.478129
O26   O     O_2   0.684307 0.002350 0.242693 -0.500300
O27   O     O_2   0.697140 0.284469 0.685093 -0.501665
O28   O     O_2   0.315240 0.503228 0.258312 -0.497334
C81   C     C_R   0.560511 0.863653 0.907306 0.366648
C82   C     C_R   0.432371 0.193293 0.091815 0.420853
C83   C     C_R   0.438562 0.371202 0.594443 0.364729
C84   C     C_R   0.566090 0.692692 0.405802 0.415289
H9    H     H_    0.386518 0.604121 0.851304 0.204385
H10   H     H_    0.603662 0.182083 0.238429 0.223760
H11   H     H_    0.613796 0.141698 0.663309 0.200290
H12   H     H_    0.394714 0.687226 0.262711 0.222184
H13   H     H_    0.475467 0.611431 0.890853 0.179217
H14   H     H_    0.519956 0.250514 0.183468 0.235698
H15   H     H_    0.525684 0.134869 0.617545 0.185151
H16   H     H_    0.478206 0.756635 0.317329 0.233999
C85   C     C_2   0.756099 0.631600 0.077950 0.493609
H17   H     H_    0.778801 0.532603 0.053078 0.051926
O29   O     O_2   0.712234 0.603460 0.069548 -0.505631
C86   C     C_2   0.223507 0.954081 0.000674 0.486874
H18   H     H_    0.198053 0.979005 0.040824 0.111112
O30   O     O_2   0.262529 0.879026 0.025096 -0.494983
C87   C     C_2   0.244341 0.133058 0.424478 0.496555
H19   H     H_    0.221963 0.034650 0.449793 0.044710
O31   O     O_2   0.288288 0.105178 0.432879 -0.511363
C88   C     C_2   0.773385 0.299223 0.541055 0.503342
H20   H     H_    0.800446 0.204298 0.524756 0.064247
O32   O     O_2   0.731508 0.288948 0.506318 -0.502660
C89   C     C_2   0.644832 0.855517 0.872290 0.707335
H21   H     H_    0.652835 0.715041 0.856187 0.088604
O33   O     O_2   0.662183 0.985565 0.841491 -0.451664
C90   C     C_2   0.359894 0.398897 0.082754 0.627278
H22   H     H_    0.321543 0.383770 0.086639 0.121292
O34   O     O_2   0.380978 0.538563 0.109373 -0.490294
C91   C     C_2   0.353967 0.328716 0.624146 0.715881
H23   H     H_    0.349701 0.182445 0.634871 0.056299
O35   O     O_2   0.332844 0.443241 0.658464 -0.433092
C92   C     C_2   0.638055 0.894641 0.408932 0.629334
H24   H     H_    0.675394 0.873645 0.399846 0.135918
O36   O     O_2   0.617055 0.037321 0.385185 -0.493447
S1    S     S_3+6 0.157953 0.179073 0.660304 -0.017272
O37   O     O_2   0.105437 0.237997 0.643302 -0.352486
O38   O     O_2   0.188857 0.337164 0.640797 -0.303625
O39   O     O_3   0.165999 0.997714 0.602889 -0.508745
H25   H     H_    0.157524 0.044998 0.548758 0.350367
S2    S     S_3+6 0.855311 0.195660 0.305182 -0.012431
O40   O     O_2   0.895171 0.089704 0.355781 -0.349984
O41   O     O_2   0.875882 0.371403 0.278204 -0.326104
O42   O     O_3   0.812338 0.250121 0.359592 -0.492221
H26   H     H_    0.798148 0.130151 0.371570 0.349543
S3    S     S_3+6 0.843996 0.824796 0.810352 -0.016348
O43   O     O_2   0.888512 0.736488 0.857145 -0.356374
O44   O     O_2   0.856314 0.017070 0.787355 -0.338369
O45   O     O_3   0.800614 0.836464 0.867634 -0.495494
H27   H     H_    0.814464 0.917252 0.911853 0.381500
S4    S     S_3+6 0.144623 0.680458 0.191111 -0.026074
O46   O     O_2   0.104610 0.571975 0.142621 -0.353310
O47   O     O_2   0.124592 0.862994 0.213028 -0.330675
O48   O     O_3   0.188437 0.718847 0.136762 -0.504827
H28   H     H_    0.200228 0.594266 0.124706 0.356389
C93   C     C_2   0.264662 0.113654 0.735555 0.584071
H29   H     H_    0.255858 0.081408 0.673854 0.116229
O49   O     O_2   0.305133 0.175033 0.760376 -0.514526
C94   C     C_2   0.757867 0.281341 0.197326 0.495833
H30   H     H_    0.780180 0.391629 0.226151 0.128217
O50   O     O_2   0.715834 0.320791 0.170003 -0.506255
C95   C     C_2   0.738016 0.820115 0.720215 0.583527
H31   H     H_    0.750808 0.955639 0.740916 0.151409
O51   O     O_2   0.695142 0.782311 0.719659 -0.519595
C96   C     C_2   0.240648 0.778075 0.300598 0.493833
H32   H     H_    0.218906 0.883935 0.267004 0.129309
O52   O     O_2   0.281487 0.822194 0.331932 -0.510313
S5    S     S_3+6 0.540830 0.804494 0.806601 0.069023
O53   O     O_2   0.561817 0.617090 0.794668 -0.314967
O54   O     O_2   0.486858 0.802494 0.778321 -0.254197
O55   O     O_3   0.565003 0.956163 0.750739 -0.465998
H33   H     H_    0.568601 0.886100 0.702866 0.355483
S6    S     S_3+6 0.430120 0.147782 0.191869 0.022411
O56   O     O_2   0.463970 0.991922 0.220677 -0.320121
O57   O     O_2   0.444133 0.317684 0.239677 -0.308336
O58   O     O_3   0.372960 0.087699 0.202070 -0.487023
H34   H     H_    0.373840 0.075681 0.259174 0.375104
S7    S     S_3+6 0.458711 0.304804 0.694350 0.061918
O59   O     O_2   0.452429 0.099430 0.698688 -0.308224
O60   O     O_2   0.510599 0.353602 0.725241 -0.249321
O61   O     O_3   0.424281 0.406450 0.753586 -0.475388
H35   H     H_    0.428580 0.328512 0.801192 0.360651
S8    S     S_3+6 0.566720 0.637933 0.306008 0.016159
O62   O     O_2   0.532917 0.480200 0.281666 -0.316646
O63   O     O_2   0.551449 0.803057 0.255588 -0.312976
O64   O     O_3   0.623533 0.575055 0.294105 -0.490225
H36   H     H_    0.621829 0.560125 0.236939 0.374507

loop_
_geom_bond_atom_site_label_1
_geom_bond_atom_site_label_2
_ccdc_geom_bond_type
O17   V3    S    
C31   C59   A    
S3    O43   D    
N1    C17   A    
O1    C5    A    
C96   H32   S    
C50   C82   A    
O13   V1    S    
O58   H34   S    
O3    C7    A    
C11   C12   D    
C14   C46   A    
C44   C48   A    
O15   V3    S    
C73   H13   S    
C51   C83   A    
S1    O37   D    
C34   C38   A    
C27   S4    S    
C30   C34   A    
C93   H29   S    
C42   C54   A    
O18   V4    S    
S3    O44   D    
C66   C81   A    
C41   C53   A    
C32   C60   A    
C43   C72   A    
C22   C93   S    
C62   C74   A    
C63   C71   A    
O39   H25   S    
C56   C79   A    
C86   O30   D    
C67   C84   A    
C18   C54   A    
C17   O26   S    
N2    C38   S    
C66   C70   A    
O4    C8    A    
C25   C57   A    
C26   S1    S    
O19   V1    S    
C61   C69   A    
C87   H19   S    
C27   C59   A    
C15   C47   A    
O1    V3    S    
C61   C73   A    
C94   H30   S    
C62   C65   A    
O2    V4    S    
C25   S2    S    
C14   O22   S    
C21   C37   A    
O3    V1    S    
O45   H27   S    
C19   C55   A    
C64   C76   A    
C63   C68   A    
C49   C81   A    
C1    O15   A    
S4    O48   S    
C15   O23   S    
C2    O16   A    
S8    O62   D    
S5    O54   D    
O2    C6    A    
C31   C35   A    
C79   H11   S    
C33   C37   A    
S6    O56   D    
O14   V2    S    
C81   S5    S    
C77   H9    S    
O5    V1    S    
C31   H7    S    
C34   C86   S    
C30   C58   A    
C82   S6    S    
O11   C7    A    
O12   C8    A    
C10   H2    S    
S2    O41   D    
C89   O33   D    
C67   C71   A    
O10   V2    S    
C13   N1    A    
S1    O38   D    
C45   C49   A    
O7    C3    A    
C88   O32   D    
C93   O49   D    
C33   C85   S    
S3    O45   S    
O7    V3    S    
N4    C20   A    
O8    V4    S    
C54   C77   A    
S7    O61   S    
C12   H4    S    
C86   H18   S    
C28   C60   A    
C64   C72   A    
O61   H35   S    
C7    C9    S    
C46   C50   A    
C24   C40   A    
C8    C10   S    
C76   C80   A    
C32   C36   A    
C44   C56   A    
C11   H3    S    
C32   H8    S    
O5    C1    A    
C63   C75   A    
C78   H10   S    
C50   C90   S    
S7    O60   D    
C42   C46   A    
O64   H36   S    
C41   C45   A    
O8    C4    A    
S5    O55   S    
C13   C45   A    
S6    O58   S    
C9    C10   D    
C74   H14   S    
O9    C5    A    
C36   C40   A    
O42   H26   S    
N2    C18   A    
C53   C78   A    
O11   V3    S    
C91   O35   D    
C85   O29   D    
C1    C60   S    
C74   C78   A    
C22   C26   A    
C14   N2    A    
C73   C77   A    
C65   C82   A    
C3    C58   S    
S4    O46   D    
O6    V2    S    
C18   O25   S    
C90   O34   D    
C24   C95   S    
C75   C79   A    
C26   C58   A    
C17   C53   A    
C92   H24   S    
N1    C37   S    
C4    C57   S    
C62   C70   A    
C23   C39   A    
S1    O39   S    
C22   C38   A    
C35   C87   S    
C88   H20   S    
O16   V4    S    
O9    V1    S    
C61   C66   A    
C87   O31   D    
C65   C69   A    
C19   O28   S    
C3    O13   A    
C96   O52   D    
C80   H12   S    
C76   H16   S    
C43   C55   A    
C48   C52   A    
N3    C39   S    
O55   H33   S    
N4    C40   S    
C47   C51   A    
O6    C2    A    
C30   H6    S    
C21   C25   A    
C16   N4    A    
C51   C91   S    
O12   V4    S    
C49   C89   S    
C6    C12   S    
C85   H17   S    
C23   C27   A    
C16   C48   A    
C24   C28   A    
O10   C6    A    
C28   S3    S    
O20   V2    S    
C5    C11   S    
C29   H5    S    
C95   H31   S    
C52   C84   A    
C89   H21   S    
C35   C39   A    
C92   O36   D    
C15   N3    A    
S2    O40   D    
C75   H15   S    
C2    C59   S    
S8    O64   S    
C29   C33   A    
C44   C71   A    
C29   C57   A    
C94   O50   D    
C42   C69   A    
N3    C19   A    
C64   C67   A    
C68   C83   A    
C41   C70   A    
C9    H1    S    
C95   O51   D    
C52   C92   S    
O48   H28   S    
C43   C47   A    
C68   C72   A    
C20   C56   A    
C90   H22   S    
S2    O42   S    
S8    O63   D    
S5    O53   D    
C20   O27   S    
C4    O14   A    
C91   H23   S    
C36   C88   S    
C13   O21   S    
C55   C80   A    
C23   C96   S    
S6    O57   D    
C84   S8    S    
S7    O59   D    
C83   S7    S    
C21   C94   S    
O4    V2    S    
C16   O24   S    
S4    O47   D    
