data_mof_unit_7701.cif
_audit_creation_date              2012-12-10T17:05:20-0500
_audit_creation_method            fapswitch 2.2
_symmetry_space_group_name_H-M    P1
_symmetry_Int_Tables_number       1
_space_group_crystal_system       triclinic
_cell_length_a                    10.052112
_cell_length_b                    10.69379
_cell_length_c                    15.622328
_cell_angle_alpha                 90.273582
_cell_angle_beta                  68.881541
_cell_angle_gamma                 90.64793
_cell_volume                      1566.43662499

loop_
_atom_site_label
_atom_site_type_symbol
_atom_type_description
_atom_site_fract_x
_atom_site_fract_y
_atom_site_fract_z
_atom_type_partial_charge
C1    C     C_R   0.502097 0.737430 0.497943 0.928462
C2    C     C_R   0.420942 0.483696 0.911152 0.070699
C3    C     C_R   0.284485 0.532287 0.964034 0.099812
C4    C     C_R   0.521003 0.452476 0.952588 0.018421
C5    C     C_R   0.485610 0.482818 0.046074 0.031342
C6    C     C_R   0.358834 0.547010 0.093795 -0.131123
C7    C     C_R   0.257250 0.568749 0.054879 0.139823
C8    C     C_R   0.655741 0.393912 0.905919 0.143507
C9    C     C_R   0.760768 0.396759 0.945290 -0.212176
C10   C     C_R   0.725342 0.430446 0.037013 0.087121
C11   C     C_R   0.582080 0.455500 0.089611 0.019693
C12   C     C_R   0.411693 0.501170 0.675130 0.871633
C13   C     C_R   0.826323 0.428809 0.079829 -0.162313
C14   C     C_R   0.783315 0.454533 0.173734 -0.164002
C15   C     C_R   0.536797 0.441833 0.184678 0.266905
C16   C     C_2   0.598922 0.067330 0.517092 -0.193728
C17   C     C_2   0.480514 0.133567 0.531469 0.017631
C18   C     C_2   0.593515 0.933614 0.524989 -0.114463
C19   C     C_2   0.509035 0.869703 0.491325 -0.272807
C20   C     C_2   0.076118 0.399914 0.494595 -0.018197
C21   C     C_2   0.918922 0.402451 0.513343 -0.034840
C22   C     C_R   0.495673 0.262807 0.506465 0.920072
C23   C     C_R   0.587705 0.490249 0.325242 0.918870
C24   C     C_R   0.360629 0.504095 0.774891 -0.049133
C25   C     C_R   0.637432 0.463739 0.226728 -0.184088
C26   C     C_R   0.183771 0.553017 0.922106 -0.173288
C27   C     C_R   0.220321 0.534245 0.828201 -0.179289
C28   C     C_R   0.459682 0.483632 0.816665 -0.188602
H1    H     H_    0.937319 0.409654 0.040988 0.163280
H2    H     H_    0.704545 0.110050 0.490642 0.177582
H3    H     H_    0.665477 0.887837 0.552494 0.191986
H4    H     H_    0.443528 0.915316 0.458784 0.187291
H5    H     H_    0.128971 0.310218 0.481835 0.203958
H6    H     H_    0.089846 0.575898 0.529204 0.198026
H7    H     H_    0.858199 0.317379 0.539052 0.146666
H8    H     H_    0.862517 0.460124 0.205654 0.215768
H9    H     H_    0.866185 0.361167 0.907133 0.175799
H10   H     H_    0.077905 0.586417 0.960580 0.170051
H11   H     H_    0.142278 0.551680 0.796764 0.168089
H12   H     H_    0.570544 0.477230 0.774544 0.186712
H13   H     H_    0.340855 0.585567 0.160983 0.167558
N1    N     N_2   0.148330 0.498670 0.499030 -0.198724
N2    N     N_2   0.852680 0.498640 0.499000 -0.038216
O1    O     O_R   0.386950 0.680940 0.500010 -0.608961
O2    O     O_R   0.613110 0.680900 0.499990 -0.591734
O3    O     O_R   0.322330 0.500030 0.632270 -0.615911
O4    O     O_R   0.548480 0.499990 0.632240 -0.617587
O5    O     O_R   0.386890 0.319100 0.500010 -0.570526
O6    O     O_R   0.613050 0.319060 0.499990 -0.640874
O7    O     O_R   0.451520 0.500010 0.367760 -0.596009
O8    O     O_R   0.677670 0.499970 0.367730 -0.586711
Zn1   Zn    Zn3+2 0.349000 0.500030 0.500020 1.010957
Zn2   Zn    Zn3+2 0.651000 0.499970 0.499980 1.021099
I1    I     I_    0.079015 0.677930 0.132759 -0.311758
I2    I     I_    0.267612 0.069000 0.608109 -0.299058
I3    I     I_    0.960683 0.641726 0.408776 -0.215056
S1    S     S_3+6 0.384875 0.341750 0.237810 0.063926
O9    O     O_2   0.367779 0.254820 0.166471 -0.226266
O10   O     O_2   0.406520 0.263965 0.311504 -0.274393
O11   O     O_3   0.232899 0.422678 0.283398 -0.519166
H14   H     H_    0.259734 0.501937 0.305991 0.356483
I4    I     I_    0.704435 0.268278 0.791775 -0.350222

loop_
_geom_bond_atom_site_label_1
_geom_bond_atom_site_label_2
_ccdc_geom_bond_type
C8    C9    A    
O7    Zn1   S    
C6    C7    A    
C21   H7    S    
C9    C10   A    
C12   C24   S    
C1    O1    A    
C20   N1    D    
C17   C22   S    
H6    N1    S    
C24   C27   A    
C4    C8    A    
O4    Zn2   S    
C19   H4    S    
O1    Zn1   S    
C9    H9    S    
C2    C3    A    
S1    O9    D    
O2    Zn2   S    
C16   C18   S    
C13   C14   A    
C15   S1    S    
C1    O2    A    
C26   C27   A    
C16   C17   D    
C11   C15   A    
C22   O6    A    
O6    Zn2   S    
C2    C4    A    
C20   H5    S    
C13   H1    S    
C6    H13   S    
C22   O5    A    
C5    C11   A    
C3    C7    A    
C23   C25   S    
C14   C25   A    
C14   H8    S    
C5    C6    A    
C27   H11   S    
S1    O10   D    
C15   C25   A    
C10   C11   A    
C28   H12   S    
C16   H2    S    
O3    Zn1   S    
N2    I3    S    
O5    Zn1   S    
C20   C21   S    
C12   O3    A    
C18   C19   D    
S1    O11   S    
N1    Zn1   S    
C17   I2    S    
C4    C5    A    
C23   O7    A    
C2    C28   A    
C18   H3    S    
C7    I1    S    
C21   N2    D    
C1    C19   S    
C23   O8    A    
N2    Zn2   S    
C3    C26   A    
C26   H10   S    
C24   C28   A    
C12   O4    A    
C8    I4    S    
O11   H14   S    
O8    Zn2   S    
C10   C13   A    
