data_mof_unit_48961.cif
_audit_creation_date              2012-10-26T20:50:28-0400
_audit_creation_method            fapswitch 2.2
_symmetry_space_group_name_H-M    P1
_symmetry_Int_Tables_number       1
_space_group_crystal_system       triclinic
_cell_length_a                    19.362875
_cell_length_b                    18.12437
_cell_length_c                    10.838514
_cell_angle_alpha                 89.998537
_cell_angle_beta                  90.054971
_cell_angle_gamma                 89.999321
_cell_volume                      3803.66538383

loop_
_atom_site_label
_atom_site_type_symbol
_atom_type_description
_atom_site_fract_x
_atom_site_fract_y
_atom_site_fract_z
_atom_type_partial_charge
C1    C     C_R   0.367733 0.500059 0.500517 0.544564
C2    C     C_R   0.035898 0.568191 0.504166 -0.132040
C3    C     C_R   0.072191 0.501270 0.508575 0.027192
C4    C     C_R   0.927814 0.501261 0.491443 0.027196
C5    C     C_R   0.035925 0.434434 0.502551 -0.117017
C6    C     C_R   0.964075 0.434433 0.497852 -0.117031
C7    C     C_R   0.454771 0.720607 0.426690 0.058873
C8    C     C_R   0.545227 0.720608 0.573307 0.058869
C9    C     C_R   0.452908 0.798683 0.424379 -0.043710
C10   C     C_R   0.547086 0.798684 0.575614 -0.043712
C11   C     C_R   0.499996 0.838446 0.499995 0.008775
C12   C     C_R   0.632269 0.500058 0.499483 0.544567
C13   C     C_R   0.473479 0.961190 0.600855 -0.132777
C14   C     C_R   0.526507 0.961191 0.399124 -0.132781
C15   C     C_R   0.499711 0.499889 0.262472 0.559617
C16   C     C_R   0.500290 0.499888 0.737528 0.559609
C17   C     C_R   0.473884 0.038756 0.601232 -0.078310
C18   C     C_R   0.526100 0.038756 0.398741 -0.078417
C19   C     C_R   0.499990 0.078548 0.499984 0.109542
C20   C     C_R   0.499993 0.921474 0.499991 0.016426
C21   C     C_R   0.465493 0.200977 0.406249 0.194232
C22   C     C_R   0.534507 0.200961 0.593739 0.194310
C23   C     C_R   0.816449 0.539226 0.580761 -0.135459
C24   C     C_R   0.464689 0.279080 0.411003 0.025710
C25   C     C_R   0.535312 0.279071 0.588993 0.025534
C26   C     C_R   0.499997 0.161389 0.499989 0.039637
C27   C     C_R   0.499513 0.563590 0.062013 0.029082
C28   C     C_R   0.500483 0.563589 0.937980 0.029088
C29   C     C_R   0.499519 0.498858 0.130008 -0.002994
C30   C     C_R   0.500482 0.498857 0.869991 -0.003001
C31   C     C_R   0.499813 0.431484 0.064636 -0.172971
C32   C     C_R   0.500195 0.431483 0.935371 -0.172987
C33   C     C_3   0.501012 0.645571 0.928471 0.160354
C34   C     C_R   0.183552 0.539047 0.419022 -0.135446
C35   C     C_3   0.498976 0.645571 0.071513 0.160348
C36   C     C_R   0.741731 0.463113 0.400634 -0.113340
C37   C     C_R   0.258279 0.463308 0.599586 -0.113295
C38   C     C_R   0.814037 0.465034 0.392498 0.009219
C39   C     C_R   0.185973 0.465235 0.607712 0.009233
C40   C     C_R   0.851839 0.501607 0.486822 0.035018
C41   C     C_R   0.148166 0.501619 0.513183 0.035019
C42   C     C_3   0.401632 0.840851 0.343965 -0.270903
C43   C     C_3   0.349293 0.793643 0.272183 -0.318640
C44   C     C_3   0.300348 0.841921 0.196844 -0.448684
C45   C     C_R   0.744698 0.539558 0.583962 -0.142067
C46   C     C_3   0.598359 0.840853 0.656026 -0.270895
C47   C     C_3   0.650700 0.793646 0.727812 -0.318642
C48   C     C_3   0.699642 0.841925 0.803150 -0.448688
C49   C     C_3   0.443546 0.186224 0.198236 -0.019716
C50   C     C_3   0.422493 0.126618 0.106820 -0.373809
C51   C     C_3   0.556842 0.186443 0.801738 -0.019766
C52   C     C_3   0.577588 0.126754 0.893233 -0.373812
C53   C     C_3   0.440347 0.748685 0.867282 -0.016871
C54   C     C_3   0.380028 0.774775 0.788687 -0.352661
C55   C     C_3   0.559633 0.748690 0.132689 -0.016871
C56   C     C_R   0.255303 0.539375 0.415812 -0.142092
C57   C     C_3   0.619952 0.774787 0.211275 -0.352660
C58   C     C_3   0.848141 0.431628 0.279488 -0.251780
C59   C     C_3   0.876799 0.491725 0.193901 -0.288692
C60   C     C_3   0.910235 0.458192 0.079436 -0.459670
C61   C     C_3   0.151874 0.432030 0.720897 -0.251769
C62   C     C_3   0.123179 0.492272 0.806154 -0.288710
C63   C     C_3   0.089759 0.458933 0.920797 -0.459667
C64   C     C_R   0.707372 0.500287 0.495517 0.013234
C65   C     C_R   0.292632 0.500290 0.504485 0.013287
C66   C     C_R   0.964112 0.568186 0.495467 -0.132037
Cu1   Cu    Cu3+1 0.500000 0.573360 0.500000 0.966858
Cu2   Cu    Cu3+1 0.500000 0.426640 0.500000 0.917723
H1    H     H_    0.499739 0.379028 0.112557 0.124357
H2    H     H_    0.564604 0.310249 0.655969 0.129480
H3    H     H_    0.549557 0.665755 0.885044 0.097404
H4    H     H_    0.450429 0.665753 0.114937 0.097399
H5    H     H_    0.711728 0.435034 0.330366 0.109030
H6    H     H_    0.288288 0.435371 0.670009 0.108980
H7    H     H_    0.844631 0.567955 0.652596 0.108617
H8    H     H_    0.155366 0.567629 0.347023 0.108623
H9    H     H_    0.718281 0.569045 0.656987 0.103977
H10   H     H_    0.281717 0.568713 0.342615 0.103937
H11   H     H_    0.936783 0.620291 0.491741 0.103173
H12   H     H_    0.500275 0.379026 0.887455 0.124358
H13   H     H_    0.063230 0.620300 0.507589 0.103174
H14   H     H_    0.063188 0.382282 0.501313 0.099742
H15   H     H_    0.936808 0.382287 0.499381 0.099733
H16   H     H_    0.270835 0.879369 0.258461 0.154590
H17   H     H_    0.329845 0.875275 0.128911 0.146330
H18   H     H_    0.263274 0.806415 0.145943 0.141291
H19   H     H_    0.376904 0.756503 0.207446 0.141001
H20   H     H_    0.318261 0.759967 0.337548 0.158620
H21   H     H_    0.372301 0.879354 0.404232 0.163457
H22   H     H_    0.431174 0.874244 0.276194 0.143000
H23   H     H_    0.420296 0.688224 0.370242 0.122550
H24   H     H_    0.729153 0.879374 0.741532 0.154580
H25   H     H_    0.670142 0.875278 0.871079 0.146333
H26   H     H_    0.736717 0.806420 0.854054 0.141289
H27   H     H_    0.623090 0.756504 0.792551 0.141003
H28   H     H_    0.681735 0.759971 0.662450 0.158594
H29   H     H_    0.627689 0.879357 0.595756 0.163459
H30   H     H_    0.568816 0.874245 0.723794 0.143024
H31   H     H_    0.499910 0.196866 0.186180 0.110189
H32   H     H_    0.413942 0.237052 0.175905 0.124349
H33   H     H_    0.366621 0.114094 0.116680 0.163144
H34   H     H_    0.579704 0.688226 0.629757 0.122528
H35   H     H_    0.432345 0.145817 0.011172 0.084496
H36   H     H_    0.452784 0.075570 0.123903 0.143915
H37   H     H_    0.500587 0.197611 0.814091 0.110181
H38   H     H_    0.586895 0.237024 0.823711 0.124549
H39   H     H_    0.633334 0.113693 0.883069 0.163157
H40   H     H_    0.568082 0.146163 0.988873 0.084398
H41   H     H_    0.546845 0.075972 0.876526 0.143810
H42   H     H_    0.488745 0.769437 0.824118 0.117685
H43   H     H_    0.434942 0.772850 0.961150 0.107693
H44   H     H_    0.330589 0.755263 0.829036 0.154780
H45   H     H_    0.452495 0.932045 0.679505 0.092146
H46   H     H_    0.379442 0.835973 0.785016 0.077971
H47   H     H_    0.385104 0.752895 0.693378 0.173159
H48   H     H_    0.511234 0.769439 0.175854 0.117683
H49   H     H_    0.565034 0.772855 0.038817 0.107693
H50   H     H_    0.669391 0.755276 0.170927 0.154789
H51   H     H_    0.620533 0.835985 0.214936 0.077963
H52   H     H_    0.614879 0.752909 0.306589 0.173157
H53   H     H_    0.954148 0.422131 0.106277 0.152776
H54   H     H_    0.871862 0.425343 0.026583 0.152956
H55   H     H_    0.930034 0.502939 0.019083 0.140092
H56   H     H_    0.547493 0.932046 0.320478 0.092148
H57   H     H_    0.834120 0.528861 0.164565 0.164824
H58   H     H_    0.916107 0.525375 0.242862 0.174058
H59   H     H_    0.889548 0.392692 0.306306 0.139647
H60   H     H_    0.810009 0.398401 0.226433 0.132048
H61   H     H_    0.045883 0.422774 0.894142 0.152762
H62   H     H_    0.128156 0.426227 0.973848 0.152983
H63   H     H_    0.069911 0.503779 0.980891 0.140072
H64   H     H_    0.165834 0.529491 0.835295 0.164822
H65   H     H_    0.083852 0.525803 0.757010 0.174066
H66   H     H_    0.110490 0.393020 0.694277 0.139624
H67   H     H_    0.453082 0.067827 0.680185 0.109177
H68   H     H_    0.190017 0.398924 0.774143 0.132084
H69   H     H_    0.546909 0.067827 0.319791 0.109008
H70   H     H_    0.435392 0.310255 0.344024 0.129651
N1    N     N_R   0.500000 0.683620 0.500000 -0.235092
N2    N     N_R   0.500000 0.316380 0.500000 -0.276865
O1    O     O_R   0.400190 0.561980 0.499980 -0.503788
O2    O     O_3   0.572373 0.162027 0.681026 -0.563507
O3    O     O_3   0.439225 0.670932 0.873781 -0.554043
O4    O     O_3   0.560761 0.670937 0.126200 -0.554035
O5    O     O_R   0.599810 0.561980 0.500020 -0.503788
O6    O     O_R   0.400190 0.438070 0.500040 -0.499237
O7    O     O_R   0.599810 0.438070 0.499960 -0.499289
O8    O     O_R   0.500000 0.561960 0.319660 -0.477940
O9    O     O_R   0.500000 0.561960 0.680340 -0.477944
O10   O     O_R   0.500000 0.438060 0.319720 -0.521558
O11   O     O_R   0.500000 0.438060 0.680280 -0.521535
O12   O     O_3   0.427616 0.162089 0.318941 -0.563440

loop_
_geom_bond_atom_site_label_1
_geom_bond_atom_site_label_2
_ccdc_geom_bond_type
C53   H42   S    
C7    N1    A    
C21   C26   A    
C34   C56   A    
C23   C45   A    
C27   C29   A    
C14   C18   A    
C37   H6    S    
C39   C41   A    
C53   C54   S    
C24   N2    A    
C59   H58   S    
C50   H36   S    
C66   H11   S    
C9    C42   S    
C48   H26   S    
C8    N1    A    
C43   H20   S    
C62   H65   S    
C15   O8    A    
C12   C64   S    
C21   O12   S    
C32   H12   S    
C55   H48   S    
C16   C30   S    
C23   C40   A    
C56   H10   S    
C18   C19   A    
C63   H62   S    
C19   C26   S    
C17   C19   A    
C38   C58   S    
C4    C40   S    
C52   H39   S    
C22   C25   A    
C37   C65   A    
C10   C46   S    
C1    C65   S    
C47   H28   S    
C16   O9    A    
C55   O4    S    
C2    H13   S    
C63   H63   S    
C30   C32   A    
Cu1   N1    S    
C49   O12   S    
C35   O4    S    
C57   H51   S    
C53   H43   S    
C46   H30   S    
C59   C60   S    
C1    O6    A    
C61   C62   S    
C34   C41   A    
C44   H18   S    
C61   H66   S    
C15   C29   S    
C39   C61   S    
C11   C20   S    
C14   H56   S    
C48   H25   S    
C51   C52   S    
C62   H64   S    
C25   N2    A    
Cu2   O10   S    
C4    C6    A    
C36   H5    S    
C27   C35   S    
C58   C59   S    
C33   O3    S    
Cu1   O5    S    
Cu1   Cu2   S    
C42   H22   S    
C12   O5    A    
C18   H69   S    
C43   C44   S    
C17   H67   S    
C62   C63   S    
C14   C20   A    
C49   H31   S    
C47   C48   S    
C58   H59   S    
C51   H37   S    
C7    H23   S    
C54   H47   S    
C22   O2    S    
C54   H44   S    
C60   H54   S    
C9    C11   A    
C52   H40   S    
Cu2   O7    S    
C57   H52   S    
C8    C10   A    
C46   H29   S    
C28   C33   S    
C55   C57   S    
C22   C26   A    
Cu2   N2    S    
C42   C43   S    
C44   H17   S    
Cu1   O1    S    
Cu1   O8    S    
Cu2   O6    S    
C12   O7    A    
C55   H49   S    
C51   O2    S    
C7    C9    A    
C46   C47   S    
C3    C41   S    
C6    H15   S    
C13   C20   A    
C31   C32   A    
C23   H7    S    
C3    C5    A    
C35   H4    S    
C2    C66   A    
C13   C17   A    
C59   H57   S    
Cu1   O9    S    
C45   C64   A    
C44   H16   S    
C42   H21   S    
C24   H70   S    
C28   C30   A    
C2    C3    A    
C43   H19   S    
C29   C31   A    
Cu2   O11   S    
C58   H60   S    
C49   H32   S    
C38   C40   A    
C5    H14   S    
C5    C6    A    
C52   H41   S    
C51   H38   S    
C54   H46   S    
C36   C38   A    
C33   C35   S    
C16   O11   A    
C63   H61   S    
C60   H53   S    
C1    O1    A    
C10   C11   A    
C33   H3    S    
C31   H1    S    
C60   H55   S    
C4    C66   A    
C50   H33   S    
C37   C39   A    
C49   C50   S    
C48   H24   S    
C21   C24   A    
C27   C28   A    
C47   H27   S    
C50   H35   S    
C45   H9    S    
C25   H2    S    
C53   O3    S    
C36   C64   A    
C8    H34   S    
C15   O10   A    
C13   H45   S    
C56   C65   A    
C61   H68   S    
C34   H8    S    
C57   H50   S    
