data_mof_unit_35968.cif
_audit_creation_date              2012-12-11T16:29:28-0500
_audit_creation_method            fapswitch 2.2
_symmetry_space_group_name_H-M    P1
_symmetry_Int_Tables_number       1
_space_group_crystal_system       triclinic
_cell_length_a                    6.954665
_cell_length_b                    17.302465
_cell_length_c                    18.791034
_cell_angle_alpha                 106.266852
_cell_angle_beta                  89.654774
_cell_angle_gamma                 90.349499
_cell_volume                      2170.5956899

loop_
_atom_site_label
_atom_site_type_symbol
_atom_type_description
_atom_site_fract_x
_atom_site_fract_y
_atom_site_fract_z
_atom_type_partial_charge
O1    O     O_R   0.494360 0.415680 0.413760 -0.537712
O2    O     O_R   0.818810 0.432910 0.557230 -0.529706
O3    O     O_R   0.994290 0.584320 0.586240 -0.506446
C1    C     C_R   0.649931 0.416000 0.580660 0.703485
O4    O     O_R   0.823740 0.406440 0.412520 -0.538587
O5    O     O_R   0.999250 0.557660 0.440500 -0.511429
C2    C     C_R   0.654915 0.383786 0.384773 0.683227
O6    O     O_R   0.489400 0.442340 0.559500 -0.527388
O7    O     O_3   0.662500 0.549650 0.509350 -0.330184
V1    V     V_3+5 0.935340 0.490790 0.498270 1.473604
O8    O     O_R   0.329270 0.567090 0.442770 -0.526925
C3    C     C_R   0.161499 0.582337 0.417935 0.710798
O9    O     O_R   0.324340 0.593560 0.587480 -0.536896
C4    C     C_R   0.153895 0.619192 0.612928 0.717970
V2    V     V_3+5 0.435970 0.509210 0.501730 1.464911
O10   O     O_3   0.158940 0.450350 0.490650 -0.370054
H1    H     H_    0.218280 0.874175 0.549640 0.104844
C5    C     C_R   0.104832 0.593403 0.756127 -0.137219
C6    C     C_R   0.078899 0.577512 0.824160 -0.212977
C7    C     C_R   0.063553 0.640436 0.889108 0.043947
C8    C     C_R   0.076086 0.720080 0.885314 -0.124072
C9    C     C_R   0.102501 0.738036 0.816694 0.036996
C10   C     C_R   0.115603 0.673332 0.750808 0.066132
C11   C     C_R   0.120376 0.818940 0.813724 -0.167070
C12   C     C_R   0.150029 0.835790 0.743844 -0.013746
C13   C     C_R   0.141436 0.770273 0.677284 0.075625
C14   C     C_R   0.136969 0.688868 0.681087 -0.149245
C15   C     C_R   0.184967 0.915624 0.736690 -0.079701
C16   C     C_R   0.234949 0.926281 0.666904 0.019756
C17   C     C_R   0.205933 0.863108 0.603574 -0.262270
C18   C     C_R   0.137448 0.789148 0.608356 -0.010653
H2    H     H_    0.115311 0.541961 0.707755 0.105554
H3    H     H_    0.070347 0.515532 0.825956 0.113646
H4    H     H_    0.065871 0.767698 0.936680 0.127115
C19   C     C_1   0.112022 0.863407 0.132142 -0.129832
C20   C     C_1   0.119699 0.820315 0.175248 0.067386
C21   C     C_1   0.129246 0.769317 0.226453 0.021008
C22   C     C_1   0.137355 0.726402 0.269716 0.004325
C23   C     C_1   0.146783 0.675666 0.321157 0.000308
C24   C     C_1   0.154158 0.633146 0.364779 -0.217524
C25   C     C_1   0.641609 0.364174 0.632800 -0.214811
C26   C     C_1   0.637666 0.321714 0.676498 -0.001195
C27   C     C_1   0.634566 0.271650 0.728550 0.003122
C28   C     C_1   0.632208 0.229457 0.772484 0.037918
C29   C     C_1   0.628729 0.179247 0.824403 0.071226
C30   C     C_1   0.624078 0.136459 0.867798 -0.157025
H5    H     H_    0.452829 0.143867 0.452103 0.123962
C31   C     C_R   0.744862 0.402505 0.240429 -0.145476
C32   C     C_R   0.786032 0.414309 0.171601 -0.113526
C33   C     C_R   0.771765 0.350545 0.107648 -0.117831
C34   C     C_R   0.717100 0.274434 0.112085 -0.131484
C35   C     C_R   0.675983 0.260203 0.181340 0.071599
C36   C     C_R   0.689266 0.325820 0.246725 0.066830
C37   C     C_R   0.622374 0.182245 0.185769 -0.193258
C38   C     C_R   0.584015 0.169388 0.256679 0.024275
C39   C     C_R   0.587791 0.237154 0.321435 0.068684
C40   C     C_R   0.643897 0.314510 0.316598 -0.175354
C41   C     C_R   0.544314 0.091544 0.266884 -0.039674
C42   C     C_R   0.494721 0.084115 0.336925 -0.143958
C43   C     C_R   0.489991 0.150833 0.398192 -0.134944
C44   C     C_R   0.538860 0.226099 0.391106 -0.131224
H6    H     H_    0.756418 0.454278 0.288473 0.102501
H7    H     H_    0.828370 0.473370 0.167871 0.126291
H8    H     H_    0.803018 0.360077 0.054221 0.115776
H9    H     H_    0.707610 0.227122 0.060498 0.088763
H10   H     H_    0.462992 0.025525 0.344632 0.119406
H11   H     H_    0.538408 0.275505 0.441326 0.099235
O11   O     O_R   0.775690 0.057750 0.940570 -0.518999
O12   O     O_R   0.441200 0.093570 0.087490 -0.537207
O13   O     O_R   0.265840 0.942320 0.059480 -0.515348
C45   C     C_R   0.609985 0.115389 0.115935 0.710153
O14   O     O_R   0.446270 0.067110 0.942790 -0.516624
O15   O     O_R   0.270950 0.915660 0.913750 -0.533140
C46   C     C_R   0.615249 0.084209 0.919532 0.706382
O16   O     O_R   0.770580 0.084400 0.086300 -0.535659
O17   O     O_3   0.602640 0.950400 0.990690 -0.350927
V3    V     V_3+5 0.329740 0.009200 0.001730 1.494598
O18   O     O_R   0.940900 0.906360 0.912450 -0.536056
C47   C     C_R   0.110117 0.884570 0.884273 0.692610
O19   O     O_R   0.935830 0.932820 0.057160 -0.514861
C48   C     C_R   0.104003 0.915809 0.080471 0.712670
V4    V     V_3+5 0.829130 0.990680 0.998180 1.495865
O20   O     O_3   0.106100 0.049590 0.009310 -0.357507
C49   C     C_1   0.566016 0.016198 0.209925 0.237244
N1    N     N_1   0.584330 0.955188 0.165242 -0.328761
C50   C     C_2   0.035062 0.621828 0.960648 0.362482
H12   H     H_    0.027500 0.559622 0.962182 0.041763
O21   O     O_2   0.019328 0.675376 0.018600 -0.533973
C51   C     C_1   0.150986 0.988143 0.796246 0.345131
N2    N     N_1   0.122413 0.046955 0.842683 -0.312771
C52   C     C_2   0.300881 0.004286 0.656007 0.367909
H13   H     H_    0.300392 0.012684 0.600863 0.043052
O22   O     O_2   0.362366 0.058807 0.707150 -0.531261
C53   C     C_2   0.024261 0.743569 0.544066 0.351914
H14   H     H_    0.067862 0.744257 0.488908 0.029144
O23   O     O_2   0.869654 0.713613 0.552666 -0.508651

loop_
_geom_bond_atom_site_label_1
_geom_bond_atom_site_label_2
_ccdc_geom_bond_type
C38   C39   A    
C32   H7    S    
C33   H8    S    
C25   C26   T    
O12   V3    S    
C6    C7    A    
C16   C52   S    
C1    O6    A    
C19   C48   S    
C29   C30   T    
C28   C29   S    
C12   C15   A    
C13   C14   A    
O14   V3    S    
C15   C16   A    
C21   C22   T    
C42   H10   S    
O5    C3    A    
C17   C18   A    
C50   O21   D    
C1    C25   S    
V3    O20   S    
O11   C46   A    
V2    O10   S    
C39   C40   A    
C5    C6    A    
C34   H9    S    
O12   C45   A    
O13   C48   A    
C44   H11   S    
H5    C43   S    
O8    V2    S    
C49   N1    T    
C37   C45   S    
C19   C20   T    
C7    C50   S    
C15   C51   S    
O1    V2    S    
C10   C14   A    
C4    C14   S    
O7    V1    S    
C13   C18   A    
O1    C2    A    
O9    C4    A    
O13   V3    S    
H1    C17   S    
C35   C37   A    
C9    C10   A    
C31   C36   A    
C5    C10   A    
C11   C12   A    
O14   C46   A    
C6    H3    S    
O17   V4    S    
C52   H13   S    
O4    C2    A    
C36   C40   A    
O18   C47   A    
C8    H4    S    
C41   C42   A    
C34   C35   A    
C43   C44   A    
C3    C24   S    
O2    C1    A    
C27   C28   T    
C16   C17   A    
C41   C49   S    
C52   O22   D    
O18   V4    S    
C11   C47   S    
C31   H6    S    
C33   C34   A    
O15   C47   A    
O17   V3    S    
C53   O23   D    
O3    C4    A    
O19   V4    S    
C31   C32   A    
V4    O20   S    
O6    V2    S    
O9    V2    S    
C9    C11   A    
C5    H2    S    
C26   C27   S    
O2    V1    S    
C30   C46   S    
C35   C36   A    
C37   C38   A    
C20   C21   S    
C50   H12   S    
O19   C48   A    
O5    V1    S    
O8    C3    A    
O16   V4    S    
C18   C53   S    
O11   V4    S    
C12   C13   A    
O4    V1    S    
O3    V1    S    
V1    O10   S    
C45   O16   A    
C22   C23   S    
O7    V2    S    
C53   H14   S    
C23   C24   T    
C42   C43   A    
C7    C8    A    
C32   C33   A    
C38   C41   A    
O15   V3    S    
C39   C44   A    
C51   N2    T    
C8    C9    A    
C2    C40   S    
