data_mof_unit_26460.cif
_audit_creation_date              2012-12-11T15:59:41-0500
_audit_creation_method            fapswitch 2.2
_symmetry_space_group_name_H-M    P1
_symmetry_Int_Tables_number       1
_space_group_crystal_system       triclinic
_cell_length_a                    10.734496
_cell_length_b                    10.835538
_cell_length_c                    17.087874
_cell_angle_alpha                 99.660862
_cell_angle_beta                  100.161767
_cell_angle_gamma                 60.53225
_cell_volume                      1695.65992061

loop_
_atom_site_label
_atom_site_type_symbol
_atom_type_description
_atom_site_fract_x
_atom_site_fract_y
_atom_site_fract_z
_atom_type_partial_charge
C1    C     C_R   0.357507 0.765517 0.396292 0.584410
C2    C     C_R   0.935235 0.177705 0.218447 0.006467
C3    C     C_R   0.917959 0.196979 0.300579 0.014338
C4    C     C_R   0.858340 0.442310 0.304431 -0.119006
C5    C     C_R   0.913958 0.418111 0.234048 -0.022770
C6    C     C_R   0.945518 0.048474 0.176806 -0.088626
C7    C     C_R   0.954286 0.942374 0.217494 -0.123512
C8    C     C_R   0.964492 0.955959 0.300177 -0.115149
C9    C     C_R   0.947416 0.082265 0.341768 -0.095959
C10   C     C_R   0.860079 0.333837 0.338278 -0.010274
C11   C     C_R   0.365109 0.812802 0.156313 -0.022107
C12   C     C_R   0.367587 0.345248 0.358329 0.585978
C13   C     C_R   0.447731 0.856089 0.217523 -0.001359
C14   C     C_R   0.427617 0.861369 0.297768 -0.096558
C15   C     C_R   0.307743 0.716704 0.251995 0.351481
C16   C     C_R   0.314603 0.725041 0.172550 -0.001651
C17   C     C_R   0.554124 0.887641 0.201958 0.402348
C18   C     C_R   0.623643 0.940211 0.263720 -0.093618
C19   C     C_R   0.594029 0.957181 0.341753 -0.160875
C20   C     C_R   0.493380 0.922892 0.358701 -0.116372
C21   C     C_R   0.351251 0.795366 0.314788 0.010955
C22   C     C_R   0.298665 0.278960 0.799602 -0.004560
C23   C     C_R   0.779754 0.376299 0.406222 0.549440
C24   C     C_R   0.423327 0.177679 0.762375 0.034870
C25   C     C_R   0.477268 0.224825 0.712153 0.037434
C26   C     C_R   0.250406 0.447268 0.707330 -0.150475
C27   C     C_R   0.212013 0.412773 0.770661 -0.146346
C28   C     C_R   0.499879 0.032265 0.776737 -0.077640
C29   C     C_R   0.637910 0.943968 0.754434 -0.104417
C30   C     C_R   0.702161 0.999425 0.717567 -0.115322
C31   C     C_R   0.622880 0.138638 0.696607 -0.086720
C32   C     C_R   0.381717 0.353202 0.676623 -0.006311
C33   C     C_1   0.818086 0.342609 0.709051 -0.059579
C34   C     C_R   0.381287 0.715923 0.631679 0.536682
C35   C     C_1   0.845259 0.314032 0.776703 -0.052869
C36   C     C_1   0.358468 0.765759 0.713872 -0.053749
C37   C     C_1   0.325498 0.812238 0.780690 -0.059955
C38   C     C_R   0.959329 0.282362 0.100047 0.551059
C39   C     C_R   0.316549 0.294559 0.121487 0.530885
C40   C     C_R   0.299121 0.888684 0.084570 0.553144
C41   C     C_R   0.886666 0.297318 0.859053 0.561977
C42   C     C_R   0.278699 0.254151 0.877077 0.540265
C43   C     C_R   0.280821 0.881299 0.857751 0.537823
C44   C     C_R   0.407812 0.374541 0.599995 0.529098
C45   C     C_R   0.773000 0.381143 0.629760 0.532329
C46   C     C_1   0.339257 0.331509 0.275338 0.029153
C47   C     C_1   0.328670 0.319238 0.204668 -0.013784
C48   C     C_R   0.934539 0.291613 0.183895 -0.002607
Cr1   Cr    Cr6+3 0.608100 0.610860 0.522250 1.017952
Cr2   Cr    Cr6+3 0.288890 0.599990 0.488420 1.026548
Cr3   Cr    Cr6+3 0.603040 0.289190 0.489390 0.987611
Cr4   Cr    Cr6+3 0.053960 0.052250 0.967380 1.004710
Cr5   Cr    Cr6+3 0.059890 0.373160 0.992710 0.989003
Cr6   Cr    Cr6+3 0.373370 0.061690 0.991710 1.079630
H1    H     H_    0.811562 0.549841 0.332958 0.166642
H2    H     H_    0.703998 0.964053 0.251142 0.144057
H3    H     H_    0.652139 0.993689 0.389715 0.146489
H4    H     H_    0.471484 0.941183 0.420142 0.150592
H5    H     H_    0.177614 0.547600 0.682566 0.143022
H6    H     H_    0.454195 0.986546 0.805827 0.149427
H7    H     H_    0.115057 0.490796 0.797056 0.144350
H8    H     H_    0.696221 0.833962 0.767848 0.124399
H9    H     H_    0.811832 0.933662 0.703183 0.118502
H10   H     H_    0.676162 0.177086 0.667531 0.152637
H11   H     H_    0.938462 0.026529 0.113371 0.175894
H12   H     H_    0.950001 0.850522 0.184827 0.121419
H13   H     H_    0.976337 0.873554 0.332936 0.131851
H14   H     H_    0.951253 0.091720 0.406134 0.126670
O1    O     O_R   0.749810 0.499790 0.438040 -0.525935
O2    O     O_R   0.298970 0.468800 0.557390 -0.512759
O3    O     O_R   0.489400 0.255930 0.561910 -0.520430
O4    O     O_R   0.723890 0.306050 0.584610 -0.540033
O5    O     O_3   0.500010 0.500010 0.500020 -0.279792
O6    O     O_R   0.171100 0.914680 0.053100 -0.556796
O7    O     O_R   0.941680 0.184840 0.050710 -0.509717
O8    O     O_R   0.922080 0.403420 0.072610 -0.509916
O9    O     O_R   0.196880 0.369150 0.083850 -0.550053
O10   O     O_R   0.411730 0.181020 0.091530 -0.470093
O11   O     O_R   0.365010 0.944360 0.063320 -0.422677
O12   O     O_R   0.477660 0.726260 0.439290 -0.506256
O13   O     O_R   0.159380 0.906670 0.876210 -0.504869
O14   O     O_R   0.930820 0.177420 0.886730 -0.484494
O15   O     O_R   0.910360 0.395420 0.895720 -0.508907
O16   O     O_R   0.186010 0.361730 0.919870 -0.510054
O17   O     O_R   0.400000 0.173010 0.914630 -0.505387
O18   O     O_R   0.354140 0.936940 0.899340 -0.523507
O19   O     O_3   0.162410 0.162370 0.983930 -0.297673
O20   O     O_R   0.260150 0.743000 0.412270 -0.469662
O21   O     O_R   0.297740 0.466550 0.394720 -0.461231
O22   O     O_R   0.488080 0.253500 0.386430 -0.525074
O23   O     O_R   0.722670 0.303800 0.421940 -0.498116
O24   O     O_R   0.751130 0.502220 0.613520 -0.508649
O25   O     O_R   0.478890 0.728510 0.601960 -0.486775
O26   O     O_R   0.261470 0.745430 0.587750 -0.519759
C49   C     C_3   0.940265 0.534352 0.213789 -0.274345
C50   C     C_3   0.976533 0.619521 0.285970 -0.453651
H15   H     H_    0.877623 0.706585 0.310149 0.125006
H16   H     H_    0.046198 0.550118 0.333608 0.189749
H17   H     H_    0.034845 0.666474 0.266626 0.210614
H18   H     H_    0.035973 0.483676 0.181734 0.190478
H19   H     H_    0.845844 0.608726 0.176015 0.222409
F1    F     F_    0.270465 0.622283 0.268303 -0.673717
F2    F     F_    0.607031 0.849198 0.130189 -0.637232
C51   C     C_3   0.293327 0.623718 0.105600 -0.211379
C52   C     C_3   0.136342 0.659178 0.082521 -0.367877
H20   H     H_    0.126834 0.594955 0.026296 0.173560
H21   H     H_    0.096904 0.634356 0.130138 0.170515
H22   H     H_    0.066893 0.771825 0.071131 0.149983
H23   H     H_    0.337424 0.622962 0.051204 0.140614
H24   H     H_    0.357865 0.514127 0.123564 0.174518

loop_
_geom_bond_atom_site_label_1
_geom_bond_atom_site_label_2
_ccdc_geom_bond_type
C25   C31   A    
C26   C32   A    
C23   O23   A    
C33   C45   S    
C23   O1    A    
C19   C20   A    
C34   O25   A    
Cr4   O7    S    
C7    C8    A    
C38   O8    A    
Cr6   O19   S    
C19   H3    S    
C1    C21   S    
C52   H21   S    
C26   C27   A    
Cr5   O16   S    
C39   O9    A    
C14   C21   A    
C12   O22   A    
C28   C29   A    
Cr4   O6    S    
Cr3   O22   S    
C30   C31   A    
C15   C16   A    
C41   O15   A    
C50   H17   S    
C44   O3    A    
C18   C19   A    
C45   O24   A    
C27   H7    S    
Cr3   O23   S    
C29   H8    S    
C16   C51   S    
C6    H11   S    
C49   C50   S    
C8    C9    A    
C50   H16   S    
C22   C42   S    
C44   O2    A    
C24   C28   A    
C26   H5    S    
C38   C48   S    
C18   H2    S    
C1    O20   A    
Cr1   O1    S    
C30   H9    S    
C45   O4    A    
C2    C6    A    
Cr3   O3    S    
C51   C52   S    
C5    C49   S    
C38   O7    A    
C28   H6    S    
C5    C48   A    
C11   C40   S    
C39   O10   A    
C14   C20   A    
C12   O21   A    
C42   O16   A    
C24   C25   A    
C12   C46   S    
Cr2   O5    S    
Cr6   O18   S    
C49   H18   S    
Cr2   O26   S    
C2    C48   A    
C37   C43   S    
Cr5   O9    S    
C29   C30   A    
C3    C9    A    
Cr3   O5    S    
C11   C16   A    
Cr2   O21   S    
C50   H15   S    
C17   C18   A    
C32   C44   S    
C40   O11   A    
Cr5   O19   S    
C42   O17   A    
C52   H22   S    
Cr4   O14   S    
C22   C27   A    
C4    H1    S    
C43   O13   A    
Cr1   O5    S    
Cr5   O8    S    
Cr3   O4    S    
Cr1   O24   S    
C4    C10   A    
C39   C47   S    
Cr6   O11   S    
C46   C47   T    
C36   C37   T    
C43   O18   A    
C31   H10   S    
Cr4   O19   S    
C34   O26   A    
C4    C5    A    
Cr6   O17   S    
C6    C7    A    
Cr2   O20   S    
C10   C23   S    
C52   H20   S    
Cr1   O12   S    
C13   C17   A    
Cr5   O15   S    
C2    C3    A    
C17   F2    S    
C9    H14   S    
C3    C10   A    
C7    H12   S    
C51   H24   S    
C11   C13   A    
C51   H23   S    
C25   C32   A    
C41   O14   A    
C33   C35   T    
C34   C36   S    
C40   O6    A    
C22   C24   A    
C15   F1    S    
Cr2   O2    S    
Cr4   O13   S    
C35   C41   S    
C15   C21   A    
C8    H13   S    
C1    O12   A    
Cr1   O25   S    
C13   C14   A    
C20   H4    S    
C49   H19   S    
Cr6   O10   S    
