data_mof_unit_61324.cif
_audit_creation_date              2012-12-10T18:01:23-0500
_audit_creation_method            fapswitch 2.2
_symmetry_space_group_name_H-M    P1
_symmetry_Int_Tables_number       1
_space_group_crystal_system       triclinic
_cell_length_a                    18.296902
_cell_length_b                    18.365734
_cell_length_c                    25.833881
_cell_angle_alpha                 89.998667
_cell_angle_beta                  89.975508
_cell_angle_gamma                 89.987865
_cell_volume                      8681.11395376

loop_
_atom_site_label
_atom_site_type_symbol
_atom_type_description
_atom_site_fract_x
_atom_site_fract_y
_atom_site_fract_z
_atom_type_partial_charge
C1    C     C_R   0.860023 0.140124 0.749836 0.500884
C2    C     C_R   0.196812 0.195251 0.249266 0.013014
C3    C     C_R   0.236423 0.683520 0.226924 -0.151393
C4    C     C_3   0.938099 0.212252 0.550254 -0.293598
C5    C     C_3   0.090397 0.148014 0.598360 -0.277751
C6    C     C_3   0.056187 0.213780 0.449593 -0.294783
C7    C     C_3   0.905511 0.146231 0.401820 -0.274253
C8    C     C_3   0.438131 0.712261 0.050257 -0.293593
C9    C     C_3   0.590425 0.648001 0.098355 -0.277749
C10   C     C_3   0.556195 0.713778 0.949592 -0.294776
C11   C     C_3   0.405513 0.646232 0.901823 -0.274261
C12   C     C_3   0.309744 0.942129 0.750193 -0.280027
C13   C     C_R   0.195206 0.196865 0.749074 0.013933
C14   C     C_3   0.811742 0.819284 0.623123 -0.281509
C15   C     C_3   0.689726 0.941892 0.251298 -0.282747
C16   C     C_3   0.309401 0.942327 0.248802 -0.280538
C17   C     C_3   0.809741 0.442130 0.250189 -0.280032
C18   C     C_3   0.311740 0.319285 0.123122 -0.281508
C19   C     C_3   0.189776 0.441896 0.751165 -0.282810
C20   C     C_3   0.809400 0.442321 0.748822 -0.280554
C21   C     C_R   0.804824 0.196932 0.749061 0.014724
C22   C     C_R   0.304837 0.696919 0.751002 0.013213
C23   C     C_R   0.696812 0.695251 0.749266 0.013014
C24   C     C_R   0.695206 0.696865 0.249075 0.013928
C25   C     C_R   0.304824 0.696932 0.249061 0.014727
C26   C     C_R   0.820704 0.265075 0.229639 -0.126319
C27   C     C_R   0.200792 0.243689 0.207611 -0.126356
C28   C     C_R   0.179541 0.264810 0.770851 -0.125676
C29   C     C_R   0.140001 0.140098 0.749841 0.496131
C30   C     C_R   0.820853 0.265278 0.770050 -0.127084
C31   C     C_R   0.320703 0.765075 0.729638 -0.126319
C32   C     C_R   0.700793 0.743689 0.707610 -0.126355
C33   C     C_R   0.679559 0.764791 0.270893 -0.125677
C34   C     C_R   0.320857 0.765282 0.270044 -0.127082
C35   C     C_R   0.268824 0.820498 0.730576 0.126916
C36   C     C_R   0.755244 0.796497 0.705810 0.125695
C37   C     C_R   0.731405 0.820217 0.269977 0.127372
C38   C     C_R   0.268961 0.820703 0.269072 0.127363
C39   C     C_R   0.768824 0.320498 0.230576 0.126915
C40   C     C_R   0.140135 0.139952 0.250006 0.498837
C41   C     C_R   0.255243 0.296498 0.205810 0.125694
C42   C     C_R   0.231389 0.320236 0.769932 0.127381
C43   C     C_R   0.768956 0.320698 0.769078 0.127358
C44   C     C_R   0.198879 0.806060 0.751654 0.062138
C45   C     C_R   0.805051 0.802120 0.747569 0.061181
C46   C     C_R   0.801133 0.806026 0.248425 0.061560
C47   C     C_R   0.198865 0.806075 0.248343 0.061634
C48   C     C_R   0.698879 0.306061 0.251654 0.062141
C49   C     C_R   0.305051 0.302120 0.247569 0.061181
C50   C     C_R   0.301135 0.306025 0.748424 0.061589
C51   C     C_R   0.860018 0.140118 0.250182 0.494991
C52   C     C_R   0.698866 0.306075 0.748344 0.061639
C53   C     C_R   0.962796 0.949369 0.973336 -0.158802
C54   C     C_R   0.962793 0.949372 0.026695 -0.158983
C55   C     C_R   0.462797 0.449368 0.473336 -0.158803
C56   C     C_R   0.462794 0.449371 0.526695 -0.158984
C57   C     C_R   0.004961 0.000241 0.053512 0.030508
C58   C     C_R   0.004966 0.000236 0.946493 0.029832
C59   C     C_R   0.504961 0.500241 0.553512 0.030508
C60   C     C_R   0.504966 0.500236 0.446493 0.029833
C61   C     C_R   0.049964 0.050077 0.026985 0.021239
C62   C     C_R   0.360023 0.640124 0.249836 0.500885
C63   C     C_R   0.049965 0.050071 0.973000 0.021580
C64   C     C_R   0.549964 0.550078 0.526985 0.021240
C65   C     C_R   0.549964 0.550072 0.473000 0.021580
C66   C     C_R   0.140846 0.860582 0.750466 0.512799
C67   C     C_R   0.860346 0.859387 0.749250 0.512322
C68   C     C_R   0.859149 0.860575 0.249546 0.512872
C69   C     C_R   0.140837 0.860590 0.249527 0.513244
C70   C     C_R   0.640846 0.360582 0.250466 0.512801
C71   C     C_R   0.360346 0.359386 0.249250 0.512321
C72   C     C_R   0.359150 0.360575 0.749546 0.512869
C73   C     C_R   0.640001 0.640098 0.249841 0.496140
C74   C     C_R   0.640837 0.360590 0.749527 0.513244
C75   C     C_R   0.001461 0.000068 0.890823 0.512936
C76   C     C_R   0.001455 0.000069 0.109179 0.511661
C77   C     C_R   0.501461 0.500068 0.390823 0.512937
C78   C     C_R   0.501455 0.500069 0.609179 0.511660
C79   C     C_R   0.000092 0.001911 0.608669 0.495453
C80   C     C_R   0.999900 0.001870 0.391331 0.497934
C81   C     C_R   0.500092 0.501911 0.108669 0.495450
C82   C     C_R   0.499900 0.501870 0.891331 0.497932
C83   C     C_3   0.930318 0.971469 0.529559 -0.272296
C84   C     C_R   0.640135 0.639952 0.750006 0.498837
C85   C     C_3   0.066935 0.966100 0.529343 -0.266720
C86   C     C_3   0.070823 0.973663 0.470453 -0.270641
C87   C     C_3   0.934397 0.964043 0.470669 -0.267097
C88   C     C_3   0.430314 0.471478 0.029559 -0.272294
C89   C     C_3   0.566930 0.466092 0.029343 -0.266722
C90   C     C_3   0.570820 0.473656 0.970453 -0.270642
C91   C     C_3   0.434393 0.464049 0.970669 -0.267097
C92   C     C_3   0.003002 0.091826 0.531399 0.332701
C93   C     C_3   0.994460 0.091666 0.468543 0.332740
C94   C     C_3   0.503014 0.591826 0.031399 0.332700
C95   C     C_R   0.360018 0.640117 0.750181 0.494990
C96   C     C_3   0.494466 0.591666 0.968543 0.332740
C97   C     C_3   0.000232 0.008985 0.550931 0.059879
C98   C     C_3   0.999705 0.008937 0.449066 0.057779
C99   C     C_3   0.500233 0.508985 0.050931 0.059880
C100  C     C_3   0.499705 0.508937 0.949066 0.057780
C101  C     C_R   0.183856 0.737797 0.773577 -0.173317
C102  C     C_R   0.801029 0.752754 0.788916 -0.175400
C103  C     C_R   0.815957 0.737967 0.226098 -0.174143
C104  C     C_R   0.183664 0.737616 0.226827 -0.171955
C105  C     C_R   0.683857 0.237798 0.273578 -0.173317
C106  C     C_R   0.804838 0.196919 0.251003 0.013215
C107  C     C_R   0.301029 0.252753 0.288915 -0.175401
C108  C     C_R   0.315977 0.237948 0.726137 -0.174141
C109  C     C_R   0.683669 0.237620 0.726822 -0.171962
C110  C     C_R   0.736633 0.183716 0.273535 -0.159544
C111  C     C_R   0.247483 0.199456 0.289652 -0.158776
C112  C     C_R   0.263221 0.183860 0.726187 -0.159266
C113  C     C_R   0.736428 0.183525 0.726919 -0.151400
C114  C     C_R   0.236632 0.683715 0.773534 -0.159548
C115  C     C_R   0.747482 0.699456 0.789652 -0.158776
C116  C     C_R   0.763202 0.683878 0.226148 -0.159281
Cl1   Cl    Cl    0.109468 0.109655 0.060647 -0.074778
Cl2   Cl    Cl    0.109474 0.109626 0.939311 -0.065194
Cl3   Cl    Cl    0.609466 0.609657 0.560647 -0.074780
Cl4   Cl    Cl    0.609473 0.609628 0.439311 -0.065207
H1    H     H_    0.880799 0.003219 0.540295 0.146135
H2    H     H_    0.061663 0.907446 0.539682 0.124029
H3    H     H_    0.314163 0.360062 0.091449 0.137428
H4    H     H_    0.176363 0.387926 0.820763 0.239767
H5    H     H_    0.138318 0.423499 0.732419 0.117774
H6    H     H_    0.232860 0.448665 0.721237 0.156406
H7    H     H_    0.180080 0.495625 0.769635 0.137072
H8    H     H_    0.825053 0.389404 0.818598 0.239829
H9    H     H_    0.860608 0.424094 0.729614 0.117323
H10   H     H_    0.818939 0.496453 0.766742 0.146289
H11   H     H_    0.765600 0.448214 0.719349 0.156839
H12   H     H_    0.079190 0.918668 0.453251 0.132673
H13   H     H_    0.941491 0.905581 0.460323 0.123817
H14   H     H_    0.423929 0.416225 0.046732 0.118397
H15   H     H_    0.561650 0.407438 0.039680 0.124025
H16   H     H_    0.579183 0.418662 0.953249 0.132672
H17   H     H_    0.441482 0.405586 0.960324 0.123818
H18   H     H_    0.130824 0.725735 0.790149 0.138981
H19   H     H_    0.838697 0.755904 0.821178 0.138976
H20   H     H_    0.868813 0.726068 0.209178 0.138500
H21   H     H_    0.119320 0.985005 0.546486 0.147912
H22   H     H_    0.130494 0.725408 0.210563 0.139660
H23   H     H_    0.630826 0.225736 0.290149 0.138979
H24   H     H_    0.338698 0.255903 0.321178 0.138976
H25   H     H_    0.368847 0.226035 0.709249 0.138485
H26   H     H_    0.630503 0.225416 0.710552 0.139664
H27   H     H_    0.723650 0.131253 0.290344 0.133429
H28   H     H_    0.245082 0.162291 0.322175 0.139751
H29   H     H_    0.276069 0.131554 0.709072 0.134007
H30   H     H_    0.723277 0.130876 0.710473 0.144117
H31   H     H_    0.223648 0.631251 0.790344 0.133446
H32   H     H_    0.119247 0.007058 0.459766 0.146103
H33   H     H_    0.745080 0.662292 0.822175 0.139750
H34   H     H_    0.776037 0.631587 0.209002 0.134016
H35   H     H_    0.223268 0.630867 0.210484 0.144112
H36   H     H_    0.874144 0.276041 0.213286 0.130547
H37   H     H_    0.162600 0.239580 0.175678 0.136156
H38   H     H_    0.126262 0.275635 0.787523 0.129077
H39   H     H_    0.874420 0.276375 0.786118 0.127937
H40   H     H_    0.374145 0.776041 0.713286 0.130546
H41   H     H_    0.662601 0.739579 0.675678 0.136155
H42   H     H_    0.626295 0.775603 0.287598 0.129111
H43   H     H_    0.881438 0.981333 0.453539 0.147295
H44   H     H_    0.374428 0.776383 0.286107 0.127930
H45   H     H_    0.928634 0.910634 0.952937 0.131968
H46   H     H_    0.928627 0.910639 0.047115 0.132321
H47   H     H_    0.428635 0.410633 0.452937 0.131969
H48   H     H_    0.428629 0.410638 0.547115 0.132323
H49   H     H_    0.926756 0.117577 0.592023 0.254435
H50   H     H_    0.985283 0.239628 0.568689 0.139125
H51   H     H_    0.887802 0.231948 0.569862 0.125554
H52   H     H_    0.933760 0.229168 0.509387 0.179560
H53   H     H_    0.119458 0.107059 0.525766 0.250484
H54   H     H_    0.380800 0.503235 0.040294 0.146136
H55   H     H_    0.134674 0.113968 0.614963 0.173537
H56   H     H_    0.042272 0.145949 0.624361 0.150525
H57   H     H_    0.110566 0.204942 0.596904 0.120491
H58   H     H_    0.069816 0.119345 0.407804 0.251237
H59   H     H_    0.106005 0.234660 0.430001 0.122309
H60   H     H_    0.060082 0.230816 0.490455 0.179158
H61   H     H_    0.008382 0.240046 0.431146 0.140495
H62   H     H_    0.877544 0.103336 0.474108 0.251151
H63   H     H_    0.861630 0.111799 0.385104 0.173822
H64   H     H_    0.953512 0.145114 0.375674 0.151796
H65   H     H_    0.619317 0.484989 0.046487 0.147913
H66   H     H_    0.884526 0.202849 0.403706 0.122033
H67   H     H_    0.426782 0.617590 0.092028 0.254425
H68   H     H_    0.485337 0.739631 0.068670 0.139138
H69   H     H_    0.387854 0.731970 0.069885 0.125541
H70   H     H_    0.433760 0.729174 0.009388 0.179556
H71   H     H_    0.619472 0.607043 0.025759 0.250482
H72   H     H_    0.634698 0.613946 0.114957 0.173535
H73   H     H_    0.542302 0.645947 0.124358 0.150534
H74   H     H_    0.610608 0.704925 0.096897 0.120490
H75   H     H_    0.569817 0.619344 0.907801 0.251239
H76   H     H_    0.619246 0.507048 0.959767 0.146101
H77   H     H_    0.606008 0.734659 0.929994 0.122304
H78   H     H_    0.560102 0.730812 0.990453 0.179154
H79   H     H_    0.508386 0.740045 0.931151 0.140503
H80   H     H_    0.377552 0.603346 0.974116 0.251150
H81   H     H_    0.361633 0.611796 0.885110 0.173824
H82   H     H_    0.453513 0.645116 0.875676 0.151795
H83   H     H_    0.384525 0.702849 0.903708 0.122034
H84   H     H_    0.324509 0.888756 0.680492 0.239934
H85   H     H_    0.360930 0.923719 0.769313 0.121316
H86   H     H_    0.266132 0.948558 0.779776 0.158097
H87   H     H_    0.381435 0.481343 0.953539 0.147299
H88   H     H_    0.319587 0.996029 0.732018 0.137661
H89   H     H_    0.709486 0.855173 0.645653 0.240809
H90   H     H_    0.794838 0.766012 0.606582 0.127154
H91   H     H_    0.867208 0.814142 0.640218 0.153701
H92   H     H_    0.814166 0.860061 0.591449 0.137427
H93   H     H_    0.676445 0.887853 0.320892 0.239739
H94   H     H_    0.638231 0.923506 0.232588 0.117745
H95   H     H_    0.732760 0.948690 0.221330 0.156402
H96   H     H_    0.680051 0.995604 0.269804 0.137057
H97   H     H_    0.325069 0.889420 0.318583 0.239816
H98   H     H_    0.923941 0.916215 0.546731 0.118392
H99   H     H_    0.360607 0.924099 0.229588 0.117316
H100  H     H_    0.318945 0.996462 0.266718 0.146282
H101  H     H_    0.265593 0.948214 0.219331 0.156828
H102  H     H_    0.824506 0.388754 0.180491 0.239938
H103  H     H_    0.860932 0.423726 0.269304 0.121317
H104  H     H_    0.766134 0.448554 0.279775 0.158098
H105  H     H_    0.819573 0.496032 0.232014 0.137684
H106  H     H_    0.209485 0.355174 0.145654 0.240810
H107  H     H_    0.294834 0.266013 0.106582 0.127155
H108  H     H_    0.367206 0.314143 0.140217 0.153701
N1    N     N_2   0.942727 0.133574 0.555622 -0.508221
N2    N     N_2   0.759608 0.842912 0.661752 -0.481429
N3    N     N_2   0.712472 0.889885 0.290176 -0.483282
N4    N     N_2   0.288151 0.890775 0.288409 -0.483415
N5    N     N_2   0.787917 0.390398 0.210878 -0.484227
N6    N     N_2   0.259607 0.342913 0.161752 -0.481428
N7    N     N_2   0.212439 0.389923 0.790081 -0.483347
N8    N     N_2   0.788142 0.390765 0.788422 -0.483433
N9    N     N_2   0.073988 0.123799 0.546120 -0.503960
N10   N     N_2   0.053492 0.135015 0.444215 -0.509932
N11   N     N_2   0.922526 0.121526 0.453846 -0.503076
N12   N     N_2   0.442747 0.633583 0.055625 -0.508215
N13   N     N_2   0.574007 0.623788 0.046116 -0.503964
N14   N     N_2   0.553499 0.635013 0.944213 -0.509926
N15   N     N_2   0.422532 0.621531 0.953850 -0.503083
N16   N     N_2   0.287919 0.890399 0.710879 -0.484213
O1    O     O_3   0.000000 0.000000 0.749970 -0.439526
O2    O     O_R   0.646190 0.585480 0.219360 -0.562563
O3    O     O_R   0.646190 0.585480 0.780640 -0.551971
O4    O     O_R   0.353810 0.585480 0.780640 -0.563171
O5    O     O_R   0.146170 0.914530 0.719320 -0.505654
O6    O     O_R   0.853830 0.914530 0.719320 -0.503890
O7    O     O_R   0.853830 0.914530 0.280680 -0.504817
O8    O     O_R   0.146170 0.914530 0.280680 -0.503994
O9    O     O_R   0.646170 0.414530 0.219320 -0.505653
O10   O     O_R   0.353830 0.414530 0.219320 -0.503890
O11   O     O_R   0.353830 0.414530 0.780680 -0.504818
O12   O     O_3   0.000000 0.000000 0.250030 -0.439369
O13   O     O_R   0.646170 0.414530 0.780680 -0.503992
O14   O     O_R   0.085450 0.146180 0.780600 -0.545674
O15   O     O_R   0.914550 0.146180 0.780600 -0.549487
O16   O     O_R   0.914550 0.146180 0.219400 -0.546349
O17   O     O_R   0.085450 0.146180 0.219400 -0.548008
O18   O     O_R   0.585450 0.646180 0.280600 -0.545687
O19   O     O_R   0.414550 0.646180 0.280600 -0.549485
O20   O     O_R   0.414550 0.646180 0.719400 -0.546351
O21   O     O_R   0.585450 0.646180 0.719400 -0.548007
O22   O     O_R   0.914560 0.853830 0.780620 -0.560874
O23   O     O_3   0.500000 0.500000 0.249970 -0.439524
O24   O     O_R   0.085440 0.853830 0.780620 -0.558092
O25   O     O_R   0.085440 0.853830 0.219380 -0.558075
O26   O     O_R   0.914560 0.853830 0.219380 -0.560357
O27   O     O_R   0.414560 0.353830 0.280620 -0.560875
O28   O     O_R   0.585440 0.353830 0.280620 -0.558093
O29   O     O_R   0.585440 0.353830 0.719380 -0.558078
O30   O     O_R   0.414560 0.353830 0.719380 -0.560357
O31   O     O_R   1.000000 0.060730 0.866830 -0.528838
O32   O     O_R   0.000000 0.060730 0.133170 -0.530665
O33   O     O_R   0.500000 0.560730 0.366830 -0.528840
O34   O     O_3   0.500000 0.500000 0.750030 -0.439370
O35   O     O_R   0.500000 0.560730 0.633170 -0.530666
O36   O     O_R   0.939250 0.000010 0.633130 -0.563178
O37   O     O_R   0.060750 0.000010 0.633130 -0.553333
O38   O     O_R   0.060750 0.000010 0.366870 -0.561546
O39   O     O_R   0.939250 0.000010 0.366870 -0.552372
O40   O     O_R   0.439250 0.500010 0.133130 -0.563172
O41   O     O_R   0.560750 0.500010 0.133130 -0.553337
O42   O     O_R   0.560750 0.500010 0.866870 -0.561545
O43   O     O_R   0.439250 0.500010 0.866870 -0.552378
O44   O     O_R   0.000000 0.939270 0.866820 -0.547990
O45   O     O_R   0.853810 0.085480 0.719360 -0.549299
O46   O     O_R   0.000000 0.939270 0.133180 -0.547996
O47   O     O_R   0.500000 0.439270 0.366820 -0.547990
O48   O     O_R   0.500000 0.439270 0.633180 -0.547995
O49   O     O_R   0.146190 0.085480 0.719360 -0.562557
O50   O     O_R   0.146190 0.085480 0.280640 -0.551968
O51   O     O_R   0.853810 0.085480 0.280640 -0.563183
O52   O     O_R   0.353810 0.585480 0.219360 -0.549296
Zn1   Zn    Zn3+2 0.086750 0.999990 0.706190 0.912506
Zn2   Zn    Zn3+2 0.000000 0.086770 0.206250 0.927867
Zn3   Zn    Zn3+2 0.500000 0.586770 0.293750 0.930472
Zn4   Zn    Zn3+2 0.500000 0.586770 0.706250 0.927864
Zn5   Zn    Zn3+2 1.000000 0.913230 0.793740 0.921945
Zn6   Zn    Zn3+2 1.000000 0.913230 0.206260 0.921997
Zn7   Zn    Zn3+2 0.500000 0.413230 0.293740 0.921945
Zn8   Zn    Zn3+2 0.500000 0.413230 0.706260 0.921994
Zn9   Zn    Zn3+2 0.913250 0.999990 0.706190 0.922429
Zn10  Zn    Zn3+2 0.913250 0.999990 0.293810 0.913621
Zn11  Zn    Zn3+2 0.086750 0.999990 0.293810 0.922889
Zn12  Zn    Zn3+2 0.586750 0.499990 0.206190 0.912500
Zn13  Zn    Zn3+2 0.413250 0.499990 0.206190 0.922434
Zn14  Zn    Zn3+2 0.413250 0.499990 0.793810 0.913625
Zn15  Zn    Zn3+2 0.586750 0.499990 0.793810 0.922886
Zn16  Zn    Zn3+2 1.000000 0.086770 0.793750 0.930476

loop_
_geom_bond_atom_site_label_1
_geom_bond_atom_site_label_2
_ccdc_geom_bond_type
H8    N8    S    
C105  C110  A    
C4    H51   S    
C6    H59   S    
C7    H66   S    
O23   Zn7   S    
O27   Zn7   S    
O3    Zn15  S    
C6    N10   S    
C89   C99   S    
C84   O3    A    
C57   C76   S    
C13   C112  A    
C43   N8    S    
O25   Zn6   S    
C9    H73   S    
O45   Zn9   S    
C107  H24   S    
O28   Zn7   S    
C16   H99   S    
C61   C63   A    
C50   C72   S    
O23   Zn12  S    
O33   Zn3   S    
O34   Zn4   S    
C8    H70   S    
C20   N8    S    
C75   O44   A    
H62   N11   S    
C62   O52   A    
C91   C100  S    
C87   H43   S    
O12   Zn6   S    
C25   C34   A    
C115  H33   S    
C41   C49   A    
C60   C77   S    
C2    C111  A    
C23   C84   S    
C15   H95   S    
C39   N5    S    
C83   H98   S    
C81   C99   S    
C19   H5    S    
C71   O10   A    
C86   H32   S    
C48   C105  A    
O40   Zn13  S    
C28   H38   S    
C1    O45   A    
C94   C96   S    
C82   O43   A    
C68   O7    A    
H75   N14   S    
C60   C65   A    
C5    H56   S    
C30   C43   A    
C72   O11   A    
C29   O49   A    
C47   C104  A    
C74   O29   A    
C75   O31   A    
C79   C97   S    
C24   C33   A    
C48   C70   S    
O24   Zn5   S    
C62   O19   A    
C63   Cl2   S    
C53   C58   A    
C18   N6    S    
C57   C61   A    
C79   O37   A    
C46   C103  A    
C56   C59   A    
C7    H63   S    
C12   H85   S    
C103  C116  A    
C111  H28   S    
C64   C65   A    
C86   H12   S    
C65   Cl4   S    
C25   C62   S    
C24   C73   S    
C14   N2    S    
C88   C99   S    
C85   C97   S    
C45   C102  A    
C2    C40   S    
O51   Zn10  S    
C80   O39   A    
O52   Zn13  S    
C49   C71   S    
O41   Zn12  S    
O6    Zn9   S    
C51   O16   A    
C11   N15   S    
O44   Zn5   S    
C40   O50   A    
C9    N13   S    
C10   H79   S    
H67   N12   S    
O12   Zn11  S    
C85   C86   S    
O12   Zn2   S    
C4    H50   S    
C14   H91   S    
C32   C36   A    
C52   C74   S    
H53   N9    S    
C43   C52   A    
C88   H54   S    
C40   O17   A    
C47   C69   S    
C17   H105  S    
C79   O36   A    
C12   N16   S    
O23   Zn3   S    
C76   O46   A    
O23   Zn13  S    
C102  H19   S    
C28   C42   A    
O22   Zn5   S    
C86   C98   S    
C59   C78   S    
O1    Zn9   S    
C92   C97   S    
C8    N12   S    
C30   H39   S    
C21   C113  A    
C18   H107  S    
C85   H21   S    
C11   H82   S    
C46   C68   S    
C17   H103  S    
C42   N7    S    
C88   C91   S    
C96   N14   S    
C42   C50   A    
C24   C116  A    
C116  H34   S    
C81   O41   A    
C10   H77   S    
O1    Zn5   S    
O36   Zn9   S    
C37   N3    S    
O8    Zn11  S    
C4    H52   S    
C6    H60   S    
C107  C111  A    
C113  H30   S    
O20   Zn4   S    
O32   Zn2   S    
C27   H37   S    
H106  N6    S    
C4    N1    S    
C37   C46   A    
C88   H14   S    
C103  H20   S    
C92   N1    S    
C93   N11   S    
C96   C100  S    
C16   H100  S    
H89   N2    S    
C22   C114  A    
C90   H76   S    
C54   C57   A    
O2    Zn12  S    
C3    C104  A    
C83   C87   S    
C55   C56   A    
C80   O38   A    
C89   H15   S    
O34   Zn8   S    
O29   Zn8   S    
C55   H47   S    
C20   H9    S    
O47   Zn7   S    
C26   C106  A    
O34   Zn14  S    
C8    H68   S    
C5    N9    S    
C72   O30   A    
C13   C29   S    
C94   N13   S    
C78   O35   A    
H97   N4    S    
C26   C39   A    
O12   Zn10  S    
C102  C115  A    
C44   C66   S    
O21   Zn4   S    
C45   C67   S    
C13   C28   A    
C2    C27   A    
O19   Zn3   S    
C31   H40   S    
O39   Zn10  S    
C18   H3    S    
C87   C98   S    
C15   N3    S    
C55   C60   A    
C50   C108  A    
C101  C114  A    
C5    H55   S    
C16   H101  S    
C89   H65   S    
C114  H31   S    
C54   H46   S    
H84   N16   S    
C61   Cl1   S    
C3    C25   A    
O26   Zn6   S    
O37   Zn1   S    
C67   O22   A    
C9    H74   S    
C38   N4    S    
C73   O2    A    
C53   C54   A    
C33   C37   A    
C108  C112  A    
O30   Zn8   S    
C12   H86   S    
C96   N15   S    
C77   O47   A    
C91   H87   S    
C8    H69   S    
C3    H35   S    
C85   H2    S    
C11   H83   S    
C18   H108  S    
C94   N12   S    
C95   O20   A    
C31   C35   A    
C20   H11   S    
H58   N10   S    
C66   O24   A    
C108  H25   S    
O11   Zn14  S    
C80   C98   S    
C15   H96   S    
C19   N7    S    
C101  H18   S    
O50   Zn11  S    
C17   N5    S    
C21   C30   A    
C19   H6    S    
C34   H44   S    
C29   O14   A    
C14   H92   S    
C23   C32   A    
C33   H42   S    
O16   Zn2   S    
C52   C109  A    
C92   C93   S    
O43   Zn14  S    
O49   Zn1   S    
C82   O42   A    
C69   O25   A    
C67   O6    A    
O1    Zn1   S    
C83   C97   S    
O10   Zn13  S    
C89   C90   S    
C39   C48   A    
C1    O15   A    
O31   Zn16  S    
O5    Zn1   S    
O17   Zn2   S    
H102  N5    S    
C1    C21   S    
C22   C95   S    
C87   H13   S    
C26   H36   S    
C109  H26   S    
C10   N14   S    
O1    Zn16  S    
C49   C107  A    
C59   C64   A    
C64   Cl3   S    
C7    H64   S    
C12   H88   S    
C51   C106  S    
C41   N6    S    
C76   O32   A    
C11   H81   S    
C77   O33   A    
C69   O8    A    
C91   H17   S    
H4    N7    S    
O46   Zn6   S    
C44   C101  A    
C9    H72   S    
C51   O51   A    
C109  C113  A    
C66   O5    A    
C35   N16   S    
C81   O40   A    
C15   H94   S    
C10   H78   S    
C70   O9    A    
C90   C100  S    
C58   C75   S    
C92   N9    S    
C22   C31   A    
C14   H90   S    
C6    H61   S    
H71   N13   S    
O4    Zn14  S    
C16   N4    S    
O35   Zn4   S    
C68   O26   A    
C95   O4    A    
C90   H16   S    
C27   C41   A    
C70   O28   A    
C93   N10   S    
C32   H41   S    
C56   H48   S    
O9    Zn12  S    
C36   C45   A    
C83   H1    S    
C35   C44   A    
H80   N15   S    
C5    H57   S    
C38   C47   A    
C36   N2    S    
C7    N11   S    
O18   Zn3   S    
C110  H27   S    
C73   O18   A    
C106  C110  A    
C74   O13   A    
C53   H45   S    
C58   C63   A    
C34   C38   A    
C82   C100  S    
C20   H10   S    
H93   N3    S    
C105  H23   S    
C78   O48   A    
O34   Zn15  S    
O42   Zn15  S    
O13   Zn15  S    
C17   H104  S    
O14   Zn16  S    
O38   Zn11  S    
C94   C99   S    
O7    Zn10  S    
C19   H7    S    
O15   Zn16  S    
H49   N1    S    
C84   O21   A    
O48   Zn8   S    
C104  H22   S    
C23   C115  A    
C71   O27   A    
C112  H29   S    
C93   C98   S    
