data_mof_unit_68342.cif
_audit_creation_date              2012-12-11T16:54:01-0500
_audit_creation_method            fapswitch 2.2
_symmetry_space_group_name_H-M    P1
_symmetry_Int_Tables_number       1
_space_group_crystal_system       triclinic
_cell_length_a                    8.406766
_cell_length_b                    12.906299
_cell_length_c                    16.530876
_cell_angle_alpha                 95.763251
_cell_angle_beta                  92.954434
_cell_angle_gamma                 97.525206
_cell_volume                      1765.35904339

loop_
_atom_site_label
_atom_site_type_symbol
_atom_type_description
_atom_site_fract_x
_atom_site_fract_y
_atom_site_fract_z
_atom_type_partial_charge
Ba1   Ba    Ba6+2 0.162890 0.552530 0.460820 1.692233
Ba2   Ba    Ba6+2 0.647290 0.447460 0.539110 1.686657
C1    C     C_3   0.410909 0.768724 0.156151 -0.302686
C2    C     C_R   0.735462 0.819428 0.477815 -0.289480
C3    C     C_R   0.698072 0.996577 0.451297 -0.018301
C4    C     C_3   0.907133 0.769714 0.132591 0.882542
C5    C     C_R   0.642126 0.888052 0.445407 -0.035982
C6    C     C_R   0.882964 0.854689 0.520205 0.055214
C7    C     C_R   0.939099 0.967272 0.531105 -0.014372
C8    C     C_R   0.846979 0.039453 0.493656 0.023120
C9    C     C_R   0.912667 0.150323 0.495362 0.107248
C10   C     C_R   0.149368 0.117319 0.575421 0.061990
C11   C     C_R   0.087324 0.009719 0.573974 -0.001511
C12   C     C_3   0.427476 0.758282 0.246089 0.291156
C13   C     C_R   0.614918 0.542468 0.269145 -0.309480
C14   C     C_R   0.461248 0.491029 0.244590 0.079188
C15   C     C_R   0.405021 0.481085 0.161834 -0.162625
C16   C     C_3   0.962048 0.889023 0.129985 0.658501
C17   C     C_R   0.512755 0.503458 0.101822 0.245765
C18   C     C_R   0.674240 0.535599 0.128580 -0.065399
C19   C     C_R   0.721421 0.568352 0.210593 -0.012412
C20   C     C_R   0.385541 0.511474 0.853430 -0.112859
C21   C     C_R   0.336173 0.506841 0.770077 -0.021417
C22   C     C_R   0.280493 0.465612 0.908803 0.285021
C23   C     C_3   0.499815 0.775358 0.660712 0.284734
C24   C     C_R   0.185579 0.453967 0.741149 -0.288989
C25   C     C_R   0.077571 0.412856 0.794583 0.021032
C26   C     C_R   0.124419 0.419380 0.878326 -0.150560
C27   C     C_3   0.776779 0.319024 0.295656 0.397224
C28   C     C_3   0.780381 0.306664 0.202233 0.789963
C29   C     C_3   0.040113 0.677384 0.702354 0.257319
C30   C     C_3   0.077257 0.704234 0.793612 -0.202118
C31   C     C_3   0.237566 0.221252 0.327516 0.232181
C32   C     C_3   0.216902 0.110870 0.282338 0.338870
C33   C     C_3   0.624785 0.271330 0.078952 0.248383
C34   C     C_3   0.424053 0.874811 0.677511 -0.289063
C35   C     C_3   0.668361 0.173189 0.029959 -0.322155
C36   C     C_3   0.022620 0.301766 0.139489 0.121190
C37   C     C_3   0.088429 0.233677 0.073561 -0.261551
C38   C     C_3   0.764342 0.980141 0.182133 0.196076
C39   C     C_3   0.595790 0.002158 0.163747 -0.341135
C40   C     C_3   0.841085 0.156700 0.712110 0.309039
C41   C     C_3   0.754079 0.047285 0.721050 0.327767
C42   C     C_3   0.424531 0.233694 0.758880 0.313056
C43   C     C_3   0.461197 0.212771 0.845880 0.284723
C44   C     C_R   0.059681 0.185762 0.539008 -0.255248
H1    H     H_    0.325889 0.697843 0.256665 0.116625
H2    H     H_    0.350644 0.694298 0.121881 0.148604
H3    H     H_    0.142996 0.110425 0.225063 0.067493
H4    H     H_    0.336319 0.087356 0.270064 0.087207
H5    H     H_    0.545377 0.731875 0.259624 -0.033917
H6    H     H_    0.529697 0.787881 0.131573 0.162859
H7    H     H_    0.630209 0.795711 0.653034 0.039381
H8    H     H_    0.442393 0.734873 0.602267 0.040716
H9    H     H_    0.465506 0.913282 0.739071 0.187932
H10   H     H_    0.453251 0.928435 0.630354 0.069738
H11   H     H_    0.292550 0.854868 0.677813 0.144316
H12   H     H_    0.805340 0.388340 0.188184 -0.181847
H13   H     H_    0.337023 0.831087 0.148321 0.222365
H14   H     H_    0.788945 0.176614 0.653617 -0.013792
H15   H     H_    0.971712 0.154653 0.707696 0.030610
H16   H     H_    0.744069 0.998105 0.661544 -0.121794
H17   H     H_    0.633044 0.055824 0.739852 0.056720
H18   H     H_    0.312669 0.270673 0.755450 -0.019169
H19   H     H_    0.525715 0.289085 0.742049 0.065110
H20   H     H_    0.480933 0.288098 0.886207 -0.044798
H21   H     H_    0.790339 0.763282 0.161028 -0.458638
H22   H     H_    0.570024 0.173576 0.849897 0.061500
H23   H     H_    0.145095 0.648078 0.674741 -0.014171
H24   H     H_    0.625256 0.046103 0.421252 0.113013
H25   H     H_    0.161117 0.958651 0.600970 0.085456
H26   H     H_    0.111951 0.267023 0.539230 0.041321
H27   H     H_    0.689940 0.736369 0.471210 0.052067
H28   H     H_    0.502143 0.553793 0.875015 0.158748
H29   H     H_    0.764665 0.530138 0.085855 0.151134
H30   H     H_    0.282191 0.450736 0.143801 0.097234
H31   H     H_    0.039246 0.388771 0.919930 0.069122
H32   H     H_    0.655853 0.554504 0.332974 0.069660
H33   H     H_    0.148075 0.450766 0.677199 0.059707
H34   H     H_    0.934143 0.615434 0.692329 0.072669
H35   H     H_    0.018082 0.921247 0.189544 0.029860
H36   H     H_    0.874907 0.383299 0.318126 -0.019369
H37   H     H_    0.661039 0.343545 0.313284 -0.050427
H38   H     H_    0.704331 0.340573 0.062231 0.011302
H39   H     H_    0.501224 0.282284 0.058394 0.116096
H40   H     H_    0.564691 0.110525 0.019240 0.157890
H41   H     H_    0.709927 0.194559 0.970668 0.093652
H42   H     H_    0.765328 0.138970 0.060660 0.196150
H43   H     H_    0.120130 0.327520 0.186063 0.120446
H44   H     H_    0.987912 0.370191 0.110065 0.081685
H45   H     H_    0.189025 0.761161 0.805766 0.169905
H46   H     H_    0.001983 0.215257 0.019724 0.140127
H47   H     H_    0.200210 0.277822 0.054853 0.109934
H48   H     H_    0.115219 0.160382 0.096707 0.209272
H49   H     H_    0.038454 0.855071 0.339252 0.346170
H50   H     H_    0.839512 0.054904 0.206059 0.180195
H51   H     H_    0.758967 0.924276 0.229575 0.071616
H52   H     H_    0.545606 0.959531 0.104460 0.189714
H53   H     H_    0.519725 0.981714 0.213331 0.157753
H54   H     H_    0.593175 0.085761 0.162118 0.173160
H55   H     H_    0.757563 0.017020 0.912525 0.362297
H56   H     H_    0.092076 0.632833 0.823455 0.029987
H57   H     H_    0.089121 0.208851 0.887973 0.347655
H58   H     H_    0.929416 0.568988 0.958375 0.342283
H59   H     H_    0.326759 0.045055 0.081420 0.380164
H60   H     H_    0.976248 0.739735 0.820284 0.228537
H61   H     H_    0.118304 0.249160 0.330542 0.028675
H62   H     H_    0.294889 0.223029 0.389867 0.056289
N1    N     N_2   0.468749 0.491049 0.015517 -0.197102
N2    N     N_2   0.321299 0.471570 0.995134 -0.215304
O1    O     O_2   0.158840 0.763480 0.539220 -0.484850
O2    O     O_2   0.749549 0.424156 0.792210 -0.504488
O3    O     O_3   0.812775 0.229530 0.777626 -0.615800
O4    O     O_3   0.888900 0.629060 0.541050 -0.499016
O5    O     O_3   0.432390 0.444990 0.403690 -0.482271
O6    O     O_2   0.627510 0.552390 0.696520 -0.449653
O7    O     O_3   0.479179 0.718280 0.728468 -0.589752
O8    O     O_2   0.479487 0.111085 0.556147 -0.483510
O9    O     O_3   0.408405 0.139185 0.707262 -0.613524
O10   O     O_3   0.391330 0.697380 0.393380 -0.507993
O11   O     O_2   0.309001 0.878274 0.441513 -0.371422
O12   O     O_3   0.339017 0.282285 0.282395 -0.663925
O13   O     O_3   0.006905 0.768769 0.669734 -0.593276
O14   O     O_3   0.416752 0.854211 0.293831 -0.558162
O15   O     O_2   0.182780 0.447540 0.303450 -0.488044
O16   O     O_3   0.969510 0.643060 0.352850 -0.485964
O17   O     O_2   0.025887 0.537267 0.214016 -0.483385
O18   O     O_3   0.628379 0.263224 0.164297 -0.677953
O19   O     O_3   0.898482 0.243525 0.177072 -0.674476
O20   O     O_2   0.199386 0.045902 0.424106 -0.349099
O21   O     O_2   0.946229 0.039699 0.341310 -0.430245
O22   O     O_3   0.123817 0.893981 0.310529 -0.482743
O23   O     O_3   0.020023 0.725768 0.183402 -0.626399
O24   O     O_3   0.827387 0.938875 0.110091 -0.638593
O25   O     O_2   0.753200 0.873121 0.797991 -0.286193
O26   O     O_2   0.013965 0.965156 0.771564 -0.188821
O27   O     O_3   0.853003 0.048792 0.886579 -0.436316
O28   O     O_2   0.310171 0.017050 0.848708 -0.184534
O29   O     O_2   0.305506 0.141490 0.969168 -0.363046
O30   O     O_3   0.126383 0.164725 0.842425 -0.466165
O31   O     O_2   0.689841 0.669137 0.013126 -0.327988
O32   O     O_2   0.900744 0.780489 0.963964 -0.184741
O33   O     O_3   0.975199 0.607404 0.011052 -0.537187
O34   O     O_2   0.651450 0.236450 0.460750 -0.473880
O35   O     O_2   0.192424 0.835476 0.024736 -0.247893
O36   O     O_2   0.053242 0.984545 0.998570 -0.125109
O37   O     O_3   0.263397 0.007680 0.120624 -0.632926
O38   O     O_3   0.921400 0.370930 0.458880 -0.514538
O39   O     O_3   0.418970 0.302610 0.606550 -0.498006
O40   O     O_3   0.799603 0.225996 0.329556 -0.612067
O41   O     O_3   0.377910 0.555000 0.596240 -0.495773
O42   O     O_3   0.840790 0.356930 0.647080 -0.496013
P1    P     P_3+3 0.983580 0.746680 0.563420 0.994095
P2    P     P_3+3 0.350740 0.415080 0.315970 0.975942
P3    P     P_3+3 0.930189 0.626285 0.242645 0.973253
P4    P     P_3+3 0.826720 0.253310 0.436510 1.004355
P5    P     P_3+3 0.871974 0.357731 0.753094 0.919548
P6    P     P_3+3 0.443077 0.831982 0.396014 1.030059
P7    P     P_3+3 0.452725 0.583065 0.698963 0.981079
P8    P     P_3+3 0.362449 0.167210 0.608639 0.977378
S1    S     S_3+6 0.117514 0.020889 0.341424 -0.163007
S2    S     S_3+6 0.847549 0.979589 0.794734 0.011660
S3    S     S_3+6 0.298857 0.129474 0.878469 -0.018603
S4    S     S_3+6 0.866228 0.707047 0.027548 -0.025279
S5    S     S_3+6 0.119569 0.926719 0.064084 0.000617

loop_
_geom_bond_atom_site_label_1
_geom_bond_atom_site_label_2
_ccdc_geom_bond_type
O9    P8    S    
C39   H54   S    
O7    P7    S    
Ba2   O34   S    
O33   S4    S    
C35   H42   S    
O8    P8    D    
C17   C18   A    
C31   H61   S    
C2    C6    A    
C32   S1    S    
C41   H17   S    
C29   H34   S    
C5    P6    S    
O26   S2    D    
C42   H18   S    
O30   S3    S    
C10   C11   A    
C36   H43   S    
C24   C25   A    
C3    H24   S    
C33   C35   S    
Ba1   O15   S    
C27   H37   S    
C4    O23   S    
O32   S4    D    
O27   S2    S    
C30   H45   S    
O21   S1    D    
Ba2   O38   S    
C13   C14   A    
H59   O37   S    
C1    H2    S    
C16   H35   S    
Ba1   Ba2   S    
C21   C24   A    
C7    C11   A    
O22   S1    S    
C37   H47   S    
O37   S5    S    
C27   O40   S    
Ba2   O6    S    
C29   C30   S    
C6    C7    A    
C21   P7    S    
C15   H30   S    
C39   H53   S    
C16   O24   S    
O28   S3    D    
C7    C8    A    
O4    P1    S    
C44   H26   S    
O16   P3    S    
Ba2   O39   S    
C30   H60   S    
O10   P6    S    
O12   P2    S    
C42   H19   S    
C33   O18   S    
C31   H62   S    
C38   H50   S    
C2    C5    A    
C16   S5    S    
C17   N1    S    
Ba2   O42   S    
C4    C16   S    
C28   O18   S    
C32   H4    S    
C12   O14   S    
O2    P5    D    
C36   O19   S    
C35   H40   S    
C22   N2    S    
Ba1   O16   S    
O6    P7    D    
C10   C44   A    
C34   H11   S    
C40   H14   S    
C38   H51   S    
C3    C5    A    
H55   O27   S    
C14   C15   A    
O35   S5    D    
C11   H25   S    
C42   O9    S    
C38   O24   S    
C39   H52   S    
C18   H29   S    
O14   P6    S    
Ba1   O10   S    
O41   P7    S    
O34   P4    D    
C41   S2    S    
C37   H48   S    
C27   C28   S    
C34   H10   S    
Ba2   O5    S    
C40   O3    S    
C12   H5    S    
C13   C19   A    
C1    H6    S    
C43   H22   S    
C31   C32   S    
C19   P3    S    
H58   O33   S    
C10   P8    S    
Ba1   P1    S    
C26   H31   S    
O1    P1    D    
C40   H15   S    
C2    H27   S    
C1    C12   S    
C23   H8    S    
C9    P4    S    
O20   S1    D    
C4    H21   S    
O36   S5    D    
C4    S4    S    
O11   P6    D    
O5    P2    S    
C14   P2    S    
H49   O22   S    
O25   S2    D    
C30   H56   S    
Ba1   O4    S    
C20   H28   S    
O17   P3    D    
C37   H46   S    
C25   C26   A    
O15   P2    D    
O13   P1    S    
Ba2   O41   S    
O42   P5    S    
C38   C39   S    
C32   H3    S    
Ba2   P4    S    
O23   P3    S    
C35   H41   S    
C42   C43   S    
C22   C26   A    
C23   H7    S    
C9    C44   A    
C23   O7    S    
C6    P1    S    
C31   O12   S    
C33   H38   S    
C12   H1    S    
C25   P5    S    
C28   O19   S    
O38   P4    S    
C36   H44   S    
C24   H33   S    
O29   S3    D    
C43   S3    S    
C29   O13   S    
C3    C8    A    
C34   H9    S    
H57   O30   S    
Ba1   O1    S    
Ba2   O4    S    
C36   C37   S    
C28   H12   S    
C15   C17   A    
Ba1   O41   S    
C20   C22   A    
Ba1   P2    S    
O39   P8    S    
C27   H36   S    
C8    C9    A    
C23   C34   S    
C13   H32   S    
C33   H39   S    
C29   H23   S    
C18   C19   A    
O31   S4    D    
C40   C41   S    
C43   H20   S    
C20   C21   A    
Ba1   O38   S    
O40   P4    S    
Ba1   O5    S    
O3    P5    S    
N1    N2    D    
C41   H16   S    
C1    H13   S    
