data_mof_unit_33891.cif
_audit_creation_date              2012-10-26T21:02:55-0400
_audit_creation_method            fapswitch 2.2
_symmetry_space_group_name_H-M    P1
_symmetry_Int_Tables_number       1
_space_group_crystal_system       triclinic
_cell_length_a                    12.400792
_cell_length_b                    13.227796
_cell_length_c                    23.294935
_cell_angle_alpha                 75.700657
_cell_angle_beta                  100.776764
_cell_angle_gamma                 116.829227
_cell_volume                      3291.59465734

loop_
_atom_site_label
_atom_site_type_symbol
_atom_type_description
_atom_site_fract_x
_atom_site_fract_y
_atom_site_fract_z
_atom_type_partial_charge
C1    C     C_R   0.854927 0.286536 0.504951 0.545384
C2    C     C_R   0.161377 0.615633 0.877832 0.421814
C3    C     C_R   0.095318 0.658303 0.736762 0.304817
C4    C     C_R   0.001321 0.501817 0.608608 0.549909
C5    C     C_R   0.074492 0.634757 0.678938 -0.162213
C6    C     C_R   0.014976 0.520819 0.669219 -0.035116
C7    C     C_R   0.978556 0.428610 0.717755 -0.058551
C8    C     C_R   0.995257 0.452483 0.774744 -0.116498
C9    C     C_R   0.049809 0.566183 0.784099 0.242998
C10   C     C_R   0.073869 0.476896 0.246091 -0.064057
C11   C     C_R   0.063912 0.460312 0.306801 -0.163317
C12   C     C_R   0.831872 0.530049 0.005122 -0.135146
C13   C     C_R   0.010650 0.517313 0.327058 -0.002537
C14   C     C_R   0.969726 0.592694 0.285995 -0.149357
C15   C     C_R   0.982027 0.611029 0.225603 -0.058920
C16   C     C_R   0.144727 0.714031 0.491056 0.533562
C17   C     C_R   0.033011 0.552455 0.205083 0.235423
C18   C     C_R   0.273345 0.039847 0.444593 -0.114583
C19   C     C_R   0.227054 0.837725 0.481650 -0.023014
C20   C     C_R   0.812295 0.080122 0.539933 -0.174917
C21   C     C_R   0.730193 0.966180 0.558867 0.004047
C22   C     C_R   0.604987 0.937062 0.548982 0.260274
C23   C     C_R   0.835776 0.537494 0.944871 -0.133313
C24   C     C_R   0.561899 0.013576 0.507903 0.025074
C25   C     C_R   0.646830 0.127473 0.487212 -0.018572
C26   C     C_R   0.436901 0.982243 0.488103 0.011036
C27   C     C_R   0.397340 0.067590 0.457309 -0.004895
C28   C     C_R   0.001988 0.503077 0.390812 0.523349
C29   C     C_R   0.482149 0.177403 0.435725 -0.132498
C30   C     C_R   0.604666 0.203391 0.446276 -0.101236
C31   C     C_R   0.351066 0.867685 0.494703 -0.166778
C32   C     C_R   0.187030 0.925018 0.456901 0.269803
C33   C     C_R   0.771164 0.163017 0.508505 -0.032723
C34   C     C_R   0.945635 0.567221 0.922215 0.029217
C35   C     C_R   0.332985 0.311177 0.588229 -0.161292
C36   C     C_R   0.757851 0.637687 0.415417 0.068233
C37   C     C_R   0.653598 0.649592 0.389085 -0.167121
C38   C     C_R   0.547587 0.587394 0.417668 -0.104006
C39   C     C_R   0.546272 0.522009 0.475343 0.003688
C40   C     C_R   0.149456 0.604731 0.120644 0.396870
C41   C     C_R   0.650801 0.501210 0.496753 0.160195
C42   C     C_R   0.441503 0.465941 0.509020 -0.000088
C43   C     C_R   0.436170 0.373801 0.556650 -0.002058
C44   C     C_R   0.535910 0.347380 0.573894 -0.172821
C45   C     C_R   0.053924 0.594688 0.960165 -0.042887
C46   C     C_R   0.642697 0.413008 0.546050 -0.113856
C47   C     C_R   0.346154 0.502356 0.500618 0.421483
C48   C     C_R   0.237444 0.343092 0.574905 0.007540
C49   C     C_R   0.934747 0.541779 0.105081 0.397084
C50   C     C_R   0.938035 0.553889 0.043846 0.033178
C51   C     C_R   0.049752 0.588693 0.021187 -0.031422
C52   C     C_R   0.156480 0.615002 0.059743 0.015939
C53   C     C_3   0.034291 0.911428 0.383460 -0.115407
C54   C     C_3   0.491612 0.857050 0.628677 -0.126488
C55   C     C_R   0.773830 0.878360 0.592812 0.061518
C56   C     C_R   0.165172 0.625203 0.937542 0.011881
C57   C     C_R   0.870078 0.905376 0.637730 -0.124083
C58   C     C_R   0.900441 0.818882 0.673859 -0.100097
C59   C     C_R   0.837028 0.705259 0.664733 -0.073200
C60   C     C_R   0.745963 0.678509 0.618264 -0.097954
C61   C     C_R   0.714968 0.764476 0.582151 -0.029392
C62   C     C_3   0.322580 0.633021 0.416073 -0.074933
C63   C     C_R   0.396046 0.705093 0.955599 0.077056
C64   C     C_R   0.441190 0.811167 0.916070 -0.041100
C65   C     C_R   0.556673 0.855279 0.896566 -0.102624
C66   C     C_R   0.628201 0.794549 0.916843 -0.092816
C67   C     C_R   0.273777 0.658327 0.976318 -0.029926
C68   C     C_R   0.584508 0.689760 0.956789 -0.096598
C69   C     C_R   0.468957 0.645189 0.976319 -0.074145
C70   C     C_3   0.263594 0.831812 0.725491 -0.120016
C71   C     C_R   0.920790 0.306934 0.710674 0.039874
C72   C     C_R   0.806024 0.261556 0.679620 -0.081513
C73   C     C_R   0.747955 0.144350 0.676675 -0.116252
C74   C     C_R   0.803569 0.071816 0.705565 -0.113207
C75   C     C_R   0.918104 0.116533 0.736277 -0.124313
C76   C     C_R   0.976657 0.233748 0.738949 -0.095096
C77   C     C_R   0.267612 0.651382 0.036789 -0.132446
C78   C     C_R   0.948844 0.566179 0.862732 0.400615
Cu1   Cu    Cu3+1 0.098270 0.475410 0.513370 0.965333
Cu2   Cu    Cu3+1 0.901730 0.524590 0.486630 0.931020
H1    H     H_    0.745123 0.504251 0.021329 0.156781
H2    H     H_    0.665052 0.283877 0.421528 0.160980
H3    H     H_    0.156889 0.293638 0.598687 0.129399
H4    H     H_    0.533014 0.277899 0.610772 0.109194
H5    H     H_    0.326705 0.238330 0.623502 0.105436
H6    H     H_    0.838745 0.680520 0.391935 0.125075
H7    H     H_    0.465978 0.578961 0.390663 0.110503
H8    H     H_    0.652799 0.700451 0.344904 0.105060
H9    H     H_    0.716353 0.390223 0.563070 0.177227
H10   H     H_    0.350888 0.675471 0.065905 0.163678
H11   H     H_    0.102759 0.704982 0.641300 0.122457
H12   H     H_    0.096301 0.401999 0.337773 0.118882
H13   H     H_    0.963340 0.382393 0.812190 0.131001
H14   H     H_    0.112471 0.430316 0.230863 0.135895
H15   H     H_    0.935889 0.889141 0.374762 0.131867
H16   H     H_    0.052587 0.851837 0.364451 0.101890
H17   H     H_    0.082524 0.001849 0.360276 0.105189
H18   H     H_    0.455068 0.923172 0.614201 0.100646
H19   H     H_    0.568123 0.883373 0.663281 0.117612
H20   H     H_    0.418236 0.776303 0.649178 0.149942
H21   H     H_    0.919114 0.992253 0.646362 0.103405
H22   H     H_    0.971644 0.839783 0.709651 0.168070
H23   H     H_    0.930251 0.639190 0.300701 0.110962
H24   H     H_    0.857778 0.637631 0.693745 0.157041
H25   H     H_    0.697839 0.590701 0.610938 0.124894
H26   H     H_    0.643278 0.741515 0.546596 0.166320
H27   H     H_    0.255102 0.667842 0.411776 0.153471
H28   H     H_    0.282444 0.554457 0.395737 0.102782
H29   H     H_    0.394549 0.702907 0.388838 0.105959
H30   H     H_    0.386547 0.858960 0.900116 0.115124
H31   H     H_    0.590716 0.936536 0.865741 0.107005
H32   H     H_    0.717555 0.828781 0.901697 0.116474
H33   H     H_    0.640154 0.643044 0.972568 0.111385
H34   H     H_    0.951212 0.670434 0.194598 0.136100
H35   H     H_    0.435921 0.563787 0.007160 0.113665
H36   H     H_    0.255477 0.861721 0.676618 0.097668
H37   H     H_    0.318270 0.780799 0.737479 0.141483
H38   H     H_    0.314034 0.909694 0.745996 0.138963
H39   H     H_    0.760307 0.316200 0.659522 0.094428
H40   H     H_    0.659174 0.109562 0.652884 0.096070
H41   H     H_    0.758236 0.980785 0.704528 0.115604
H42   H     H_    0.961009 0.060118 0.758420 0.112237
H43   H     H_    0.064773 0.267305 0.763561 0.116403
H44   H     H_    0.453673 0.241269 0.407679 0.110841
H45   H     H_    0.243599 0.107025 0.424007 0.113067
H46   H     H_    0.380605 0.799898 0.506657 0.242875
H47   H     H_    0.908397 0.105517 0.552094 0.137487
H48   H     H_    0.751780 0.516944 0.916417 0.163973
N1    N     N_R   0.039466 0.566942 0.142291 -0.394822
N2    N     N_R   0.054574 0.586689 0.842366 -0.369577
N3    N     N_R   0.246280 0.438190 0.533650 -0.216043
N4    N     N_R   0.754320 0.561190 0.466710 -0.232144
O1    O     O_R   0.972510 0.318130 0.516820 -0.504219
O2    O     O_R   0.082990 0.479280 0.429170 -0.518654
O3    O     O_R   0.917010 0.520800 0.406580 -0.514770
O4    O     O_2   0.251750 0.632680 0.157851 -0.514140
O5    O     O_3   0.064619 0.898840 0.445491 -0.538841
O6    O     O_3   0.527174 0.834282 0.580986 -0.580965
O7    O     O_3   0.372785 0.617308 0.475638 -0.557024
O8    O     O_3   0.148137 0.770022 0.747501 -0.562526
O9    O     O_2   0.827217 0.503038 0.127410 -0.508751
O10   O     O_2   0.846329 0.541835 0.825655 -0.518624
O11   O     O_2   0.261417 0.629831 0.855832 -0.495367
O12   O     O_R   0.806530 0.359650 0.494230 -0.525696
O13   O     O_R   0.082990 0.479200 0.593420 -0.481913
O14   O     O_R   0.917010 0.520720 0.570830 -0.517491
O15   O     O_R   0.193470 0.640350 0.505770 -0.474557
O16   O     O_R   0.027490 0.681870 0.483180 -0.449165

loop_
_geom_bond_atom_site_label_1
_geom_bond_atom_site_label_2
_ccdc_geom_bond_type
C66   C68   A    
C40   N1    A    
C70   O8    S    
Cu2   N4    S    
C27   C29   A    
C28   O3    A    
C11   C13   A    
C73   C74   A    
C37   H8    S    
C67   C77   A    
C75   C76   A    
C19   C31   A    
C14   H23   S    
C1    C33   S    
C7    C8    A    
C39   C41   A    
C46   H9    S    
C54   O6    S    
C9    N2    S    
C40   O4    S    
C12   C23   A    
C26   C27   A    
C29   C30   A    
Cu2   O3    S    
C16   O15   A    
C28   O2    A    
C59   H24   S    
C36   C37   A    
C24   C26   A    
C36   N4    A    
C18   H45   S    
C7    C71   S    
C38   C39   A    
C62   H28   S    
C10   H14   S    
C10   C17   A    
C75   H42   S    
C29   H44   S    
C65   H31   S    
C11   H12   S    
C63   C69   A    
C45   C56   A    
C35   C48   A    
C68   C69   A    
Cu2   O12   S    
C49   O9    S    
C41   C46   A    
C48   N3    A    
C58   H22   S    
C62   O7    S    
C35   C43   A    
C68   H33   S    
Cu2   O14   S    
Cu1   N3    S    
C59   C60   A    
C73   H40   S    
C13   C14   A    
C53   H16   S    
C2    O11   S    
C54   H20   S    
C1    O1    A    
C19   C32   A    
C44   C46   A    
C39   C42   A    
Cu1   O1    S    
C63   C67   S    
C77   H10   S    
C74   C75   A    
C8    H13   S    
C17   N1    S    
C51   C52   A    
C24   C25   A    
C20   H47   S    
Cu1   O13   S    
C21   C55   S    
C8    C9    A    
Cu1   O15   S    
C62   H27   S    
C36   H6    S    
C58   C59   A    
C40   C52   A    
C49   N1    A    
C63   C64   A    
C47   N3    A    
C60   C61   A    
C30   H2    S    
C43   C44   A    
C37   C38   A    
C3    C9    A    
C53   H15   S    
C64   H30   S    
Cu2   O16   S    
C23   C34   A    
C4    O14   A    
C50   C51   A    
C15   H34   S    
C13   C28   S    
C34   C45   A    
C61   H26   S    
C5    H11   S    
C20   C33   A    
C4    C6    S    
C49   C50   A    
C55   C57   A    
C53   O5    S    
C54   H19   S    
C18   C32   A    
C42   C43   A    
C52   C77   A    
C71   C76   A    
C25   C30   A    
C15   C17   A    
Cu1   O2    S    
C69   H35   S    
C76   H43   S    
C18   C27   A    
C72   C73   A    
C3    C5    A    
C41   N4    A    
C12   C50   A    
C6    C7    A    
C56   C67   A    
C57   H21   S    
C22   O6    S    
C48   H3    S    
C44   H4    S    
C38   H7    S    
C16   O16   A    
C70   H36   S    
C64   C65   A    
C78   O10   S    
C78   N2    A    
C32   O5    S    
C1    O12   A    
C2    C56   A    
C34   C78   A    
C35   H5    S    
C57   C58   A    
C5    C6    A    
C62   H29   S    
C70   H38   S    
C16   C19   S    
C4    O13   A    
C55   C61   A    
C72   H39   S    
C2    N2    A    
C53   H17   S    
C12   H1    S    
C22   C24   A    
C42   C47   A    
C10   C11   A    
Cu1   Cu2   S    
C26   C31   A    
C74   H41   S    
C71   C72   A    
C20   C21   A    
C65   C66   A    
C47   O7    S    
C45   C51   A    
C14   C15   A    
C54   H18   S    
C3    O8    S    
C70   H37   S    
C31   H46   S    
C66   H32   S    
C21   C22   A    
C60   H25   S    
C25   C33   A    
C23   H48   S    
