data_mof_unit_36154.cif
_audit_creation_date              2012-12-11T17:07:34-0500
_audit_creation_method            fapswitch 2.2
_symmetry_space_group_name_H-M    P1
_symmetry_Int_Tables_number       1
_space_group_crystal_system       triclinic
_cell_length_a                    6.942897
_cell_length_b                    14.723593
_cell_length_c                    15.951299
_cell_angle_alpha                 89.995847
_cell_angle_beta                  90.016944
_cell_angle_gamma                 90.623259
_cell_volume                      1630.51525596

loop_
_atom_site_label
_atom_site_type_symbol
_atom_type_description
_atom_site_fract_x
_atom_site_fract_y
_atom_site_fract_z
_atom_type_partial_charge
O1    O     O_R   0.505720 0.583900 0.413310 -0.538784
O2    O     O_R   0.175940 0.594920 0.586080 -0.557560
O3    O     O_R   0.005640 0.416100 0.586690 -0.553089
C1    C     C_R   0.346655 0.617490 0.614398 0.715825
O4    O     O_R   0.176000 0.594930 0.413930 -0.555336
O5    O     O_R   0.005700 0.416110 0.413310 -0.548559
C2    C     C_R   0.345193 0.616603 0.385040 0.708953
O6    O     O_R   0.505660 0.583890 0.586690 -0.527343
O7    O     O_3   0.339200 0.441330 0.500000 -0.350336
V1    V     V_3+5 0.064350 0.510880 0.500000 1.426408
O8    O     O_R   0.675980 0.405080 0.413920 -0.505304
C3    C     C_R   0.845193 0.382146 0.385781 0.773680
O9    O     O_R   0.675920 0.405070 0.586070 -0.490345
C4    C     C_R   0.841295 0.385172 0.617324 0.855209
V2    V     V_3+5 0.564340 0.489120 0.500000 1.557308
O10   O     O_3   0.839360 0.558670 0.500000 -0.392378
C5    C     C_R   0.668014 0.409514 0.791027 0.333534
C6    C     C_R   0.648817 0.435978 0.876231 0.271589
C7    C     C_R   0.749274 0.388274 0.938572 0.402526
C8    C     C_R   0.832879 0.305402 0.918177 -0.265217
C9    C     C_R   0.839555 0.275098 0.834437 -0.061274
C10   C     C_R   0.787723 0.335413 0.769158 -0.085773
C11   C     C_R   0.879694 0.183756 0.815621 -0.065462
C12   C     C_R   0.870686 0.154466 0.730984 0.000168
C13   C     C_R   0.854153 0.218670 0.664218 -0.021510
C14   C     C_R   0.835233 0.312900 0.684326 -0.102105
C15   C     C_R   0.867586 0.061140 0.712400 -0.207289
C16   C     C_R   0.863713 0.030047 0.630451 -0.218627
C17   C     C_R   0.850323 0.091094 0.563774 0.342880
C18   C     C_R   0.834889 0.185122 0.580457 0.311503
H1    H     H_    0.886442 0.263891 0.968960 0.143577
H2    H     H_    0.862871 0.010922 0.761656 0.155579
H3    H     H_    0.865628 0.957541 0.619050 0.153030
C19   C     C_R   0.751215 0.256256 0.181848 -0.012017
C20   C     C_R   0.882939 0.185184 0.182544 -0.235411
C21   C     C_R   0.011513 0.181200 0.250441 -0.111382
H4    H     H_    0.114094 0.126446 0.253473 0.172660
C22   C     C_R   0.999188 0.241685 0.318940 0.421411
C23   C     C_R   0.859377 0.312677 0.318327 -0.279757
C24   C     C_R   0.742773 0.319485 0.246769 -0.132040
C25   C     C_3   0.528515 0.329556 0.238402 0.668610
C26   C     C_3   0.536999 0.257285 0.168496 0.570478
C27   C     C_R   0.500302 0.683480 0.746047 0.122925
C28   C     C_R   0.360358 0.686542 0.682062 -0.258955
C29   C     C_R   0.222224 0.755609 0.687270 -0.200813
H5    H     H_    0.111185 0.760293 0.639773 0.144047
C30   C     C_R   0.232818 0.823363 0.749659 0.328203
C31   C     C_R   0.377751 0.820264 0.812635 -0.192374
C32   C     C_R   0.507300 0.748965 0.808722 0.006890
C33   C     C_3   0.720706 0.752249 0.811204 -0.434656
C34   C     C_3   0.716755 0.677695 0.744889 0.368104
H6    H     H_    0.776631 0.730884 0.873407 0.192883
H7    H     H_    0.779729 0.817750 0.787406 0.173738
H8    H     H_    0.781974 0.695453 0.683152 0.050369
C35   C     C_R   0.474836 0.673677 0.247196 0.056140
C36   C     C_R   0.352600 0.683769 0.316069 -0.167978
C37   C     C_R   0.226484 0.758124 0.314915 -0.177470
H9    H     H_    0.125078 0.766872 0.365838 0.137830
C38   C     C_R   0.241123 0.826623 0.252967 0.406461
C39   C     C_R   0.375850 0.817753 0.185723 -0.198576
C40   C     C_R   0.484195 0.737884 0.183453 -0.031148
C41   C     C_3   0.695224 0.721516 0.170895 0.221511
C42   C     C_3   0.683329 0.651006 0.241151 -0.437578
H10   H     H_    0.728804 0.692300 0.108394 0.117166
H11   H     H_    0.765482 0.669566 0.298645 0.176603
H12   H     H_    0.705543 0.580497 0.218582 0.180857
O11   O     O_R   0.229140 0.916090 0.913340 -0.541161
O12   O     O_R   0.558860 0.905090 0.086080 -0.519646
O13   O     O_R   0.729100 0.083920 0.086690 -0.517473
C43   C     C_R   0.389614 0.884710 0.116194 0.714481
O14   O     O_R   0.558860 0.905090 0.913930 -0.543960
O15   O     O_R   0.729100 0.083920 0.913310 -0.538524
C44   C     C_R   0.389841 0.886239 0.882818 0.689206
O16   O     O_R   0.229140 0.916080 0.086720 -0.528939
O17   O     O_3   0.395570 0.058660 0.000020 -0.356204
V3    V     V_3+5 0.670450 0.989140 0.000000 1.510783
O18   O     O_R   0.058810 0.094980 0.913910 -0.548819
C45   C     C_R   0.890574 0.116177 0.884891 0.673739
O19   O     O_R   0.058810 0.094980 0.086060 -0.537222
C46   C     C_R   0.890298 0.116912 0.114721 0.762715
V4    V     V_3+5 0.170450 0.010950 0.999970 1.492590
O20   O     O_3   0.895460 0.941370 0.999990 -0.364239
O21   O     O_3   0.845249 0.060487 0.481846 -0.640824
H13   H     H_    0.858096 0.993459 0.481239 0.294404
O22   O     O_3   0.117687 0.223541 0.386351 -0.613922
H14   H     H_    0.086660 0.263184 0.434070 0.327446
O23   O     O_3   0.484854 0.418150 0.209704 -0.545072
C47   C     C_3   0.284872 0.433900 0.212851 -0.139334
H15   H     H_    0.198550 0.375756 0.188041 0.115924
H16   H     H_    0.252968 0.494339 0.173966 0.122643
H17   H     H_    0.240241 0.449315 0.278094 0.163068
O24   O     O_3   0.426639 0.303699 0.311404 -0.631823
H18   H     H_    0.488278 0.249606 0.336490 0.283192
O25   O     O_3   0.489633 0.289798 0.088601 -0.596532
H19   H     H_    0.347455 0.285249 0.083604 0.294976
O26   O     O_3   0.442013 0.174382 0.186857 -0.656399
H20   H     H_    0.510077 0.143632 0.233439 0.257466
O27   O     O_3   0.108573 0.894722 0.742578 -0.668091
H21   H     H_    0.172505 0.949496 0.766081 0.282121
O28   O     O_3   0.774288 0.594039 0.778723 -0.526040
C48   C     C_3   0.976089 0.589138 0.784641 -0.221575
H22   H     H_    0.043380 0.651954 0.810520 0.141778
H23   H     H_    0.036462 0.571744 0.722944 0.152002
H24   H     H_    0.013040 0.533041 0.827962 0.142583
O29   O     O_3   0.556293 0.449014 0.729702 -0.622628
H25   H     H_    0.455193 0.486825 0.755394 0.320074
O30   O     O_3   0.129975 0.902858 0.264173 -0.634527
H26   H     H_    0.189206 0.954565 0.233726 0.282246
O31   O     O_3   0.812123 0.797163 0.190780 -0.606761
H27   H     H_    0.769978 0.821902 0.245671 0.319588
O32   O     O_3   0.534121 0.509326 0.895851 -0.642787
H28   H     H_    0.532062 0.518998 0.957248 0.326465
O33   O     O_3   0.741569 0.416063 0.021264 -0.521951
C49   C     C_3   0.924608 0.449248 0.045073 -0.213048
H29   H     H_    0.914407 0.476287 0.109802 0.155565
H30   H     H_    0.973022 0.506048 0.003743 0.126167
H31   H     H_    0.033036 0.394186 0.045501 0.127550
O34   O     O_3   0.784286 0.243689 0.516946 -0.669252
H32   H     H_    0.737517 0.209141 0.467596 0.315764

loop_
_geom_bond_atom_site_label_1
_geom_bond_atom_site_label_2
_ccdc_geom_bond_type
C35   C36   A    
C42   H11   S    
C48   H22   S    
C25   C26   S    
C7    C8    A    
C19   C26   S    
C12   C15   A    
C1    O6    A    
C49   H29   S    
O18   C45   A    
C17   C18   A    
C30   O27   S    
C19   C24   A    
C16   C17   A    
V4    O20   S    
C17   O21   S    
O5    C3    A    
O14   V3    S    
C37   C38   A    
C7    O33   S    
V2    O10   S    
C20   C46   S    
C13   C18   A    
C36   C37   A    
O13   V3    S    
C19   C20   A    
C32   C33   S    
O34   H32   S    
O24   H18   S    
C41   H10   S    
O8    V2    S    
C30   C31   A    
C35   C42   S    
C43   O16   A    
C33   H6    S    
C11   C12   A    
O11   C44   A    
O18   V4    S    
O7    V1    S    
O15   V3    S    
C42   H12   S    
C38   C39   A    
C48   H23   S    
C26   O25   S    
O9    C4    A    
O25   H19   S    
C2    C36   S    
C33   C34   S    
C29   C30   A    
C25   O23   S    
C33   H7    S    
C22   O22   S    
C12   C13   A    
V3    O20   S    
C23   C24   A    
O4    C2    A    
C6    C7    A    
C1    C28   S    
C13   C14   A    
O22   H14   S    
C38   O30   S    
C39   C40   A    
C20   C21   A    
O2    C1    A    
O17   V3    S    
C41   C42   S    
C5    O29   S    
O21   H13   S    
C47   H17   S    
C39   C43   S    
O30   H26   S    
O26   H20   S    
C8    C9    A    
C5    C6    A    
C4    C14   S    
O3    C4    A    
O1    V2    S    
C24   C25   S    
C47   H16   S    
C16   H3    S    
O11   V4    S    
O6    V2    S    
C9    C11   A    
C27   C28   A    
C26   O26   S    
O16   V4    S    
C6    O32   S    
O2    V1    S    
C28   C29   A    
O14   C44   A    
O33   C49   S    
C34   O28   S    
C21   H4    S    
O32   H28   S    
C15   H2    S    
O1    C2    A    
C31   C44   S    
C27   C32   A    
O5    V1    S    
C49   H30   S    
O8    C3    A    
O17   V4    S    
O12   V3    S    
C18   O34   S    
O29   H25   S    
O19   V4    S    
C5    C10   A    
C34   H8    S    
C3    C23   S    
O9    V2    S    
O7    V2    S    
O4    V1    S    
O3    V1    S    
V1    O10   S    
O31   H27   S    
C27   C34   S    
C37   H9    S    
C22   C23   A    
C41   O31   S    
C31   C32   A    
C35   C40   A    
C21   C22   A    
O28   C48   S    
C11   C45   S    
C40   C41   S    
C49   H31   S    
O19   C46   A    
C29   H5    S    
C25   O24   S    
C47   H15   S    
O23   C47   S    
O12   C43   A    
O27   H21   S    
C10   C14   A    
O15   C45   A    
C15   C16   A    
O13   C46   A    
C48   H24   S    
C9    C10   A    
C8    H1    S    
