data_mof_unit_55365.cif
_audit_creation_date              2012-10-26T19:13:52-0400
_audit_creation_method            fapswitch 2.2
_symmetry_space_group_name_H-M    P1
_symmetry_Int_Tables_number       1
_space_group_crystal_system       triclinic
_cell_length_a                    15.199126
_cell_length_b                    13.869843
_cell_length_c                    10.629694
_cell_angle_alpha                 90.049624
_cell_angle_beta                  90.134762
_cell_angle_gamma                 89.898995
_cell_volume                      2240.82987278

loop_
_atom_site_label
_atom_site_type_symbol
_atom_type_description
_atom_site_fract_x
_atom_site_fract_y
_atom_site_fract_z
_atom_type_partial_charge
C1    C     C_R   0.329614 0.499889 0.500047 0.588956
C2    C     C_R   0.556387 0.790343 0.576527 0.055919
C3    C     C_R   0.500158 0.054573 0.500005 0.035983
C4    C     C_R   0.500195 0.945176 0.500017 0.029603
C5    C     C_R   0.500328 0.499892 0.259167 0.587314
C6    C     C_R   0.500358 0.500110 0.740871 0.589005
C7    C     C_3   0.429769 0.547620 0.041801 -0.133560
C8    C     C_3   0.572261 0.452431 0.958248 -0.107042
C9    C     C_3   0.503021 0.591661 0.959389 -0.107581
C10   C     C_3   0.499005 0.408377 0.040754 -0.129739
C11   C     C_3   0.427721 0.456535 0.958024 -0.135077
C12   C     C_R   0.669931 0.499876 0.500416 0.605452
C13   C     C_3   0.574295 0.543514 0.042284 -0.091841
C14   C     C_3   0.500898 0.500469 0.877726 0.053097
C15   C     C_3   0.500965 0.499555 0.122387 0.046206
C16   C     C_R   0.092109 0.577089 0.450132 0.244470
C17   C     C_R   0.905281 0.429438 0.431258 0.239705
C18   C     C_R   0.905260 0.567199 0.575333 0.246628
C19   C     C_R   0.093533 0.419935 0.553835 0.238262
C20   C     C_R   0.184267 0.576680 0.445875 0.023654
C21   C     C_R   0.813018 0.430595 0.428366 0.008121
C22   C     C_R   0.813031 0.566983 0.576615 0.017046
C23   C     C_R   0.529676 0.107897 0.604977 -0.123831
C24   C     C_R   0.185827 0.420292 0.554556 0.009264
C25   C     C_R   0.232185 0.499111 0.500501 -0.126162
C26   C     C_R   0.766556 0.499339 0.501573 -0.123735
C27   C     C_R   0.047248 0.498567 0.503029 0.024314
C28   C     C_R   0.950861 0.498182 0.503572 0.023426
C29   C     C_3   0.021719 0.643547 0.280611 -0.082870
C30   C     C_3   0.972616 0.390218 0.246086 -0.086487
C31   C     C_3   0.973025 0.605379 0.760907 -0.084673
C32   C     C_3   0.027414 0.352052 0.725016 -0.085603
C33   C     C_2   0.227741 0.655145 0.374914 0.607723
C34   C     C_R   0.442291 0.891985 0.422671 -0.128786
C35   C     C_2   0.766755 0.362583 0.342657 0.615830
C36   C     C_2   0.767240 0.634901 0.662809 0.598274
C37   C     C_2   0.231557 0.338574 0.617115 0.626870
C38   C     C_R   0.470546 0.107852 0.395032 -0.118149
C39   C     C_R   0.558211 0.891739 0.577142 -0.129039
C40   C     C_R   0.529923 0.209275 0.602515 0.060258
C41   C     C_R   0.444115 0.790645 0.423044 0.056666
C42   C     C_R   0.470127 0.209228 0.397501 0.068635
Cu1   Cu    Cu3+1 0.500000 0.596430 0.500000 1.016844
Cu2   Cu    Cu3+1 0.500000 0.403570 0.500000 1.006466
H1    H     H_    0.367406 0.421120 0.921933 0.158210
H2    H     H_    0.605854 0.927288 0.636827 0.103602
H3    H     H_    0.554037 0.248098 0.683709 0.123383
H4    H     H_    0.400580 0.751395 0.361397 0.163420
H5    H     H_    0.445976 0.248018 0.316314 0.120852
H6    H     H_    0.600653 0.750783 0.637167 0.155393
H7    H     H_    0.076046 0.613333 0.222338 0.096073
H8    H     H_    0.004161 0.714702 0.240097 0.168304
H9    H     H_    0.962377 0.597382 0.273964 0.093365
H10   H     H_    0.031431 0.437363 0.249801 0.092485
H11   H     H_    0.916959 0.427709 0.198180 0.093703
H12   H     H_    0.634260 0.578952 0.080004 0.144047
H13   H     H_    0.990019 0.326720 0.187683 0.163010
H14   H     H_    0.032287 0.558708 0.756911 0.093341
H15   H     H_    0.917766 0.567172 0.808143 0.092592
H16   H     H_    0.989889 0.668617 0.820105 0.163070
H17   H     H_    0.968213 0.398307 0.734785 0.092523
H18   H     H_    0.083124 0.381618 0.781368 0.095902
H19   H     H_    0.010886 0.280591 0.765191 0.168197
H20   H     H_    0.240036 0.798219 0.345822 0.320623
H21   H     H_    0.675778 0.344158 0.206141 0.329707
H22   H     H_    0.757070 0.770561 0.729955 0.319578
H23   H     H_    0.371413 0.586638 0.078413 0.168376
H24   H     H_    0.319314 0.295223 0.747996 0.329399
H25   H     H_    0.630550 0.413565 0.920911 0.128321
H26   H     H_    0.504726 0.666784 0.923497 0.135371
H27   H     H_    0.497411 0.333245 0.076627 0.116439
H28   H     H_    0.551640 0.072227 0.689832 0.092074
H29   H     H_    0.394815 0.927673 0.362758 0.100301
H30   H     H_    0.448668 0.072166 0.310130 0.092061
N1    N     N_R   0.500000 0.258690 0.500000 -0.221190
N2    N     N_R   0.500000 0.741310 0.500000 -0.234255
O1    O     O_R   0.371460 0.581430 0.500010 -0.481865
O2    O     O_3   0.950840 0.357694 0.367747 -0.475124
O3    O     O_3   0.950838 0.638551 0.639517 -0.468400
O4    O     O_3   0.048589 0.339552 0.596937 -0.477600
O5    O     O_2   0.277603 0.635424 0.288515 -0.578576
O6    O     O_R   0.208504 0.751352 0.403211 -0.630876
O7    O     O_2   0.786083 0.276953 0.342846 -0.454060
O8    O     O_R   0.702397 0.397092 0.259851 -0.717683
O9    O     O_2   0.709838 0.605405 0.733389 -0.562769
O10   O     O_R   0.791818 0.731975 0.665983 -0.635433
O11   O     O_2   0.214883 0.255644 0.586124 -0.453300
O12   O     O_R   0.628540 0.418570 0.499990 -0.476902
O13   O     O_R   0.292243 0.356552 0.713232 -0.720560
O14   O     O_R   0.628540 0.581430 0.499990 -0.483680
O15   O     O_R   0.371460 0.418570 0.500010 -0.473063
O16   O     O_R   0.499980 0.581420 0.316850 -0.499505
O17   O     O_R   0.500020 0.418580 0.683150 -0.514620
O18   O     O_R   0.500020 0.581420 0.683150 -0.497852
O19   O     O_R   0.499980 0.418580 0.316850 -0.514821
O20   O     O_3   0.045975 0.657123 0.407548 -0.471408

loop_
_geom_bond_atom_site_label_1
_geom_bond_atom_site_label_2
_ccdc_geom_bond_type
C40   H3    S    
C21   C26   A    
C8    C13   S    
C1    O1    A    
C3    C23   A    
Cu1   Cu2   S    
C7    C11   S    
C30   H10   S    
C8    H25   S    
C31   H14   S    
C12   O14   A    
C32   H17   S    
C38   C42   A    
C10   C15   S    
C38   H30   S    
C11   C14   S    
C6    C14   S    
C20   C25   A    
C23   C40   A    
C30   H13   S    
Cu1   O18   S    
C31   H15   S    
C9    C13   S    
Cu2   O17   S    
C2    H6    S    
C2    C39   A    
C3    C38   A    
C18   O3    S    
C6    O18   A    
C19   C27   A    
C33   O6    S    
C13   H12   S    
C10   H27   S    
C16   C27   A    
C7    C15   S    
C1    O15   A    
C1    C25   S    
C34   C41   A    
C5    O19   A    
C24   C37   S    
C4    C34   A    
C16   O20   S    
Cu1   O14   S    
C12   O12   A    
C18   C28   A    
C9    H26   S    
C35   O7    D    
H21   O8    S    
C42   H5    S    
C36   O10   S    
C17   C21   A    
C12   C26   S    
C31   H16   S    
Cu2   N1    S    
C9    C14   S    
C32   O4    S    
C4    C39   A    
C16   C20   A    
C6    O17   A    
H24   O13   S    
C42   N1    A    
C24   C25   A    
H20   O6    S    
Cu2   O15   S    
C39   H2    S    
C20   C33   S    
C13   C15   S    
C11   H1    S    
C3    C4    S    
C2    N2    A    
C29   H7    S    
Cu1   N2    S    
C7    C9    S    
C8    C14   S    
C18   C22   A    
C17   C28   A    
C23   H28   S    
C37   O11   D    
C32   H19   S    
H22   O10   S    
C29   O20   S    
C35   O8    S    
C31   O3    S    
C21   C35   S    
C36   O9    D    
Cu1   O1    S    
C22   C36   S    
C30   H11   S    
Cu1   O16   S    
C40   N1    A    
C37   O13   S    
C19   C24   A    
C32   H18   S    
Cu2   O19   S    
C41   N2    A    
C29   H9    S    
C17   O2    S    
C41   H4    S    
C19   O4    S    
C5    C15   S    
C5    O16   A    
C10   C11   S    
C34   H29   S    
C7    H23   S    
C30   O2    S    
C8    C10   S    
C22   C26   A    
C27   C28   S    
Cu2   O12   S    
C33   O5    D    
C29   H8    S    
