data_mof_unit_48111.cif
_audit_creation_date              2012-12-11T15:22:22-0500
_audit_creation_method            fapswitch 2.2
_symmetry_space_group_name_H-M    P1
_symmetry_Int_Tables_number       1
_space_group_crystal_system       triclinic
_cell_length_a                    22.436002
_cell_length_b                    12.977235
_cell_length_c                    27.049404
_cell_angle_alpha                 89.776103
_cell_angle_beta                  90.541065
_cell_angle_gamma                 90.055044
_cell_volume                      7875.21598433

loop_
_atom_site_label
_atom_site_type_symbol
_atom_type_description
_atom_site_fract_x
_atom_site_fract_y
_atom_site_fract_z
_atom_type_partial_charge
C1    C     C_R   0.721061 0.345861 0.178145 0.585127
C2    C     C_R   0.279211 0.344812 0.821949 0.584260
C3    C     C_R   0.221062 0.845861 0.178145 0.585154
C4    C     C_R   0.779211 0.844812 0.821949 0.584276
C5    C     C_R   0.470701 0.163104 0.873943 0.005089
C6    C     C_R   0.519004 0.165730 0.130632 -0.001533
C7    C     C_R   0.970696 0.663104 0.873945 0.005068
C8    C     C_R   0.019002 0.665728 0.130633 -0.001534
C9    C     C_R   0.515435 0.259727 0.104939 0.347669
C10   C     C_R   0.473323 0.257692 0.898807 0.370784
C11   C     C_R   0.015427 0.759726 0.104941 0.347673
C12   C     C_R   0.973312 0.757692 0.898810 0.370764
C13   C     C_R   0.497701 0.262197 0.054731 -0.010690
C14   C     C_R   0.480002 0.261062 0.950830 -0.001088
C15   C     C_R   0.997689 0.762195 0.054733 -0.010691
C16   C     C_R   0.979988 0.761061 0.950833 -0.001112
C17   C     C_R   0.488924 0.167408 0.029667 -0.131262
C18   C     C_R   0.482651 0.166597 0.977654 -0.128430
C19   C     C_R   0.988916 0.667405 0.029669 -0.131275
C20   C     C_R   0.982642 0.666595 0.977657 -0.128452
C21   C     C_R   0.491044 0.356106 0.028437 0.286467
C22   C     C_R   0.481566 0.355618 0.977012 0.300988
C23   C     C_R   0.991023 0.856103 0.028441 0.286489
C24   C     C_R   0.981542 0.855615 0.977016 0.300995
C25   C     C_R   0.738989 0.957919 0.129586 -0.030485
C26   C     C_R   0.262661 0.961696 0.870859 0.013025
C27   C     C_R   0.238990 0.457908 0.129589 -0.030474
C28   C     C_R   0.762664 0.461691 0.870857 0.013073
C29   C     C_R   0.794409 0.969638 0.106427 -0.119529
C30   C     C_R   0.312510 0.972209 0.902159 -0.134461
C31   C     C_R   0.294413 0.469614 0.106432 -0.119491
C32   C     C_R   0.812505 0.472244 0.902162 -0.134424
C33   C     C_R   0.799676 0.954512 0.055808 -0.132887
C34   C     C_R   0.307669 0.955577 0.952417 -0.075726
C35   C     C_R   0.299681 0.454483 0.055813 -0.132861
C36   C     C_R   0.807666 0.455585 0.952418 -0.075691
C37   C     C_R   0.749152 0.931902 0.027191 0.016056
C38   C     C_R   0.253312 0.925646 0.972497 0.042399
C39   C     C_R   0.249157 0.431879 0.027194 0.016065
C40   C     C_R   0.753317 0.425588 0.972491 0.042416
C41   C     C_R   0.693273 0.920282 0.049804 0.324786
C42   C     C_R   0.203335 0.909257 0.941412 0.297904
C43   C     C_R   0.193277 0.420269 0.049806 0.324780
C44   C     C_R   0.703349 0.409160 0.941400 0.297866
C45   C     C_R   0.552536 0.157697 0.177991 0.592674
C46   C     C_R   0.445907 0.157167 0.822994 0.586558
C47   C     C_R   0.052535 0.657696 0.177991 0.592687
C48   C     C_R   0.945906 0.657167 0.822995 0.586548
C49   C     C_R   0.689071 0.924733 0.101193 0.237177
C50   C     C_R   0.207826 0.928498 0.890333 0.298066
C51   C     C_R   0.189072 0.424725 0.101195 0.237179
C52   C     C_R   0.707838 0.428430 0.890324 0.298068
C53   C     C_R   0.732916 0.822326 0.954155 0.446906
C54   C     C_R   0.287641 0.843369 0.050538 0.414750
C55   C     C_R   0.232916 0.322315 0.954155 0.446895
C56   C     C_R   0.787665 0.343382 0.050546 0.414717
C57   C     C_R   0.731758 0.807751 0.903485 0.212647
C58   C     C_R   0.283885 0.829474 0.101543 0.219265
C59   C     C_R   0.231755 0.307749 0.903484 0.212649
C60   C     C_R   0.783906 0.329510 0.101552 0.219242
C61   C     C_R   0.784962 0.970171 0.892491 0.220231
C62   C     C_R   0.207292 0.962937 0.104397 0.208929
C63   C     C_R   0.284970 0.470160 0.892495 0.220217
C64   C     C_R   0.707257 0.462880 0.104379 0.208931
C65   C     C_R   0.780625 0.988028 0.943215 -0.116076
C66   C     C_R   0.212343 0.976234 0.053496 -0.080483
C67   C     C_R   0.280634 0.488010 0.943220 -0.116089
C68   C     C_R   0.712310 0.476152 0.053478 -0.080477
C69   C     C_R   0.755332 0.913616 0.974106 -0.040543
C70   C     C_R   0.250114 0.913320 0.026263 -0.042008
C71   C     C_R   0.255338 0.413597 0.974109 -0.040552
C72   C     C_R   0.750112 0.413271 0.026257 -0.041999
C73   C     C_R   0.761882 0.877893 0.871992 -0.033146
C74   C     C_R   0.240030 0.883810 0.128830 -0.046172
C75   C     C_R   0.261883 0.377890 0.871993 -0.033150
C76   C     C_R   0.740024 0.383807 0.128828 -0.046204
C77   C     C_R   0.527287 0.168447 0.370945 0.022385
C78   C     C_R   0.473227 0.169287 0.629280 0.023834
C79   C     C_R   0.027309 0.668455 0.370953 0.022372
C80   C     C_R   0.973237 0.669274 0.629284 0.023712
C81   C     C_R   0.535394 0.260434 0.397478 -0.162821
C82   C     C_R   0.464498 0.260731 0.602158 -0.160996
C83   C     C_R   0.035479 0.760410 0.397500 -0.162790
C84   C     C_R   0.964547 0.760737 0.602167 -0.161049
C85   C     C_R   0.524028 0.263952 0.447939 -0.079069
C86   C     C_R   0.476195 0.264008 0.551728 -0.078408
C87   C     C_R   0.024124 0.763918 0.447962 -0.079228
C88   C     C_R   0.976254 0.764015 0.551739 -0.078532
C89   C     C_R   0.731123 0.001652 0.179314 0.558148
C90   C     C_R   0.268681 0.001299 0.820396 0.582881
C91   C     C_R   0.231123 0.501650 0.179315 0.558173
C92   C     C_R   0.768681 0.501298 0.820396 0.582914
C93   C     C_R   0.503873 0.175853 0.472950 -0.017075
C94   C     C_R   0.497226 0.176183 0.527361 -0.017204
C95   C     C_R   0.003906 0.675847 0.472959 -0.017142
C96   C     C_R   0.997251 0.676170 0.527368 -0.017476
C97   C     C_R   0.490990 0.086449 0.445661 -0.079134
C98   C     C_R   0.510821 0.087561 0.555285 -0.078060
C99   C     C_R   0.990969 0.586479 0.445660 -0.079026
C100  C     C_R   0.010806 0.587523 0.555286 -0.078210
C101  C     C_R   0.502722 0.082372 0.395153 0.383905
C102  C     C_R   0.498818 0.083746 0.605759 0.386386
C103  C     C_R   0.002699 0.582409 0.395150 0.383967
C104  C     C_R   0.998798 0.583710 0.605758 0.386275
C105  C     C_R   0.739901 0.956601 0.371735 -0.023824
C106  C     C_R   0.259812 0.956910 0.628327 -0.022347
C107  C     C_R   0.239887 0.456660 0.371750 -0.023910
C108  C     C_R   0.759937 0.457162 0.628263 -0.022275
C109  C     C_R   0.689255 0.933518 0.399677 -0.135916
C110  C     C_R   0.310269 0.932046 0.600601 -0.136654
C111  C     C_R   0.189234 0.433588 0.399686 -0.135881
C112  C     C_R   0.810473 0.433120 0.600467 -0.136474
C113  C     C_R   0.694730 0.915355 0.449831 -0.095185
C114  C     C_R   0.304719 0.913135 0.550539 -0.096456
C115  C     C_R   0.194694 0.415484 0.449845 -0.094981
C116  C     C_R   0.804955 0.414337 0.550397 -0.096117
C117  C     C_R   0.750954 0.916966 0.472567 0.074970
C118  C     C_R   0.248584 0.915968 0.527646 0.074011
C119  C     C_R   0.250909 0.417142 0.472594 0.075257
C120  C     C_R   0.748782 0.416430 0.527558 0.074180
C121  C     C_R   0.802511 0.932050 0.444026 0.257625
C122  C     C_R   0.197138 0.932941 0.556018 0.257626
C123  C     C_R   0.302474 0.432232 0.444063 0.257846
C124  C     C_R   0.697292 0.432636 0.555987 0.257684
C125  C     C_R   0.796607 0.952903 0.393709 -0.069698
C126  C     C_R   0.203135 0.954389 0.606223 -0.065642
C127  C     C_R   0.296585 0.453023 0.393741 -0.069743
C128  C     C_R   0.703251 0.454033 0.606203 -0.065601
C129  C     C_R   0.726182 0.820016 0.548344 0.377012
C130  C     C_R   0.272468 0.817805 0.452252 0.377955
C131  C     C_R   0.226144 0.320137 0.548356 0.376997
C132  C     C_R   0.773078 0.318718 0.452118 0.377991
C133  C     C_R   0.720849 0.346058 0.322102 0.545766
C134  C     C_R   0.279119 0.346401 0.677950 0.548522
C135  C     C_R   0.220834 0.846008 0.322119 0.545693
C136  C     C_R   0.779123 0.846390 0.677945 0.548522
C137  C     C_R   0.729507 0.807551 0.599058 -0.068224
C138  C     C_R   0.269217 0.805308 0.401534 -0.068218
C139  C     C_R   0.229487 0.307619 0.599065 -0.068143
C140  C     C_R   0.769777 0.306173 0.401403 -0.068023
C141  C     C_R   0.787637 0.964955 0.606145 -0.131594
C142  C     C_R   0.212927 0.964421 0.393637 -0.133551
C143  C     C_R   0.287587 0.465050 0.606179 -0.131710
C144  C     C_R   0.712668 0.464427 0.393604 -0.133622
C145  C     C_R   0.782630 0.979357 0.555302 -0.113751
C146  C     C_R   0.217804 0.978729 0.444462 -0.115218
C147  C     C_R   0.282563 0.479504 0.555341 -0.113512
C148  C     C_R   0.717579 0.478798 0.444419 -0.115126
C149  C     C_R   0.753955 0.904781 0.526120 0.052685
C150  C     C_R   0.245571 0.903465 0.474079 0.053380
C151  C     C_R   0.253897 0.404939 0.526146 0.052664
C152  C     C_R   0.745769 0.403939 0.473991 0.053350
C153  C     C_R   0.762235 0.877594 0.628038 -0.030487
C154  C     C_R   0.237552 0.876396 0.372126 -0.030527
C155  C     C_R   0.262212 0.377647 0.628055 -0.030482
C156  C     C_R   0.737652 0.376744 0.372052 -0.030653
C157  C     C_R   0.554291 0.158711 0.321690 0.558568
C158  C     C_R   0.445854 0.159025 0.678390 0.567761
C159  C     C_R   0.054295 0.658712 0.321692 0.558555
C160  C     C_R   0.945855 0.659023 0.678391 0.567642
C161  C     C_R   0.731579 0.002169 0.322983 0.535941
C162  C     C_R   0.268408 0.002491 0.676978 0.544088
C163  C     C_R   0.231576 0.502178 0.322986 0.535810
C164  C     C_R   0.768424 0.502525 0.676967 0.544042
C165  C     C_R   0.497975 0.075673 0.108017 0.372009
C166  C     C_R   0.479827 0.071401 0.900461 0.347331
C167  C     C_R   0.997975 0.575670 0.108018 0.372013
C168  C     C_R   0.979822 0.571402 0.900463 0.347328
C169  C     C_R   0.487202 0.073324 0.056686 -0.021077
C170  C     C_R   0.480172 0.071022 0.952395 -0.030323
C171  C     C_R   0.987201 0.573320 0.056688 -0.021088
C172  C     C_R   0.980166 0.571021 0.952397 -0.030339
C173  C     C_R   0.475772 0.977851 0.979616 0.280611
C174  C     C_R   0.477280 0.979377 0.031411 0.305351
C175  C     C_R   0.975771 0.477849 0.979617 0.280626
C176  C     C_R   0.977284 0.479371 0.031412 0.305376
Cr1   Cr    Cr6+3 0.756570 0.170940 0.251190 1.118230
Cr2   Cr    Cr6+3 0.243430 0.170940 0.748810 1.139267
Cr3   Cr    Cr6+3 0.256570 0.670940 0.251190 1.118229
Cr4   Cr    Cr6+3 0.743430 0.670940 0.748810 1.139263
Cr5   Cr    Cr6+3 0.623740 0.299110 0.249580 1.141326
Cr6   Cr    Cr6+3 0.376260 0.299110 0.750420 1.149095
Cr7   Cr    Cr6+3 0.123740 0.799110 0.249580 1.141402
Cr8   Cr    Cr6+3 0.876260 0.799110 0.750420 1.149116
Cr9   Cr    Cr6+3 0.625990 0.036240 0.250480 1.169620
Cr10  Cr    Cr6+3 0.374010 0.036240 0.749520 1.143020
Cr11  Cr    Cr6+3 0.125990 0.536240 0.250480 1.169613
Cr12  Cr    Cr6+3 0.874010 0.536240 0.749520 1.143129
H1    H     H_    0.554296 0.328118 0.380052 0.167014
H2    H     H_    0.444821 0.327969 0.619078 0.167319
H3    H     H_    0.054425 0.828068 0.380083 0.167131
H4    H     H_    0.944895 0.827993 0.619092 0.167382
H5    H     H_    0.529554 0.020122 0.537849 0.143869
H6    H     H_    0.472970 0.018669 0.463614 0.143846
H7    H     H_    0.029511 0.520066 0.537846 0.144010
H8    H     H_    0.972908 0.518723 0.463605 0.143951
H9    H     H_    0.533802 0.334371 0.467633 0.205311
H10   H     H_    0.465947 0.333897 0.531543 0.206048
H11   H     H_    0.033953 0.834299 0.467669 0.205297
H12   H     H_    0.966040 0.833923 0.531557 0.206181
H13   H     H_    0.644845 0.936929 0.383667 0.176855
H14   H     H_    0.354659 0.934421 0.616682 0.175727
H15   H     H_    0.144830 0.436957 0.383663 0.176844
H16   H     H_    0.854874 0.436040 0.616507 0.175690
H17   H     H_    0.710254 0.738540 0.614992 0.172513
H18   H     H_    0.287739 0.735710 0.385903 0.171973
H19   H     H_    0.210253 0.238579 0.614986 0.172508
H20   H     H_    0.788622 0.236869 0.385742 0.172300
H21   H     H_    0.654699 0.904061 0.471318 0.173553
H22   H     H_    0.344675 0.900355 0.529211 0.173616
H23   H     H_    0.154657 0.404185 0.471324 0.173587
H24   H     H_    0.844947 0.402202 0.529029 0.173534
H25   H     H_    0.802509 0.046927 0.538535 0.217362
H26   H     H_    0.198593 0.046930 0.460872 0.215119
H27   H     H_    0.302428 0.547097 0.538587 0.217930
H28   H     H_    0.698051 0.546694 0.460860 0.215099
H29   H     H_    0.813106 0.019525 0.627992 0.168687
H30   H     H_    0.188224 0.019764 0.371480 0.166220
H31   H     H_    0.313051 0.519612 0.628035 0.168594
H32   H     H_    0.687622 0.519397 0.371495 0.166322
H33   H     H_    0.835969 0.969705 0.372202 0.174863
H34   H     H_    0.163875 0.972471 0.627528 0.179872
H35   H     H_    0.335952 0.469826 0.372240 0.174825
H36   H     H_    0.663942 0.471530 0.627560 0.179710
H37   H     H_    0.833475 0.993503 0.127266 0.215928
H38   H     H_    0.354782 0.999484 0.888174 0.167109
H39   H     H_    0.333479 0.493476 0.127271 0.215927
H40   H     H_    0.854770 0.499569 0.888182 0.167019
H41   H     H_    0.842949 0.962606 0.038746 0.186754
H42   H     H_    0.346091 0.969034 0.976068 0.162286
H43   H     H_    0.342955 0.462570 0.038752 0.186731
H44   H     H_    0.846079 0.469079 0.976072 0.162262
H45   H     H_    0.797228 0.059612 0.958615 0.220133
H46   H     H_    0.186121 0.035100 0.034886 0.252188
H47   H     H_    0.297242 0.559588 0.958622 0.220164
H48   H     H_    0.686066 0.534974 0.034857 0.252167
O1    O     O_R   0.769900 0.064540 0.196060 -0.477342
O2    O     O_R   0.230100 0.064540 0.803940 -0.417312
O3    O     O_R   0.269900 0.564540 0.196060 -0.477296
O4    O     O_R   0.730100 0.564540 0.803940 -0.417316
O5    O     O_R   0.574760 0.239320 0.300850 -0.524808
O6    O     O_R   0.425240 0.239320 0.699150 -0.517552
O7    O     O_R   0.074760 0.739320 0.300850 -0.524809
O8    O     O_R   0.925240 0.739320 0.699150 -0.517537
O9    O     O_R   0.566290 0.069580 0.305400 -0.439171
O10   O     O_R   0.433710 0.069580 0.694600 -0.437694
O11   O     O_R   0.066290 0.569580 0.305400 -0.439207
O12   O     O_R   0.933710 0.569580 0.694600 -0.437738
O13   O     O_R   0.680760 0.993330 0.302620 -0.501833
O14   O     O_R   0.319240 0.993330 0.697380 -0.500709
O15   O     O_R   0.180760 0.493330 0.302620 -0.501826
O16   O     O_R   0.819240 0.493330 0.697380 -0.500663
O17   O     O_3   0.668770 0.168760 0.250420 -0.310961
O18   O     O_3   0.331230 0.168760 0.749580 -0.318111
O19   O     O_3   0.168770 0.668760 0.250420 -0.311025
O20   O     O_3   0.831230 0.668760 0.749580 -0.318164
O21   O     O_R   0.750800 0.274080 0.199250 -0.457640
O22   O     O_R   0.249200 0.274080 0.800750 -0.459863
O23   O     O_R   0.250800 0.774080 0.199250 -0.457623
O24   O     O_R   0.749200 0.774080 0.800750 -0.459863
O25   O     O_R   0.669990 0.371670 0.194150 -0.420573
O26   O     O_R   0.330010 0.371670 0.805850 -0.428470
O27   O     O_R   0.169990 0.871670 0.194150 -0.420554
O28   O     O_R   0.830010 0.871670 0.805850 -0.428453
O29   O     O_R   0.574600 0.238480 0.197800 -0.442196
O30   O     O_R   0.425400 0.238480 0.802200 -0.439114
O31   O     O_R   0.074600 0.738480 0.197800 -0.442190
O32   O     O_R   0.925400 0.738480 0.802200 -0.439114
O33   O     O_R   0.566130 0.068680 0.194240 -0.408048
O34   O     O_R   0.433870 0.068680 0.805760 -0.438391
O35   O     O_R   0.066130 0.568680 0.194240 -0.408034
O36   O     O_R   0.933870 0.568680 0.805760 -0.438368
O37   O     O_R   0.680610 0.992490 0.199570 -0.453975
O38   O     O_R   0.319390 0.992490 0.800430 -0.501792
O39   O     O_R   0.180610 0.492490 0.199570 -0.453964
O40   O     O_R   0.819390 0.492490 0.800430 -0.501757
O41   O     O_R   0.770060 0.065440 0.307230 -0.514092
O42   O     O_R   0.229940 0.065440 0.692770 -0.509095
O43   O     O_R   0.270060 0.565440 0.307230 -0.514204
O44   O     O_R   0.729940 0.565440 0.692770 -0.508977
O45   O     O_R   0.750960 0.274920 0.302300 -0.501388
O46   O     O_R   0.249040 0.274920 0.697700 -0.503467
O47   O     O_R   0.250960 0.774920 0.302300 -0.501321
O48   O     O_R   0.749040 0.774920 0.697700 -0.503481
O49   O     O_R   0.670160 0.372580 0.305320 -0.506489
O50   O     O_R   0.329840 0.372580 0.694680 -0.503377
O51   O     O_R   0.170160 0.872580 0.305320 -0.506364
O52   O     O_R   0.829840 0.872580 0.694680 -0.503345
F1    F     F_    0.487345 0.982599 0.874904 -0.519982
F2    F     F_    0.491881 0.989763 0.136277 -0.507962
F3    F     F_    0.987345 0.482600 0.874905 -0.519967
F4    F     F_    0.991880 0.489760 0.136278 -0.507945
Cl1   Cl    Cl    0.817946 0.067197 0.856035 -0.410606
Cl2   Cl    Cl    0.159376 0.048648 0.135232 -0.361831
Cl3   Cl    Cl    0.317958 0.567186 0.856043 -0.410647
Cl4   Cl    Cl    0.659301 0.548555 0.135194 -0.361687
Cl5   Cl    Cl    0.627117 0.908811 0.013797 -0.374184
Cl6   Cl    Cl    0.135797 0.862925 0.966117 -0.467935
Cl7   Cl    Cl    0.127121 0.408807 0.013798 -0.374206
Cl8   Cl    Cl    0.635825 0.362742 0.966095 -0.468092
Cl9   Cl    Cl    0.620609 0.886965 0.127904 -0.321804
Cl10  Cl    Cl    0.145233 0.910500 0.851205 -0.364148
Cl11  Cl    Cl    0.120608 0.386967 0.127904 -0.321777
Cl12  Cl    Cl    0.645255 0.410393 0.851189 -0.364208
F5    F     F_    0.509912 0.994988 0.630920 -0.589719
F6    F     F_    0.492341 0.992958 0.370636 -0.591732
F7    F     F_    0.009856 0.494930 0.630913 -0.589611
F8    F     F_    0.992265 0.493028 0.370620 -0.591633
F9    F     F_    0.698579 0.746495 0.520775 -0.631795
F10   F     F_    0.299186 0.743604 0.480211 -0.633633
F11   F     F_    0.198552 0.246625 0.520774 -0.631563
F12   F     F_    0.800239 0.244923 0.480033 -0.632860
Cl13  Cl    Cl    0.464140 0.856951 0.950364 -0.239459
Cl14  Cl    Cl    0.468629 0.860004 0.062932 -0.180224
Cl15  Cl    Cl    0.964136 0.356950 0.950364 -0.239403
Cl16  Cl    Cl    0.968650 0.359994 0.062932 -0.180103
Cl17  Cl    Cl    0.874827 0.925681 0.469639 -0.618076
Cl18  Cl    Cl    0.124820 0.928106 0.530314 -0.612538
Cl19  Cl    Cl    0.374783 0.425936 0.469695 -0.618462
Cl20  Cl    Cl    0.624965 0.426836 0.530350 -0.613479
F13   F     F_    0.468875 0.345382 0.871562 -0.511078
F14   F     F_    0.533771 0.346878 0.128138 -0.527443
F15   F     F_    0.968865 0.845382 0.871565 -0.511069
F16   F     F_    0.033763 0.846878 0.128138 -0.527446
Cl21  Cl    Cl    0.471939 0.476504 0.947009 -0.242752
Cl22  Cl    Cl    0.491133 0.476880 0.059091 -0.279685
Cl23  Cl    Cl    0.971896 0.976499 0.947016 -0.242770
Cl24  Cl    Cl    0.991102 0.976875 0.059098 -0.279694
F17   F     F_    0.711397 0.747047 0.984299 -0.551665
F18   F     F_    0.326671 0.785845 0.024190 -0.536465
F19   F     F_    0.211392 0.247035 0.984296 -0.551692
F20   F     F_    0.826727 0.285897 0.024210 -0.536439
Cl25  Cl    Cl    0.690375 0.700626 0.882873 -0.386136
Cl26  Cl    Cl    0.335043 0.741431 0.128197 -0.386044
Cl27  Cl    Cl    0.190361 0.200641 0.882867 -0.386077
Cl28  Cl    Cl    0.835097 0.241548 0.128226 -0.385928

loop_
_geom_bond_atom_site_label_1
_geom_bond_atom_site_label_2
_ccdc_geom_bond_type
C99   C103  A    
C7    C168  A    
C55   C59   A    
C142  C146  A    
C77   C101  A    
C19   C20   A    
C53   C69   A    
C128  H36   S    
C38   C70   S    
C108  C164  S    
C66   H46   S    
C16   C20   A    
Cr7   O19   S    
Cr10  O18   S    
C37   C69   S    
C26   C50   A    
C95   C99   A    
Cr6   O26   S    
C29   C33   A    
C100  C104  A    
Cr7   O31   S    
Cr12  O16   S    
C3    C74   S    
C9    C13   A    
Cr2   O22   S    
C146  C150  A    
C11   C15   A    
C12   C16   A    
C27   C51   A    
C56   C72   A    
C169  C174  A    
Cr2   O42   S    
C92   O40   A    
C172  C175  A    
C80   C84   A    
C138  C154  A    
C45   O29   A    
C6    C165  A    
C4    O24   A    
C21   C22   A    
C89   O37   A    
C160  O12   A    
C41   C49   A    
C18   C170  A    
C25   C29   A    
C90   O2    A    
C158  O10   A    
C27   C31   A    
C28   C32   A    
C111  H15   S    
C62   C66   A    
C167  C171  A    
C167  F4    S    
C98   C102  A    
C131  F11   S    
C60   C76   A    
C98   H5    S    
C78   C82   A    
C134  C155  S    
C54   C70   A    
C36   H44   S    
C63   Cl3   S    
C137  C153  A    
C64   Cl4   S    
C174  Cl14  S    
Cr6   O18   S    
C81   H1    S    
C146  H26   S    
C140  C156  A    
C134  O50   A    
C20   C172  A    
C132  C152  A    
C112  H16   S    
C130  C138  A    
Cr1   O1    S    
C47   O31   A    
C102  F5    S    
C9    F14   S    
Cr3   O23   S    
C84   C88   A    
Cr10  O38   S    
C119  C123  A    
C26   C90   S    
C5    C46   S    
C105  C125  A    
C110  H14   S    
C7    C48   S    
C59   Cl27  S    
C8    C47   S    
C107  C127  A    
C51   Cl11  S    
C136  C153  S    
C2    O26   A    
C163  O43   A    
Cr2   O46   S    
C3    O23   A    
C163  O15   A    
C62   Cl2   S    
Cr11  O15   S    
C136  O48   A    
Cr9   O13   S    
C61   C65   A    
C129  C137  A    
Cr4   O4    S    
C117  C149  S    
C55   C71   A    
C2    C75   S    
C165  F2    S    
C30   H38   S    
Cr4   O44   S    
C6    C9    A    
C66   C70   A    
C129  C149  A    
C64   C68   A    
C164  O16   A    
C144  H32   S    
C147  H27   S    
C175  Cl15  S    
C158  O6    A    
C10   F13   S    
C57   C73   A    
C142  H30   S    
Cr11  O11   S    
Cr8   O28   S    
C85   C93   A    
C78   C158  S    
C53   F17   S    
C87   C95   A    
C130  C150  A    
C23   C24   A    
C44   Cl8   S    
C27   C91   S    
C110  C114  A    
C35   H43   S    
Cr3   O19   S    
C44   C52   A    
C46   O34   A    
Cr12  O36   S    
C79   C103  A    
Cr7   O7    S    
C33   H41   S    
C148  H28   S    
Cr5   O5    S    
C7    C12   A    
C104  F7    S    
C30   C34   A    
Cr12  O20   S    
C10   C14   A    
C129  F9    S    
C142  C154  A    
C116  C120  A    
C24   Cl23  S    
C144  C156  A    
C147  C151  A    
C121  C125  A    
C56   F20   S    
C57   Cl25  S    
C123  C127  A    
C139  C155  A    
C4    O28   A    
C17   C18   A    
Cr8   O8    S    
C90   O38   A    
C5    C166  A    
C160  O8    A    
C4    C73   S    
C139  H19   S    
C42   C50   A    
C113  C117  A    
C107  C163  S    
C122  Cl18  S    
C115  C119  A    
C105  C161  S    
C91   O39   A    
C93   C97   A    
Cr10  O10   S    
C58   C74   A    
C130  F10   S    
C105  C109  A    
C92   O4    A    
C39   C71   S    
C40   C72   S    
C1    C76   S    
C107  C111  A    
C148  C152  A    
C26   C30   A    
Cr2   O18   S    
C125  H33   S    
C171  C176  A    
C115  H23   S    
C14   C22   A    
C49   Cl9   S    
C113  H21   S    
C161  O41   A    
C161  O13   A    
C141  C153  A    
C63   C75   A    
Cr7   O27   S    
C96   C100  A    
Cr8   O20   S    
C37   C41   A    
C12   F15   S    
C131  C139  A    
C143  H31   S    
C47   O35   A    
C40   C44   A    
C48   O36   A    
C103  F8    S    
C157  O9    A    
C81   C85   A    
Cr11  O39   S    
C83   C87   A    
C88   C96   A    
C6    C45   S    
C78   C102  A    
C133  C156  S    
C65   H45   S    
C87   H11   S    
C50   Cl10  S    
C138  H18   S    
C15   C19   A    
Cr3   O47   S    
C134  O46   A    
C135  C154  S    
C80   C104  A    
C83   H3    S    
Cr9   O17   S    
C80   C160  S    
C112  C116  A    
C94   C98   A    
C118  C150  S    
C14   C18   A    
Cr3   O3    S    
C141  H29   S    
C41   Cl5   S    
C166  F1    S    
C32   H40   S    
Cr4   O48   S    
Cr5   O49   S    
Cr9   O33   S    
C21   Cl22  S    
C124  C128  A    
Cr7   O51   S    
Cr11  O35   S    
C165  C169  A    
C140  H20   S    
C159  O7    A    
C1    O21   A    
Cr4   O20   S    
C89   O1    A    
C135  O47   A    
C53   C57   A    
C42   Cl6   S    
C61   C73   A    
C82   C86   A    
C123  Cl19  S    
C99   H8    S    
C33   C37   A    
C108  C112  A    
C68   C72   A    
C97   H6    S    
C35   C39   A    
C8    C167  A    
C77   C81   A    
C46   O30   A    
Cr5   O17   S    
C145  H25   S    
C85   H9    S    
C61   Cl1   S    
C31   C35   A    
C32   C36   A    
Cr2   O2    S    
C100  H7    S    
C54   F18   S    
C13   C17   A    
C132  C140  A    
C106  C126  A    
C22   Cl21  S    
C25   C89   S    
C143  C155  A    
C88   H12   S    
C109  H13   S    
C116  H24   S    
C79   C83   A    
C43   C51   A    
C65   C69   A    
C45   O33   A    
C141  C145  A    
C67   C71   A    
C106  C162  S    
C25   C49   A    
Cr10  O14   S    
Cr4   O24   S    
C56   C60   A    
C168  C172  A    
Cr5   O25   S    
C168  F3    S    
C62   C74   A    
Cr1   O21   S    
C145  C149  A    
C170  C173  A    
C93   C94   S    
C31   H39   S    
C52   Cl12  S    
C95   C96   S    
C29   H37   S    
C144  C148  A    
C162  O42   A    
C137  H17   S    
C173  C174  A    
C143  C147  A    
C67   H47   S    
C19   C171  A    
C38   C42   A    
C118  C122  A    
C17   C169  A    
C48   O32   A    
C11   F16   S    
C157  O5    A    
C60   Cl28  S    
C117  C121  A    
C68   H48   S    
C23   Cl24  S    
C175  C176  A    
Cr12  O12   S    
C86   C94   A    
Cr1   O41   S    
C121  Cl17  S    
C15   C23   A    
Cr3   O43   S    
Cr8   O52   S    
C82   H2    S    
C173  Cl13  S    
C34   H42   S    
Cr6   O6    S    
C119  C151  S    
C63   C67   A    
C120  C152  S    
C13   C21   A    
C36   C40   A    
C39   C43   A    
C101  F6    S    
Cr12  O40   S    
C124  Cl20  S    
C122  C126  A    
Cr9   O37   S    
Cr6   O50   S    
Cr10  O34   S    
C64   C76   A    
C28   C92   S    
C132  F12   S    
C109  C113  A    
C159  O11   A    
C114  C118  A    
C1    O25   A    
Cr1   O45   S    
C2    O22   A    
C86   H10   S    
C176  Cl16  S    
C3    O27   A    
Cr8   O32   S    
Cr5   O29   S    
C135  O51   A    
Cr11  O19   S    
C136  O52   A    
C59   C75   A    
Cr9   O9    S    
C54   C58   A    
C43   Cl7   S    
C34   C38   A    
C126  H34   S    
C127  H35   S    
Cr1   O17   S    
C133  O49   A    
C55   F19   S    
C114  H22   S    
C5    C10   A    
C162  O14   A    
C28   C52   A    
Cr6   O30   S    
C8    C11   A    
C133  O45   A    
C79   C159  S    
C166  C170  A    
C131  C151  A    
C84   H4    S    
C16   C24   A    
C58   Cl26  S    
C106  C110  A    
C91   O3    A    
C164  O44   A    
C111  C115  A    
C108  C128  A    
C97   C101  A    
C120  C124  A    
C77   C157  S    
