data_mof_unit_39570.cif
_audit_creation_date              2012-12-10T17:56:16-0500
_audit_creation_method            fapswitch 2.2
_symmetry_space_group_name_H-M    P1
_symmetry_Int_Tables_number       1
_space_group_crystal_system       triclinic
_cell_length_a                    12.944529
_cell_length_b                    10.782048
_cell_length_c                    9.620042
_cell_angle_alpha                 89.423503
_cell_angle_beta                  95.53885
_cell_angle_gamma                 91.666402
_cell_volume                      1335.78557328

loop_
_atom_site_label
_atom_site_type_symbol
_atom_type_description
_atom_site_fract_x
_atom_site_fract_y
_atom_site_fract_z
_atom_type_partial_charge
C1    C     C_R   0.501117 0.262559 0.500836 0.765941
C2    C     C_R   0.698796 0.495735 0.525538 0.811684
C3    C     C_R   0.810734 0.483722 0.538474 -0.042022
C4    C     C_R   0.188496 0.510131 0.458840 -0.038556
C5    C     C_R   0.030394 0.599122 0.350813 -0.262117
C6    C     C_R   0.967845 0.389195 0.641400 -0.263005
C7    C     C_R   0.137819 0.587144 0.356006 0.151546
C8    C     C_R   0.860509 0.402129 0.636992 0.134863
C9    C     C_R   0.131539 0.443314 0.552084 -0.326720
C10   C     C_R   0.867457 0.548850 0.443619 -0.316984
C11   C     C_R   0.024697 0.455520 0.547371 0.157188
C12   C     C_R   0.501136 0.737611 0.499897 0.775122
C13   C     C_R   0.973980 0.535004 0.446918 0.156942
C14   C     C_R   0.557056 0.067582 0.405655 -0.178713
C15   C     C_R   0.451490 0.933090 0.600812 -0.151543
C16   C     C_R   0.557091 0.939118 0.405186 -0.212812
C17   C     C_R   0.452179 0.061560 0.602105 -0.194908
C18   C     C_3   0.383637 0.218600 0.113292 0.074464
C19   C     C_3   0.308295 0.140688 0.193461 -0.309267
C20   C     C_3   0.316965 0.002425 0.165865 -0.917294
C21   C     C_3   0.737387 0.631858 0.903852 0.073570
C22   C     C_3   0.805140 0.717833 0.820956 -0.304600
C23   C     C_R   0.502652 0.871706 0.500923 -0.002194
C24   C     C_3   0.920379 0.694109 0.856860 -0.938122
C25   C     C_R   0.503611 0.128779 0.503058 -0.010261
C26   C     C_R   0.436722 0.419073 0.068686 0.520646
C27   C     C_R   0.568675 0.574310 0.932161 0.517484
C28   C     C_R   0.430511 0.426839 0.919893 0.059299
C29   C     C_R   0.562123 0.582012 0.079021 0.059649
C30   C     C_R   0.300953 0.502026 0.474094 0.821780
Cu1   Cu    Cu3+1 0.500000 0.500020 0.640660 0.970824
Cu2   Cu    Cu3+1 0.500000 0.499980 0.359340 0.970942
H1    H     H_    0.828379 0.610316 0.366920 0.138826
H2    H     H_    0.811959 0.234943 0.705589 0.216791
H3    H     H_    0.181077 0.750478 0.272145 0.201379
H4    H     H_    0.166863 0.631180 0.158810 0.227557
H5    H     H_    0.464735 0.195577 0.151613 0.132128
H6    H     H_    0.370143 0.192586 0.001586 0.150436
H7    H     H_    0.324497 0.158161 0.307108 0.218154
H8    H     H_    0.227439 0.168473 0.160991 0.220924
H9    H     H_    0.290984 0.981574 0.054925 0.250388
H10   H     H_    0.266966 0.948661 0.233480 0.254164
H11   H     H_    0.398213 0.973014 0.189244 0.269216
H12   H     H_    0.170408 0.381123 0.627811 0.144284
H13   H     H_    0.753336 0.533892 0.880474 0.151432
H14   H     H_    0.759932 0.648175 0.016628 0.144013
H15   H     H_    0.784818 0.703630 0.707330 0.218664
H16   H     H_    0.790059 0.815924 0.844979 0.219148
H17   H     H_    0.943362 0.713459 0.968978 0.247540
H18   H     H_    0.967158 0.755911 0.792643 0.260252
H19   H     H_    0.937443 0.596360 0.834846 0.267585
H20   H     H_    0.288890 0.437511 0.814122 0.248882
H21   H     H_    0.362319 0.318621 0.761079 0.250639
H22   H     H_    0.552490 0.750451 0.163578 0.245410
H23   H     H_    0.991544 0.659546 0.272846 0.132532
H24   H     H_    0.652912 0.664142 0.240381 0.250230
H25   H     H_    0.006319 0.326617 0.717297 0.141799
H26   H     H_    0.599413 0.119082 0.331106 0.134354
H27   H     H_    0.409862 0.881732 0.676283 0.145332
H28   H     H_    0.600735 0.892990 0.331752 0.134142
H29   H     H_    0.410894 0.108164 0.678238 0.128302
H30   H     H_    0.833381 0.343703 0.830621 0.202708
N1    N     N_R   0.500030 0.500030 0.852080 -0.239511
N2    N     N_R   0.499970 0.499970 0.147920 -0.239534
N3    N     N_3   0.801868 0.328283 0.727853 -0.589543
N4    N     N_3   0.195491 0.656515 0.260222 -0.566370
N5    N     N_3   0.341617 0.368928 0.845141 -0.598186
N6    N     N_3   0.610458 0.688497 0.147489 -0.595247
O1    O     O_R   0.499990 0.319660 0.618740 -0.592642
O2    O     O_3   0.631702 0.657589 0.866249 -0.561939
O3    O     O_R   0.500010 0.680340 0.381260 -0.596729
O4    O     O_R   0.499990 0.319630 0.381170 -0.568253
O5    O     O_R   0.500010 0.680370 0.618830 -0.535959
O6    O     O_R   0.349000 0.499990 0.599490 -0.613074
O7    O     O_R   0.651000 0.500010 0.400510 -0.610021
O8    O     O_R   0.348990 0.499960 0.361920 -0.498808
O9    O     O_R   0.651010 0.500040 0.638080 -0.534508
O10   O     O_3   0.365743 0.345748 0.133714 -0.559710

loop_
_geom_bond_atom_site_label_1
_geom_bond_atom_site_label_2
_ccdc_geom_bond_type
C22   H16   S    
C27   C29   A    
C19   C20   S    
Cu2   O7    S    
C20   H9    S    
Cu2   O4    S    
C12   C23   S    
C26   O10   S    
C18   H5    S    
C30   O6    A    
H4    N4    S    
Cu1   O5    S    
H22   N6    S    
C18   C19   S    
C16   H28   S    
C26   N2    A    
C17   H29   S    
C5    C13   A    
C24   H19   S    
C15   C23   A    
C22   H15   S    
C29   N2    A    
C8    N3    S    
C21   C22   S    
C1    C25   S    
C6    H25   S    
C4    C7    A    
H2    N3    S    
Cu1   O9    S    
Cu2   O3    S    
C21   H13   S    
C24   H18   S    
C14   H26   S    
C1    O4    A    
Cu1   N1    S    
C28   N5    S    
Cu2   N2    S    
C3    C8    A    
C6    C11   A    
C5    C7    A    
Cu1   O6    S    
C6    C8    A    
H3    N4    S    
H24   N6    S    
C1    O1    A    
C29   N6    S    
C30   O8    A    
Cu1   Cu2   S    
C18   O10   S    
C9    C11   A    
C27   O2    S    
C19   H7    S    
C12   O3    A    
C16   C23   A    
C14   C16   A    
C20   H11   S    
C21   H14   S    
C24   H17   S    
C15   C17   A    
C9    H12   S    
H30   N3    S    
C15   H27   S    
C5    H23   S    
H20   N5    S    
C10   C13   A    
Cu2   O8    S    
C20   H10   S    
C26   C28   A    
C21   O2    S    
C17   C25   A    
C2    C3    S    
C18   H6    S    
C2    O9    A    
C7    N4    S    
C11   C13   A    
C10   H1    S    
C22   C24   S    
C14   C25   A    
H21   N5    S    
C19   H8    S    
C28   N1    A    
Cu1   O1    S    
C3    C10   A    
C27   N1    A    
C4    C9    A    
C12   O5    A    
C4    C30   S    
C2    O7    A    
