data_mof_unit_26422.cif
_audit_creation_date              2012-12-10T17:31:11-0500
_audit_creation_method            fapswitch 2.2
_symmetry_space_group_name_H-M    P1
_symmetry_Int_Tables_number       1
_space_group_crystal_system       triclinic
_cell_length_a                    12.076207
_cell_length_b                    12.867207
_cell_length_c                    15.095847
_cell_angle_alpha                 85.602487
_cell_angle_beta                  114.251965
_cell_angle_gamma                 94.352832
_cell_volume                      2129.84501643

loop_
_atom_site_label
_atom_site_type_symbol
_atom_type_description
_atom_site_fract_x
_atom_site_fract_y
_atom_site_fract_z
_atom_type_partial_charge
C1    C     C_R   0.476431 0.299695 0.497891 0.902721
C2    C     C_R   0.523690 0.700251 0.502363 0.900740
C3    C     C_R   0.660350 0.638022 0.107144 0.328244
C4    C     C_R   0.374863 0.648794 0.883957 0.331573
C5    C     C_R   0.747041 0.620958 0.069892 0.404389
C6    C     C_R   0.285300 0.641439 0.922050 0.403184
C7    C     C_R   0.538612 0.811831 0.503500 -0.110416
C8    C     C_R   0.462077 0.187978 0.497671 -0.112078
C9    C     C_R   0.372860 0.026497 0.536035 0.188207
C10   C     C_R   0.628740 0.973297 0.466273 0.196238
C11   C     C_R   0.376241 0.134840 0.526135 -0.191103
C12   C     C_R   0.624785 0.864970 0.475465 -0.188376
C13   C     C_R   0.542400 0.134813 0.475050 -0.271667
C14   C     C_R   0.458835 0.864916 0.526815 -0.271462
C15   C     C_R   0.543508 0.027280 0.485507 0.120975
C16   C     C_R   0.458020 0.972492 0.516733 0.119993
C17   C     C_R   0.017848 0.613832 0.423261 -0.241931
C18   C     C_R   0.982269 0.386431 0.577000 -0.250497
C19   C     C_R   0.134884 0.600907 0.429003 -0.088170
C20   C     C_R   0.864998 0.398997 0.570826 -0.096626
C21   C     C_R   0.152231 0.448298 0.532427 0.544766
C22   C     C_R   0.848071 0.552178 0.468196 0.545721
C23   C     C_R   0.575317 0.498235 0.680971 0.866215
C24   C     C_R   0.425674 0.508631 0.318950 0.867523
C25   C     C_R   0.033885 0.458152 0.527480 -0.002563
C26   C     C_R   0.966315 0.542244 0.472931 -0.001419
C27   C     C_R   0.622657 0.521419 0.784012 -0.076579
C28   C     C_R   0.385289 0.537050 0.214837 -0.077660
C29   C     C_R   0.789268 0.561431 0.937244 -0.107198
C30   C     C_R   0.229846 0.589678 0.058404 -0.107525
C31   C     C_R   0.747589 0.527778 0.842729 -0.207576
C32   C     C_R   0.263133 0.553860 0.155064 -0.210944
C33   C     C_R   0.540862 0.550749 0.820091 -0.205003
C34   C     C_R   0.473469 0.559115 0.177772 -0.216553
C35   C     C_R   0.581066 0.592768 0.911363 0.020885
C36   C     C_R   0.443315 0.602106 0.083314 0.026143
C37   C     C_R   0.706632 0.592158 0.973261 0.045630
C38   C     C_R   0.318797 0.611697 0.020841 0.044650
C39   C     C_R   0.496777 0.623978 0.945816 -0.144988
C40   C     C_R   0.533816 0.623683 0.046864 -0.149534
H1    H     H_    0.826237 0.343224 0.608843 0.162342
H2    H     H_    0.173456 0.656450 0.390670 0.164731
H3    H     H_    0.968414 0.679697 0.380039 0.220589
H4    H     H_    0.031722 0.320619 0.620315 0.209338
H5    H     H_    0.566324 0.540312 0.222774 0.206530
H6    H     H_    0.444510 0.539177 0.776639 0.210387
H7    H     H_    0.193402 0.538961 0.182764 0.176421
H8    H     H_    0.812895 0.506926 0.815732 0.172051
H9    H     H_    0.886081 0.562701 0.981947 0.185561
H10   H     H_    0.134283 0.598832 0.013124 0.189902
H11   H     H_    0.395445 0.821023 0.551011 0.188597
H12   H     H_    0.605775 0.178608 0.450788 0.184340
H13   H     H_    0.686320 0.821870 0.458009 0.191756
H14   H     H_    0.314484 0.177968 0.543300 0.189198
N1    N     N_R   0.799120 0.480200 0.517090 -0.149707
N2    N     N_R   0.200880 0.519800 0.482910 -0.144839
O1    O     O_R   0.580150 0.341050 0.504560 -0.622476
O2    O     O_R   0.419850 0.658950 0.495440 -0.620968
O3    O     O_R   0.388090 0.353760 0.493600 -0.626298
O4    O     O_R   0.611910 0.646240 0.506400 -0.626759
O5    O     O_R   0.650890 0.490020 0.640860 -0.603342
O6    O     O_R   0.349110 0.509980 0.359140 -0.603401
O7    O     O_R   0.458830 0.502730 0.629890 -0.638009
O8    O     O_R   0.541170 0.497270 0.370110 -0.642092
Zn1   Zn    Zn3+2 0.628240 0.491510 0.507320 0.946439
Zn2   Zn    Zn3+2 0.371760 0.508490 0.492680 0.951639
O9    O     O_3   0.870885 0.629048 0.126419 -0.785310
H15   H     H_    0.886094 0.644282 0.193811 0.381582
O10   O     O_3   0.164531 0.659687 0.864410 -0.775530
H16   H     H_    0.152863 0.674320 0.795904 0.388908
O11   O     O_3   0.701275 0.675605 0.199098 -0.770839
H17   H     H_    0.635838 0.714806 0.202790 0.350785
O12   O     O_3   0.342770 0.686802 0.788962 -0.794393
H18   H     H_    0.416442 0.719322 0.782616 0.343598
C41   C     C_3   0.279455 0.971302 0.568046 -0.888649
H19   H     H_    0.325730 0.926361 0.638033 0.251725
H20   H     H_    0.220912 0.027015 0.579138 0.250347
H21   H     H_    0.219351 0.917674 0.511703 0.244498
C42   C     C_3   0.722714 0.028460 0.434915 -0.907217
H22   H     H_    0.676941 0.073448 0.364889 0.243594
H23   H     H_    0.782514 0.082003 0.491471 0.243092
H24   H     H_    0.781508 0.972733 0.424160 0.254602
O13   O     O_3   0.784738 0.635865 0.413778 -0.776102
H25   H     H_    0.698362 0.621494 0.398886 0.377451
O14   O     O_3   0.216103 0.365391 0.588104 -0.810001
H26   H     H_    0.302087 0.378819 0.601223 0.377995

loop_
_geom_bond_atom_site_label_1
_geom_bond_atom_site_label_2
_ccdc_geom_bond_type
C19   N2    A    
C6    O10   S    
C8    C13   A    
C5    C37   A    
C1    C8    S    
O12   H18   S    
C3    O11   S    
C2    C7    S    
C5    O9    S    
C20   H1    S    
C29   H9    S    
O14   H26   S    
C27   C33   A    
C17   C26   A    
C35   C37   A    
C9    C16   A    
C1    O1    A    
C10   C15   A    
C1    O3    A    
O3    Zn2   S    
C2    O4    A    
C15   C16   A    
C30   C38   A    
C17   C19   A    
O2    Zn2   S    
C7    C14   A    
O13   H25   S    
C6    C38   A    
C23   C27   S    
C18   C20   A    
C12   H13   S    
C19   H2    S    
C23   O7    A    
C30   H10   S    
O7    Zn2   S    
C28   C34   A    
C24   O8    A    
C33   H6    S    
C18   C25   A    
C20   N1    A    
N1    Zn1   S    
C7    C12   A    
C21   O14   S    
O6    Zn2   S    
C27   C31   A    
O9    H15   S    
C36   C40   A    
C4    C6    A    
C39   C40   A    
C42   H23   S    
C25   C26   A    
C35   C39   A    
C41   H19   S    
C17   H3    S    
C18   H4    S    
C42   H24   S    
C13   H12   S    
C41   H20   S    
C14   H11   S    
C4    C39   A    
C28   C32   A    
C34   H5    S    
C9    C11   A    
C4    O12   S    
C11   H14   S    
C10   C12   A    
C3    C40   A    
C31   H8    S    
C13   C15   A    
C32   H7    S    
C14   C16   A    
C21   C25   A    
C24   O6    A    
C24   C28   S    
O1    Zn1   S    
C3    C5    A    
O4    Zn1   S    
C21   N2    A    
C10   C42   S    
C2    O2    A    
C22   N1    A    
C22   O13   S    
C36   C38   A    
O11   H17   S    
C29   C31   A    
O8    Zn1   S    
C30   C32   A    
C8    C11   A    
N2    Zn2   S    
C33   C35   A    
C34   C36   A    
O10   H16   S    
C41   H21   S    
C42   H22   S    
O5    Zn1   S    
C23   O5    A    
C22   C26   A    
C29   C37   A    
C9    C41   S    
