data_mof_unit_13200.cif
_audit_creation_date              2012-12-10T17:56:44-0500
_audit_creation_method            fapswitch 2.2
_symmetry_space_group_name_H-M    P1
_symmetry_Int_Tables_number       1
_space_group_crystal_system       triclinic
_cell_length_a                    10.828485
_cell_length_b                    9.522662
_cell_length_c                    10.768814
_cell_angle_alpha                 89.962481
_cell_angle_beta                  90.176144
_cell_angle_gamma                 89.900572
_cell_volume                      1110.42989123

loop_
_atom_site_label
_atom_site_type_symbol
_atom_type_description
_atom_site_fract_x
_atom_site_fract_y
_atom_site_fract_z
_atom_type_partial_charge
C1    C     C_R   0.262060 0.500053 0.499905 0.787051
C2    C     C_R   0.737915 0.499912 0.500111 0.762180
C3    C     C_R   0.935844 0.627652 0.500503 -0.209695
C4    C     C_R   0.063578 0.627752 0.500340 -0.179845
C5    C     C_R   0.421402 0.074614 0.424635 -0.020283
C6    C     C_R   0.578669 0.074184 0.575312 -0.019086
C7    C     C_R   0.421401 0.925808 0.424639 -0.018793
C8    C     C_R   0.578680 0.925368 0.575316 -0.019832
C9    C     C_R   0.503646 0.500049 0.262509 0.787349
C10   C     C_R   0.503627 0.499977 0.737505 0.789916
C11   C     C_R   0.707354 0.633879 0.129925 -0.226980
C12   C     C_R   0.707156 0.633993 0.870966 -0.240949
C13   C     C_R   0.804242 0.699239 0.066102 0.228979
C14   C     C_R   0.804059 0.699431 0.935158 0.226627
C15   C     C_R   0.608717 0.569261 0.934762 0.050066
C16   C     C_R   0.608757 0.569291 0.065720 0.047964
C17   C     C_R   0.511890 0.499888 0.128816 -0.070004
C18   C     C_R   0.511899 0.499728 0.871230 -0.071917
C19   C     C_R   0.420830 0.426842 0.063827 -0.204685
C20   C     C_R   0.420842 0.426750 0.935794 -0.198580
C21   C     C_R   0.064020 0.372503 0.499551 -0.189891
C22   C     C_R   0.936300 0.372422 0.499702 -0.177644
C23   C     C_R   0.871725 0.499980 0.500138 -0.009039
C24   C     C_R   0.128178 0.500155 0.499899 -0.017614
Cu1   Cu    Cu3+1 0.500000 0.640660 0.500000 0.937852
Cu2   Cu    Cu3+1 0.500000 0.359340 0.500000 0.942899
H1    H     H_    0.347881 0.372095 0.112637 0.140674
H2    H     H_    0.347885 0.371975 0.886643 0.146858
H3    H     H_    0.711272 0.631674 0.230243 0.158963
H4    H     H_    0.710972 0.631826 0.770672 0.151035
H5    H     H_    0.112221 0.272727 0.499160 0.147806
H6    H     H_    0.888432 0.272627 0.499447 0.147755
H7    H     H_    0.887602 0.727404 0.500897 0.145795
H8    H     H_    0.111434 0.727549 0.500586 0.149637
H9    H     H_    0.358424 0.869917 0.364253 0.120622
H10   H     H_    0.641710 0.869144 0.635683 0.119965
N1    N     N_R   0.500000 0.852070 0.500000 -0.158344
N2    N     N_R   0.500000 0.147940 0.500000 -0.158398
O1    O     O_R   0.319640 0.618740 0.499990 -0.585961
O2    O     O_R   0.680360 0.618740 0.500010 -0.602207
O3    O     O_R   0.319620 0.381170 0.499990 -0.590505
O4    O     O_R   0.680380 0.381170 0.500010 -0.586253
O5    O     O_R   0.500000 0.618810 0.319650 -0.582559
O6    O     O_R   0.500000 0.618810 0.680350 -0.579545
O7    O     O_R   0.499970 0.381240 0.319640 -0.576138
O8    O     O_R   0.500030 0.381240 0.680360 -0.577713
C25   C     C_3   0.907627 0.766402 0.138846 -0.874505
H11   H     H_    0.893280 0.756977 0.240595 0.228708
H12   H     H_    0.996629 0.714648 0.116002 0.236426
H13   H     H_    0.913330 0.879828 0.115818 0.235127
C26   C     C_3   0.907029 0.767137 0.862772 -0.881578
H14   H     H_    0.892278 0.758125 0.760965 0.224529
H15   H     H_    0.912575 0.880489 0.886026 0.233864
H16   H     H_    0.996223 0.715526 0.885708 0.241393
H17   H     H_    0.358434 0.130834 0.364227 0.116952
H18   H     H_    0.641685 0.130061 0.635671 0.121551

loop_
_geom_bond_atom_site_label_1
_geom_bond_atom_site_label_2
_ccdc_geom_bond_type
C10   O8    A    
C15   C18   A    
C6    N2    A    
C9    O7    A    
C19   H1    S    
C11   C16   A    
C3    C23   A    
C19   C20   A    
C12   C15   A    
C26   H16   S    
Cu1   N1    S    
C21   C22   A    
Cu1   O5    S    
C7    N1    A    
C25   H12   S    
C13   C14   A    
Cu1   O1    S    
C14   C26   S    
C6    H18   S    
C11   C13   A    
C11   H3    S    
C21   H5    S    
C22   H6    S    
C2    O4    A    
Cu1   O6    S    
C1    O3    A    
C17   C19   A    
C10   C18   S    
C25   H13   S    
C18   C20   A    
Cu1   O2    S    
C4    C24   A    
C4    H8    S    
C9    O5    A    
C8    N1    A    
C3    H7    S    
C10   O6    A    
C15   C16   A    
C25   H11   S    
C2    O2    A    
Cu2   O4    S    
C1    C24   S    
C13   C25   S    
C8    H10   S    
C21   C24   A    
C9    C17   S    
C2    C23   S    
C5    C7    A    
C1    O1    A    
C22   C23   A    
Cu2   N2    S    
C6    C8    A    
C20   H2    S    
Cu2   O7    S    
C12   H4    S    
Cu1   Cu2   S    
C5    N2    A    
Cu2   O8    S    
C7    H9    S    
C5    H17   S    
C3    C4    A    
C26   H14   S    
Cu2   O3    S    
C12   C14   A    
C16   C17   A    
C26   H15   S    
