data_mof_unit_44468.cif
_audit_creation_date              2012-12-11T14:27:32-0500
_audit_creation_method            fapswitch 2.2
_symmetry_space_group_name_H-M    P1
_symmetry_Int_Tables_number       1
_space_group_crystal_system       triclinic
_cell_length_a                    6.929502
_cell_length_b                    14.811556
_cell_length_c                    16.143286
_cell_angle_alpha                 90.755375
_cell_angle_beta                  91.081132
_cell_angle_gamma                 90.422219
_cell_volume                      1656.40669825

loop_
_atom_site_label
_atom_site_type_symbol
_atom_type_description
_atom_site_fract_x
_atom_site_fract_y
_atom_site_fract_z
_atom_type_partial_charge
O1    O     O_R   0.494510 0.415970 0.413200 -0.534227
O2    O     O_R   0.823800 0.407430 0.586200 -0.544533
O3    O     O_R   0.994130 0.584030 0.586800 -0.540656
C1    C     C_R   0.656123 0.388210 0.615817 0.738732
O4    O     O_R   0.824220 0.405090 0.413820 -0.556014
O5    O     O_R   0.994560 0.581670 0.413190 -0.544140
C2    C     C_R   0.650413 0.385378 0.383372 0.735180
O6    O     O_R   0.494090 0.418330 0.586810 -0.528113
O7    O     O_3   0.660810 0.557940 0.500000 -0.372580
V1    V     V_3+5 0.935650 0.489250 0.500000 1.433994
O8    O     O_R   0.324270 0.592570 0.413800 -0.537125
C3    C     C_R   0.155248 0.611928 0.384036 0.725201
O9    O     O_R   0.323850 0.594910 0.586180 -0.543176
C4    C     C_R   0.156185 0.616925 0.615083 0.701868
V2    V     V_3+5 0.435660 0.510750 0.500000 1.465458
O10   O     O_3   0.160630 0.442060 0.500000 -0.370360
C5    C     C_3   0.068851 0.664971 0.771879 -0.150861
C6    C     C_3   0.239675 0.719456 0.810608 0.177869
H1    H     H_    0.016896 0.598143 0.792880 0.106724
C7    C     C_3   0.119149 0.806238 0.808203 -0.067158
C8    C     C_3   0.947599 0.752730 0.769162 -0.159398
C9    C     C_3   0.024934 0.772521 0.681570 -0.117408
C10   C     C_3   0.196501 0.826513 0.721185 -0.141452
C11   C     C_3   0.318492 0.739118 0.723753 -0.121561
C12   C     C_3   0.146570 0.685779 0.685023 -0.041426
H2    H     H_    0.794751 0.758465 0.787785 0.123035
H3    H     H_    0.936051 0.794491 0.627681 0.137005
H4    H     H_    0.249268 0.892532 0.699013 0.175774
H5    H     H_    0.471381 0.733607 0.705118 0.115270
C13   C     C_2   0.991358 0.710665 0.281248 -0.041294
C14   C     C_2   0.151494 0.671160 0.311248 -0.241305
H6    H     H_    0.852707 0.695630 0.308339 0.160794
H7    H     H_    0.287000 0.680918 0.280077 0.183421
C15   C     C_2   0.992189 0.767429 0.205789 -0.250968
C16   C     C_2   0.124858 0.832004 0.188328 0.305966
H8    H     H_    0.872711 0.755753 0.162339 0.127450
C17   C     C_2   0.766031 0.208254 0.779995 -0.281091
C18   C     C_2   0.606437 0.160691 0.800787 0.305628
H9    H     H_    0.896872 0.201236 0.817335 0.165132
C19   C     C_2   0.781537 0.268397 0.707414 -0.024652
C20   C     C_2   0.645695 0.329199 0.688144 -0.233129
H10   H     H_    0.913038 0.265479 0.671982 0.181813
H11   H     H_    0.520642 0.336368 0.726731 0.185602
C21   C     C_2   0.730829 0.181877 0.235017 -0.111205
C22   C     C_2   0.634809 0.187129 0.162085 -0.308938
H12   H     H_    0.799296 0.118588 0.251291 0.152563
H13   H     H_    0.581571 0.249900 0.138297 0.107964
C23   C     C_2   0.752160 0.257899 0.296106 -0.184863
C24   C     C_2   0.615819 0.320501 0.312947 -0.010368
H14   H     H_    0.879585 0.255163 0.336163 0.135544
O11   O     O_R   0.771000 0.074870 0.906030 -0.559159
O12   O     O_R   0.440710 0.088040 0.078970 -0.529110
O13   O     O_R   0.270540 0.911420 0.079570 -0.511766
C25   C     C_R   0.612580 0.110003 0.106279 0.778823
O14   O     O_R   0.441280 0.085700 0.906600 -0.505432
O15   O     O_R   0.271110 0.909060 0.905960 -0.535077
C26   C     C_R   0.607978 0.104124 0.875961 0.640912
O16   O     O_R   0.770430 0.077230 0.079640 -0.540640
O17   O     O_3   0.604340 0.935220 0.992820 -0.378637
V3    V     V_3+5 0.329430 0.003850 0.992770 1.554883
O18   O     O_R   0.941400 0.898110 0.906530 -0.549292
C27   C     C_R   0.109179 0.875799 0.877827 0.694383
O19   O     O_R   0.940830 0.900450 0.078910 -0.553721
C28   C     C_R   0.110378 0.882917 0.110038 0.648914
V4    V     V_3+5 0.829450 0.982250 0.992700 1.465836
O20   O     O_3   0.104410 0.051000 0.992740 -0.366431
C29   C     C_3   0.363398 0.689725 0.884540 -0.370827
C30   C     C_3   0.467703 0.601618 0.865876 -0.768902
H15   H     H_    0.361892 0.546775 0.851145 0.228486
H16   H     H_    0.565430 0.610055 0.812725 0.217969
H17   H     H_    0.555477 0.581931 0.920884 0.218903
H18   H     H_    0.471862 0.743269 0.899851 0.186090
H19   H     H_    0.269561 0.680612 0.938877 0.165461
S1    S     S_3+6 0.305703 0.870478 0.260719 0.002471
O21   O     O_2   0.239986 0.860443 0.348356 -0.311231
O22   O     O_2   0.487295 0.817478 0.248293 -0.366979
O23   O     O_3   0.353303 0.980257 0.244117 -0.508731
H20   H     H_    0.468574 0.994538 0.279229 0.358741
S2    S     S_3+6 0.393170 0.154921 0.737017 -0.020868
O24   O     O_2   0.262299 0.231290 0.760138 -0.385316
O25   O     O_2   0.441252 0.160479 0.646803 -0.316313
O26   O     O_3   0.275992 0.057016 0.752689 -0.518987
H21   H     H_    0.146182 0.065035 0.727189 0.349226
C31   C     C_3   0.422457 0.321427 0.262688 -0.356306
C32   C     C_3   0.243686 0.367398 0.297591 -0.676662
H22   H     H_    0.204894 0.338000 0.358012 0.245532
H23   H     H_    0.264895 0.441629 0.302407 0.208563
H24   H     H_    0.119615 0.355636 0.254109 0.187283
H25   H     H_    0.449217 0.355887 0.203368 0.168604
H26   H     H_    0.373204 0.250812 0.251265 0.219324

loop_
_geom_bond_atom_site_label_1
_geom_bond_atom_site_label_2
_ccdc_geom_bond_type
C8    H2    S    
O19   V4    S    
C16   S1    S    
C1    O6    A    
O23   H20   S    
S1    O22   D    
C6    C11   S    
C24   C31   S    
C29   H18   S    
C17   C19   S    
O5    C3    A    
C13   C14   D    
O13   C28   A    
C18   S2    S    
V2    O10   S    
C15   C16   D    
O11   V4    S    
C11   H5    S    
O12   V3    S    
O8    V2    S    
C21   H12   S    
C30   H15   S    
S1    O23   S    
C10   C11   S    
C14   H7    S    
C16   C28   S    
O1    V2    S    
O7    V1    S    
C6    C7    S    
O14   V3    S    
C19   H10   S    
V3    O20   S    
O17   V3    S    
C8    C9    S    
C20   H11   S    
C31   H26   S    
O13   V3    S    
O12   C25   A    
C22   H13   S    
S1    O21   D    
C13   C15   S    
C32   H23   S    
C29   C30   S    
C11   C12   S    
C2    C24   S    
O4    C2    A    
C6    C29   S    
C32   H22   S    
C9    C12   S    
C5    C8    S    
O15   V3    S    
O2    C1    A    
C17   C18   D    
C18   C26   S    
O16   V4    S    
C7    C10   S    
C5    C6    S    
C10   H4    S    
C31   C32   S    
O3    C4    A    
O11   C26   A    
C29   H19   S    
C19   C20   D    
C22   C25   S    
V4    O20   S    
O6    V2    S    
C9    H3    S    
O14   C26   A    
C3    C14   S    
O15   C27   A    
C31   H25   S    
O2    V1    S    
C21   C22   D    
S2    O25   D    
C25   O16   A    
C32   H24   S    
C23   C24   D    
O1    C2    A    
O19   C28   A    
O5    V1    S    
S2    O26   S    
O8    C3    A    
C5    C12   S    
O9    V2    S    
O7    V2    S    
O4    V1    S    
C17   H9    S    
O3    V1    S    
V1    O10   S    
O17   V4    S    
C13   H6    S    
C30   H17   S    
C23   H14   S    
C5    H1    S    
C15   H8    S    
C4    C12   S    
C7    C27   S    
O18   C27   A    
S2    O24   D    
O18   V4    S    
C7    C8    S    
C30   H16   S    
O26   H21   S    
C1    C20   S    
C9    C10   S    
O9    C4    A    
C21   C23   S    
