data_mof_unit_31373.cif
_audit_creation_date              2012-12-10T17:55:28-0500
_audit_creation_method            fapswitch 2.2
_symmetry_space_group_name_H-M    P1
_symmetry_Int_Tables_number       1
_space_group_crystal_system       triclinic
_cell_length_a                    10.742854
_cell_length_b                    9.629633
_cell_length_c                    11.021807
_cell_angle_alpha                 89.991416
_cell_angle_beta                  92.79467
_cell_angle_gamma                 90.009174
_cell_volume                      1138.84698833

loop_
_atom_site_label
_atom_site_type_symbol
_atom_type_description
_atom_site_fract_x
_atom_site_fract_y
_atom_site_fract_z
_atom_type_partial_charge
C1    C     C_R   0.262912 0.499946 0.500047 0.901700
C2    C     C_R   0.737152 0.499979 0.500737 0.896258
C3    C     C_R   0.498844 0.499903 0.265629 0.926180
C4    C     C_R   0.500591 0.499880 0.734331 0.817865
C5    C     C_2   0.519135 0.392682 0.937551 0.116707
C6    C     C_2   0.480233 0.392590 0.062407 0.100554
C7    C     C_2   0.486715 0.500316 0.864896 -0.304142
C8    C     C_2   0.512186 0.500460 0.134957 -0.230150
C9    C     C_R   0.072032 0.497978 0.615539 0.106031
C10   C     C_R   0.940727 0.498750 0.616336 0.140592
C11   C     C_R   0.871345 0.500058 0.503846 -0.171676
C12   C     C_R   0.128961 0.499893 0.502813 -0.187316
C13   C     C_R   0.929664 0.501430 0.392741 0.295647
C14   C     C_R   0.058969 0.501808 0.392256 0.365183
C15   C     C_R   0.412432 0.073151 0.431895 0.340337
C16   C     C_R   0.587553 0.073166 0.568155 0.356763
C17   C     C_R   0.415746 0.925573 0.428108 0.364849
C18   C     C_R   0.584274 0.925561 0.571904 0.377621
Cu1   Cu    Cu3+1 0.500000 0.640660 0.500000 1.085219
Cu2   Cu    Cu3+1 0.500000 0.359340 0.500000 1.061670
H1    H     H_    0.439586 0.589555 0.902031 0.155001
H2    H     H_    0.558703 0.590040 0.097636 0.161710
N1    N     N_R   0.500000 0.852070 0.500000 -0.285311
N2    N     N_R   0.500000 0.147940 0.500000 -0.276870
O1    O     O_R   0.319640 0.618740 0.499990 -0.539318
O2    O     O_R   0.680360 0.618740 0.500010 -0.531698
O3    O     O_R   0.319620 0.381170 0.499990 -0.531645
O4    O     O_R   0.680380 0.381170 0.500010 -0.522606
O5    O     O_R   0.500000 0.618750 0.321940 -0.536628
O6    O     O_R   0.500000 0.618750 0.678060 -0.549915
O7    O     O_R   0.499970 0.381180 0.321940 -0.557561
O8    O     O_R   0.500030 0.381180 0.678060 -0.568783
C19   C     C_3   0.594901 0.270525 0.898467 -0.624551
H3    H     H_    0.625522 0.205368 0.977602 0.235102
H4    H     H_    0.538296 0.203566 0.835246 0.252198
H5    H     H_    0.680276 0.308741 0.856854 0.253894
C20   C     C_3   0.405224 0.269891 0.101668 -0.628818
H6    H     H_    0.374901 0.204479 0.022609 0.222779
H7    H     H_    0.462212 0.203371 0.164937 0.255882
H8    H     H_    0.319689 0.307563 0.143296 0.289438
C21   C     C_3   0.153807 0.495483 0.732053 -0.767770
H9    H     H_    0.214025 0.401726 0.733232 0.227390
H10   H     H_    0.213936 0.589322 0.736362 0.223238
H11   H     H_    0.101953 0.493355 0.816248 0.255519
C22   C     C_3   0.876234 0.498590 0.735873 -0.669551
H12   H     H_    0.773313 0.501044 0.725405 0.209171
H13   H     H_    0.901659 0.403123 0.787856 0.244970
H14   H     H_    0.904732 0.591743 0.789696 0.256927
Cl1   Cl    Cl    0.840349 0.502637 0.253356 -0.536510
Cl2   Cl    Cl    0.133652 0.504657 0.252565 -0.484629
Cl3   Cl    Cl    0.289996 0.156477 0.349322 -0.500873
Cl4   Cl    Cl    0.709840 0.156571 0.650942 -0.545569
Cl5   Cl    Cl    0.310145 0.837761 0.327501 -0.442662
Cl6   Cl    Cl    0.689991 0.837676 0.672411 -0.501842

loop_
_geom_bond_atom_site_label_1
_geom_bond_atom_site_label_2
_ccdc_geom_bond_type
C8    H2    S    
C20   H6    S    
Cu2   O3    S    
C15   Cl3   S    
C4    O8    A    
C11   C13   A    
C21   H9    S    
C16   N2    A    
C9    C21   S    
Cu1   Cu2   S    
C3    O7    A    
C1    O3    A    
C21   H11   S    
C10   C22   S    
C19   H3    S    
C6    C20   S    
C2    O2    A    
C17   N1    A    
C22   H12   S    
C1    O1    A    
C21   H10   S    
C3    O5    A    
C14   Cl2   S    
C1    C12   S    
C4    C7    S    
C13   Cl1   S    
C2    C11   S    
C9    C10   A    
C16   C18   A    
C15   N2    A    
C19   H4    S    
C12   C14   A    
C20   H8    S    
C22   H13   S    
C5    C6    S    
Cu1   O1    S    
C9    C12   A    
C2    O4    A    
C10   C11   A    
C18   Cl6   S    
C18   N1    A    
Cu1   O5    S    
C17   Cl5   S    
C20   H7    S    
C19   H5    S    
C5    C7    D    
C3    C8    S    
Cu2   O8    S    
C22   H14   S    
C15   C17   A    
Cu1   O2    S    
Cu2   N2    S    
Cu1   N1    S    
C6    C8    D    
Cu2   O4    S    
C13   C14   A    
C7    H1    S    
Cu1   O6    S    
C4    O6    A    
C16   Cl4   S    
Cu2   O7    S    
C5    C19   S    
