data_mof_unit_40520.cif
_audit_creation_date              2012-12-10T17:18:55-0500
_audit_creation_method            fapswitch 2.2
_symmetry_space_group_name_H-M    P1
_symmetry_Int_Tables_number       1
_space_group_crystal_system       triclinic
_cell_length_a                    9.602609
_cell_length_b                    10.841056
_cell_length_c                    13.409634
_cell_angle_alpha                 92.608965
_cell_angle_beta                  72.057594
_cell_angle_gamma                 89.488399
_cell_volume                      1326.32087962

loop_
_atom_site_label
_atom_site_type_symbol
_atom_type_description
_atom_site_fract_x
_atom_site_fract_y
_atom_site_fract_z
_atom_type_partial_charge
C1    C     C_R   0.502399 0.736916 0.491021 0.840077
C2    C     C_R   0.433062 0.480431 0.979619 0.098100
C3    C     C_R   0.469560 0.450720 0.870424 0.070107
C4    C     C_R   0.541868 0.465222 0.030426 0.035295
C5    C     C_R   0.672450 0.396773 0.977005 0.100259
C6    C     C_R   0.697492 0.352653 0.873548 -0.214684
C7    C     C_R   0.598783 0.380503 0.820468 -0.196636
C8    C     C_R   0.528529 0.520350 0.130525 0.335421
C9    C     C_R   0.750773 0.411951 0.132110 -0.260111
C10   C     C_R   0.372862 0.488633 0.815385 -0.106443
C11   C     C_R   0.257064 0.888454 0.448873 0.448286
C12   C     C_R   0.421230 0.494277 0.700041 0.783255
C13   C     C_R   0.119480 0.949796 0.480571 -0.199151
C14   C     C_R   0.099435 0.061079 0.539158 -0.187148
C15   C     C_R   0.219195 0.118577 0.556852 -0.167107
C16   C     C_R   0.361103 0.063490 0.517847 0.028632
C17   C     C_R   0.373709 0.938671 0.481522 0.056295
C18   C     C_R   0.502281 0.871072 0.480464 -0.097046
C19   C     C_R   0.626290 0.934670 0.486139 -0.216477
C20   C     C_R   0.622782 0.062104 0.496733 -0.214215
C21   C     C_R   0.491316 0.128111 0.512456 -0.089142
C22   C     C_R   0.916492 0.334828 0.361424 -0.141932
C23   C     C_R   0.496700 0.262727 0.506947 0.769976
C24   C     C_R   0.017701 0.252573 0.294130 -0.230246
C25   C     C_R   0.161189 0.251495 0.294216 -0.194493
C26   C     C_R   0.204424 0.332789 0.361453 -0.086920
C27   C     C_R   0.104704 0.417842 0.432103 0.140625
C28   C     C_R   0.955147 0.418333 0.432081 0.172883
C29   C     C_R   0.896053 0.578158 0.563779 -0.052669
C30   C     C_R   0.042443 0.579188 0.564701 0.457759
C31   C     C_R   0.579008 0.498653 0.299789 0.783710
C32   C     C_R   0.776759 0.372731 0.027678 -0.196315
C33   C     C_R   0.624797 0.482570 0.184979 -0.150565
C34   C     C_R   0.230823 0.531256 0.872250 -0.186376
C35   C     C_R   0.186882 0.541022 0.981214 -0.177908
C36   C     C_R   0.286857 0.517516 0.034663 -0.102986
Cu1   Cu    Cu3+1 0.359340 0.500010 0.500010 0.949686
Cu2   Cu    Cu3+1 0.640660 0.499990 0.499990 0.921572
H1    H     H_    0.826996 0.383957 0.172216 0.165771
H2    H     H_    0.027910 0.911516 0.459579 0.125198
H3    H     H_    0.992163 0.105757 0.566815 0.151086
H4    H     H_    0.198290 0.204873 0.603115 0.170581
H5    H     H_    0.723130 0.108731 0.494032 0.164951
H6    H     H_    0.816304 0.642006 0.615978 0.171229
H7    H     H_    0.809683 0.329602 0.354334 0.198806
H8    H     H_    0.984407 0.189616 0.241133 0.153783
H9    H     H_    0.240137 0.187495 0.241384 0.155334
H10   H     H_    0.317391 0.324512 0.353986 0.193871
H11   H     H_    0.795236 0.298005 0.832737 0.143852
H12   H     H_    0.875796 0.319292 0.987731 0.149831
H13   H     H_    0.153523 0.557862 0.832445 0.175382
H14   H     H_    0.245654 0.523236 0.119335 0.195210
H15   H     H_    0.075566 0.569882 0.024506 0.159120
H16   H     H_    0.622285 0.341106 0.741401 0.170525
H17   H     H_    0.727036 0.885961 0.482116 0.164593
N1    N     N_R   0.852480 0.498790 0.499000 -0.240721
N2    N     N_R   0.148360 0.498710 0.498970 -0.248242
O1    O     O_R   0.381190 0.680360 0.500010 -0.545462
O2    O     O_R   0.618760 0.680340 0.500000 -0.591016
O3    O     O_R   0.323240 0.499990 0.650990 -0.608438
O4    O     O_R   0.560820 0.499960 0.650980 -0.576393
O5    O     O_R   0.381240 0.319660 0.500000 -0.611166
O6    O     O_R   0.618810 0.319640 0.499990 -0.605583
O7    O     O_R   0.439180 0.500040 0.349020 -0.559349
O8    O     O_R   0.676760 0.500010 0.349010 -0.594819
O9    O     O_3   0.283203 0.788530 0.377432 -0.722185
H18   H     H_    0.190927 0.766339 0.363133 0.326331
O10   O     O_3   0.071468 0.664904 0.634045 -0.758397
H19   H     H_    0.172203 0.653565 0.634268 0.377100
O11   O     O_3   0.429376 0.617078 0.170361 -0.733638
H20   H     H_    0.464385 0.669301 0.219885 0.359491

loop_
_geom_bond_atom_site_label_1
_geom_bond_atom_site_label_2
_ccdc_geom_bond_type
C26   C27   A    
C2    C4    A    
C31   C33   S    
Cu1   N2    S    
C16   C21   A    
C29   N1    A    
C35   H15   S    
C25   H9    S    
C8    O11   S    
Cu1   O1    S    
C36   H14   S    
C11   O9    S    
C26   H10   S    
C4    C8    A    
Cu2   O4    S    
C24   H8    S    
C20   H5    S    
C19   C20   A    
C23   O6    A    
Cu1   O5    S    
C1    C18   S    
Cu2   N1    S    
C10   C34   A    
C3    C10   A    
C22   C28   A    
C13   C14   A    
C24   C25   A    
C9    C33   A    
C12   O4    A    
C11   C13   A    
C32   H12   S    
C34   H13   S    
C29   C30   A    
C10   C12   S    
C14   H3    S    
C31   O7    A    
Cu1   Cu2   S    
O9    H18   S    
C6    C7    A    
C3    C7    A    
C8    C33   A    
C1    O2    A    
C29   H6    S    
C28   N1    A    
C5    C6    A    
C22   C24   A    
C9    C32   A    
O11   H20   S    
C16   C17   A    
C2    C36   A    
C15   C16   A    
Cu1   O3    S    
C30   N2    A    
C9    H1    S    
Cu1   O7    S    
C22   H7    S    
C20   C21   A    
C11   C17   A    
C17   C18   A    
C34   C35   A    
C27   N2    A    
C19   H17   S    
C27   C28   A    
Cu2   O6    S    
C31   O8    A    
C14   C15   A    
C18   C19   A    
C13   H2    S    
C2    C3    A    
C23   O5    A    
C7    H16   S    
C25   C26   A    
C1    O1    A    
Cu2   O8    S    
C21   C23   S    
O10   H19   S    
C5    C32   A    
C30   O10   S    
C6    H11   S    
Cu2   O2    S    
C15   H4    S    
C4    C5    A    
C35   C36   A    
C12   O3    A    
