data_mof_unit_16949.cif
_audit_creation_date              2012-12-10T17:50:37-0500
_audit_creation_method            fapswitch 2.2
_symmetry_space_group_name_H-M    P1
_symmetry_Int_Tables_number       1
_space_group_crystal_system       triclinic
_cell_length_a                    15.728028
_cell_length_b                    10.631391
_cell_length_c                    9.933788
_cell_angle_alpha                 89.912776
_cell_angle_beta                  89.913869
_cell_angle_gamma                 91.668254
_cell_volume                      1660.32883633

loop_
_atom_site_label
_atom_site_type_symbol
_atom_type_description
_atom_site_fract_x
_atom_site_fract_y
_atom_site_fract_z
_atom_type_partial_charge
C1    C     C_R   0.502157 0.260766 0.500112 0.849065
C2    C     C_3   0.083078 0.499653 0.500154 -0.139802
C3    C     C_3   0.973480 0.596811 0.575960 -0.269027
C4    C     C_3   0.916859 0.500294 0.499801 -0.107576
C5    C     C_3   0.030537 0.609586 0.448454 -0.256983
C6    C     C_3   0.972061 0.513329 0.372176 -0.251063
C7    C     C_1   0.173901 0.499098 0.500371 0.115887
C8    C     C_1   0.826046 0.500127 0.499856 0.086650
C9    C     C_R   0.644823 0.137145 0.623598 -0.172815
C10   C     C_R   0.711652 0.074269 0.683283 -0.080570
C11   C     C_R   0.711735 0.943389 0.683077 -0.127755
C12   C     C_R   0.338089 0.499566 0.500079 0.877455
C13   C     C_R   0.645025 0.874921 0.623086 -0.194793
C14   C     C_R   0.576243 0.937237 0.563346 0.096031
C15   C     C_R   0.576116 0.069126 0.563635 0.092093
C16   C     C_R   0.507955 0.128681 0.499931 -0.083618
C17   C     C_R   0.443664 0.061907 0.432766 -0.207336
C18   C     C_R   0.443805 0.933380 0.432482 -0.189132
C19   C     C_R   0.508228 0.871989 0.499365 -0.096029
C20   C     C_R   0.388991 0.334370 0.140285 -0.144749
C21   C     C_R   0.334509 0.252472 0.070442 -0.162802
C22   C     C_R   0.334504 0.252475 0.931099 -0.151156
C23   C     C_R   0.502444 0.739402 0.499865 0.866237
C24   C     C_R   0.389012 0.334335 0.860710 -0.136890
C25   C     C_R   0.445380 0.418321 0.928008 0.163309
C26   C     C_R   0.445382 0.418360 0.072474 0.167804
C27   C     C_R   0.552252 0.578172 0.071158 -0.097034
C28   C     C_R   0.552233 0.578146 0.928186 -0.096631
C29   C     C_R   0.661904 0.500337 0.499941 0.866473
C30   C     C_3   0.969583 0.391589 0.550929 0.536876
C31   C     C_3   0.025775 0.404705 0.425275 0.572031
C32   C     C_1   0.249183 0.499146 0.500309 -0.149219
C33   C     C_1   0.750779 0.500187 0.499844 -0.173545
C34   C     C_3   0.027175 0.486801 0.625689 0.570564
H1    H     H_    0.764077 0.894748 0.728276 0.152109
H2    H     H_    0.648741 0.773542 0.622209 0.143397
H3    H     H_    0.392582 0.881378 0.382557 0.159614
H4    H     H_    0.594974 0.642149 0.124474 0.151676
H5    H     H_    0.384883 0.329170 0.247039 0.199455
H6    H     H_    0.291870 0.188799 0.877005 0.170713
H7    H     H_    0.384976 0.329147 0.753948 0.203553
H8    H     H_    0.594926 0.642131 0.874373 0.146902
H9    H     H_    0.947731 0.523460 0.267992 0.201033
H10   H     H_    0.057508 0.698990 0.406429 0.205584
H11   H     H_    0.950274 0.675245 0.638451 0.192390
H12   H     H_    0.392363 0.109567 0.382956 0.145591
H13   H     H_    0.648389 0.238788 0.623204 0.158904
H14   H     H_    0.763946 0.127308 0.728605 0.186146
N1    N     N_R   0.499210 0.498800 0.142780 -0.121797
N2    N     N_R   0.499180 0.498720 0.857170 -0.121430
O1    O     O_R   0.500000 0.316780 0.614690 -0.643515
O2    O     O_R   0.499990 0.316750 0.385360 -0.629260
O3    O     O_R   0.376780 0.500000 0.614650 -0.618829
O4    O     O_R   0.376770 0.499980 0.385310 -0.628277
O5    O     O_R   0.500010 0.683250 0.614640 -0.613905
O6    O     O_R   0.500000 0.683220 0.385310 -0.611743
O7    O     O_R   0.623230 0.500020 0.614690 -0.624072
O8    O     O_R   0.623220 0.500000 0.385350 -0.601703
Zn1   Zn    Zn3+2 0.500010 0.500020 0.653130 0.946220
Zn2   Zn    Zn3+2 0.499990 0.499980 0.346870 0.954276
F1    F     F_    0.054385 0.305791 0.348989 -0.613895
H15   H     H_    0.291900 0.188774 0.124977 0.170556
F2    F     F_    0.936750 0.279839 0.603452 -0.620091
F3    F     F_    0.057217 0.472226 0.755343 -0.611550

loop_
_geom_bond_atom_site_label_1
_geom_bond_atom_site_label_2
_ccdc_geom_bond_type
C27   N1    A    
C19   C23   S    
C17   H12   S    
C23   O5    A    
C25   N2    A    
O5    Zn1   S    
C11   C13   A    
C9    C10   A    
C31   F1    S    
C2    C7    S    
C4    C8    S    
C22   H6    S    
C20   C21   A    
C2    C34   S    
C11   H1    S    
C17   C18   A    
O3    Zn1   S    
C3    H11   S    
C23   O6    A    
C1    C16   S    
O4    Zn2   S    
C13   C14   A    
C12   C32   S    
C24   H7    S    
C1    O1    A    
C21   H15   S    
C30   C31   S    
N1    Zn2   S    
C20   C26   A    
C12   O4    A    
N2    Zn1   S    
C29   O8    A    
C16   C17   A    
C28   H8    S    
C5    H10   S    
C29   O7    A    
C34   F3    S    
C9    H13   S    
C6    H9    S    
C10   H14   S    
C5    C6    S    
C1    O2    A    
C22   C24   A    
O7    Zn1   S    
C2    C5    S    
O1    Zn1   S    
C10   C11   A    
C30   C34   S    
C27   H4    S    
O8    Zn2   S    
C15   C16   A    
C12   O3    A    
C29   C33   S    
O6    Zn2   S    
C24   C25   A    
C13   H2    S    
C4    C6    S    
C18   C19   A    
C26   N1    A    
C27   C28   A    
C20   H5    S    
C14   C15   A    
C2    C31   S    
C6    C31   S    
C7    C32   T    
O2    Zn2   S    
C3    C34   S    
C25   C26   A    
C21   C22   A    
C28   N2    A    
C14   C19   A    
C18   H3    S    
C4    C30   S    
C3    C4    S    
C30   F2    S    
C8    C33   T    
C3    C5    S    
C9    C15   A    
