data_mof_unit_68228.cif
_audit_creation_date              2012-12-11T17:19:07-0500
_audit_creation_method            fapswitch 2.2
_symmetry_space_group_name_H-M    P1
_symmetry_Int_Tables_number       1
_space_group_crystal_system       triclinic
_cell_length_a                    14.502327
_cell_length_b                    7.496893
_cell_length_c                    14.343456
_cell_angle_alpha                 90.001157
_cell_angle_beta                  101.846545
_cell_angle_gamma                 90.00002
_cell_volume                      1526.23994908

loop_
_atom_site_label
_atom_site_type_symbol
_atom_type_description
_atom_site_fract_x
_atom_site_fract_y
_atom_site_fract_z
_atom_type_partial_charge
O1    O     O_R   0.648180 0.355050 0.151550 -0.534806
O2    O     O_R   0.351820 0.644950 0.848450 -0.543480
O3    O     O_R   0.851820 0.855050 0.348450 -0.534788
O4    O     O_R   0.148180 0.144950 0.651550 -0.543471
O5    O     O_R   0.835240 0.681980 0.154280 -0.553604
O6    O     O_R   0.164760 0.318020 0.845720 -0.528082
O7    O     O_R   0.664760 0.181980 0.345720 -0.553616
O8    O     O_R   0.335240 0.818020 0.654280 -0.528108
C1    C     C_R   0.864367 0.514581 0.134148 0.827526
C2    C     C_R   0.136806 0.482926 0.867555 0.819305
C3    C     C_R   0.635630 0.014581 0.365849 0.827395
C4    C     C_R   0.363203 0.982922 0.632453 0.819219
O9    O     O_R   0.647870 0.684600 0.139630 -0.546407
O10   O     O_R   0.352130 0.315400 0.860370 -0.539328
O11   O     O_R   0.852130 0.184600 0.360370 -0.546406
O12   O     O_R   0.147870 0.815400 0.639630 -0.539331
O13   O     O_R   0.663110 0.857440 0.333700 -0.517342
O14   O     O_R   0.336890 0.142560 0.666300 -0.541200
O15   O     O_R   0.836890 0.357440 0.166300 -0.517361
O16   O     O_R   0.163110 0.642560 0.833700 -0.541187
C5    C     C_R   0.612368 0.517343 0.117469 0.713678
C6    C     C_R   0.386037 0.484700 0.884378 0.712592
C7    C     C_R   0.887637 0.017345 0.382526 0.713627
C8    C     C_R   0.113960 0.984699 0.615626 0.712624
O17   O     O_3   0.755220 0.522230 0.313690 -0.405401
O18   O     O_3   0.244780 0.477770 0.686310 -0.405181
O19   O     O_3   0.744780 0.022230 0.186310 -0.405411
O20   O     O_3   0.255220 0.977770 0.813690 -0.405128
V1    V     V_3+5 0.749030 0.796100 0.238190 1.332880
V2    V     V_3+5 0.250970 0.203900 0.761810 1.334459
V3    V     V_3+5 0.750970 0.296100 0.261810 1.332857
V4    V     V_3+5 0.249030 0.703900 0.738190 1.334402
C9    C     C_1   0.968804 0.010405 0.463690 -0.202229
C10   C     C_1   0.034348 0.999856 0.533108 -0.220762
C11   C     C_1   0.531199 0.510398 0.036307 -0.202245
C12   C     C_1   0.465651 0.499854 0.966892 -0.220732
C13   C     C_R   0.571386 0.992869 0.701843 0.113452
C14   C     C_R   0.430119 0.935990 0.294971 0.113166
C15   C     C_R   0.928631 0.492899 0.798159 0.113409
C16   C     C_R   0.069876 0.436010 0.205029 0.113141
C17   C     C_R   0.668338 0.959375 0.739874 0.325456
C18   C     C_R   0.332582 0.910339 0.256292 0.301130
C19   C     C_R   0.831681 0.459396 0.760120 0.325383
C20   C     C_R   0.167411 0.410357 0.243712 0.301079
C21   C     C_R   0.730911 0.954261 0.676373 0.171190
C22   C     C_R   0.269154 0.915411 0.319041 0.180696
C23   C     C_R   0.769098 0.454299 0.823615 0.171159
C24   C     C_R   0.230843 0.415399 0.180966 0.180662
C25   C     C_R   0.696260 0.960395 0.577136 0.158881
C26   C     C_R   0.303893 0.927677 0.418463 0.175455
C27   C     C_R   0.803740 0.460469 0.922853 0.158893
C28   C     C_R   0.196109 0.427651 0.081540 0.175476
C29   C     C_R   0.598475 0.982792 0.536283 -0.078045
C30   C     C_R   0.400835 0.960747 0.459865 -0.082453
C31   C     C_R   0.901527 0.482824 0.963713 -0.078027
C32   C     C_R   0.099168 0.460745 0.040139 -0.082414
C33   C     C_R   0.533536 0.990082 0.600354 -0.094272
C34   C     C_R   0.465988 0.967068 0.395797 -0.093577
C35   C     C_R   0.966473 0.490108 0.899648 -0.094279
C36   C     C_R   0.034011 0.467075 0.104203 -0.093581
C37   C     C_R   0.565511 0.993782 0.433671 -0.068621
C38   C     C_R   0.433013 0.984538 0.562854 -0.080184
C39   C     C_R   0.934488 0.493790 0.066327 -0.068642
C40   C     C_R   0.066995 0.484551 0.937152 -0.080111
O21   O     O_3   0.693676 0.929420 0.838958 -0.574619
C41   C     C_3   0.790904 0.919703 0.881475 0.041362
H1    H     H_    0.828093 0.041284 0.865735 0.168184
H2    H     H_    0.821071 0.795522 0.860002 0.157521
C42   C     C_3   0.807656 0.910592 0.989268 -0.716504
H3    H     H_    0.745558 0.853309 0.012426 0.252352
H4    H     H_    0.871606 0.830156 0.015455 0.194858
H5    H     H_    0.825277 0.043147 0.022119 0.212181
O22   O     O_3   0.308096 0.863632 0.158723 -0.564479
C43   C     C_3   0.211798 0.881370 0.113550 0.061102
H6    H     H_    0.182811 0.009593 0.132122 0.151883
H7    H     H_    0.171641 0.766206 0.130726 0.156766
C44   C     C_3   0.196989 0.878765 0.005658 -0.716610
H8    H     H_    0.260931 0.831920 0.981850 0.252033
H9    H     H_    0.136298 0.793635 0.976598 0.194832
H10   H     H_    0.173319 0.010552 0.975149 0.206076
O23   O     O_3   0.806360 0.429346 0.661043 -0.574595
C45   C     C_3   0.709128 0.419689 0.618519 0.041420
H11   H     H_    0.671960 0.541306 0.634267 0.168184
H12   H     H_    0.678938 0.295517 0.639983 0.157566
C46   C     C_3   0.692375 0.410585 0.510727 -0.716517
H13   H     H_    0.754472 0.353289 0.487568 0.252349
H14   H     H_    0.628417 0.330160 0.484537 0.194852
H15   H     H_    0.674767 0.543146 0.477881 0.212233
O24   O     O_3   0.191884 0.363654 0.341284 -0.564467
C47   C     C_3   0.288187 0.381391 0.386460 0.061143
H16   H     H_    0.317179 0.509607 0.367879 0.151854
H17   H     H_    0.328342 0.266210 0.369286 0.156715
C48   C     C_3   0.302985 0.378834 0.494356 -0.716160
H18   H     H_    0.238954 0.332258 0.518173 0.251961
H19   H     H_    0.363606 0.293436 0.523429 0.194840
H20   H     H_    0.326820 0.510640 0.524850 0.205939
N1    N     N_2   0.514647 0.057350 0.765284 -0.526756
H21   H     H_    0.503645 0.192703 0.766838 0.253403
C49   C     C_3   0.500787 0.955427 0.846836 -0.414968
H22   H     H_    0.436341 0.002655 0.869212 0.195204
H23   H     H_    0.559915 0.973411 0.908532 0.197029
H24   H     H_    0.490441 0.813906 0.827509 0.198699
N2    N     N_2   0.493959 0.900491 0.233737 -0.499850
H25   H     H_    0.510513 0.769596 0.224690 0.266380
C50   C     C_3   0.495999 0.014677 0.153565 -0.464351
H26   H     H_    0.564897 0.001305 0.132470 0.207852
H27   H     H_    0.488883 0.154896 0.173820 0.183034
H28   H     H_    0.441455 0.973342 0.091472 0.202516
N3    N     N_2   0.985383 0.557372 0.734727 -0.526701
H29   H     H_    0.996349 0.692751 0.733154 0.253361
C51   C     C_3   0.999226 0.455491 0.653153 -0.414936
H30   H     H_    0.063717 0.502566 0.630843 0.195247
H31   H     H_    0.940156 0.473673 0.591446 0.196909
H32   H     H_    0.009461 0.313958 0.672407 0.198670
N4    N     N_2   0.006034 0.400535 0.266264 -0.499839
H33   H     H_    0.989527 0.269646 0.275358 0.266397
C52   C     C_3   0.004008 0.514750 0.346433 -0.464375
H34   H     H_    0.935097 0.501450 0.367507 0.207862
H35   H     H_    0.011175 0.654965 0.326188 0.183050
H36   H     H_    0.058530 0.473371 0.408536 0.202479
N5    N     N_2   0.171978 0.873147 0.286005 -0.536343
H37   H     H_    0.152624 0.743633 0.270670 0.247636
C53   C     C_3   0.098045 0.001291 0.285179 -0.508407
H38   H     H_    0.029694 0.932138 0.278832 0.158345
H39   H     H_    0.090787 0.086319 0.221744 0.185246
H40   H     H_    0.110339 0.081960 0.350676 0.248452
N6    N     N_2   0.828791 0.923983 0.710713 -0.544258
H41   H     H_    0.850778 0.794826 0.720151 0.258431
C54   C     C_3   0.898756 0.056602 0.703528 -0.509835
H42   H     H_    0.963199 0.989919 0.692118 0.157654
H43   H     H_    0.918782 0.130985 0.771094 0.188582
H44   H     H_    0.874238 0.148522 0.644053 0.246824
N7    N     N_2   0.328020 0.373150 0.214015 -0.536355
H45   H     H_    0.347377 0.243635 0.229340 0.247643
C55   C     C_3   0.401952 0.501288 0.214811 -0.508416
H46   H     H_    0.470281 0.432115 0.221043 0.158347
H47   H     H_    0.409294 0.586227 0.278293 0.185207
H48   H     H_    0.389597 0.582046 0.149350 0.248530
N8    N     N_2   0.671223 0.423961 0.789266 -0.544241
H49   H     H_    0.649257 0.294790 0.779886 0.258540
C56   C     C_3   0.601232 0.556550 0.796431 -0.510069
H50   H     H_    0.536828 0.489842 0.807946 0.157695
H51   H     H_    0.581114 0.630797 0.728823 0.188528
H52   H     H_    0.625756 0.648561 0.855841 0.246845
N9    N     N_2   0.762064 0.934980 0.517909 -0.507439
H53   H     H_    0.798748 0.048853 0.510617 0.251603
C57   C     C_3   0.815910 0.770990 0.529835 -0.461282
H54   H     H_    0.804425 0.692755 0.463952 0.234892
H55   H     H_    0.793265 0.688515 0.581634 0.239184
H56   H     H_    0.891527 0.794512 0.557131 0.191636
N10   N     N_2   0.238631 0.903654 0.477786 -0.503321
H57   H     H_    0.202578 0.018492 0.485296 0.251092
C58   C     C_3   0.185158 0.739156 0.467773 -0.447250
H58   H     H_    0.202469 0.657552 0.532125 0.236753
H59   H     H_    0.200873 0.655223 0.412066 0.219482
H60   H     H_    0.109431 0.766967 0.450723 0.182448
N11   N     N_2   0.737925 0.435081 0.982072 -0.507515
H61   H     H_    0.701182 0.548912 0.989284 0.251661
C59   C     C_3   0.684135 0.271031 0.970185 -0.461376
H62   H     H_    0.695662 0.192842 0.036079 0.234956
H63   H     H_    0.706804 0.188549 0.918403 0.239191
H64   H     H_    0.608508 0.294453 0.942894 0.191651
N12   N     N_2   0.261375 0.403620 0.022217 -0.503279
H65   H     H_    0.297441 0.518478 0.014722 0.251014
C60   C     C_3   0.314869 0.239148 0.032255 -0.447294
H66   H     H_    0.297608 0.157543 0.967906 0.236723
H67   H     H_    0.299132 0.155205 0.087943 0.219487
H68   H     H_    0.390588 0.266994 0.049334 0.182448

loop_
_geom_bond_atom_site_label_1
_geom_bond_atom_site_label_2
_ccdc_geom_bond_type
O17   V3    S    
C55   H48   S    
C41   H2    S    
O1    C5    A    
N11   H61   S    
C16   C36   A    
C31   C35   A    
O19   V1    S    
O13   V1    S    
O22   C43   S    
O3    C7    A    
C51   H30   S    
O15   V3    S    
C52   H35   S    
C13   N1    S    
N1    H21   S    
O4    V2    S    
C53   H38   S    
C60   H66   S    
C44   H8    S    
O7    C3    A    
C50   H27   S    
C35   C40   A    
C48   H18   S    
C43   H7    S    
C36   C39   A    
O9    V1    S    
C48   H20   S    
C57   H55   S    
C14   C18   A    
N3    C51   S    
C30   C34   A    
O4    C8    A    
C53   H39   S    
C41   C42   S    
N4    H33   S    
O1    V3    S    
O2    V4    S    
C18   C22   A    
C42   H4    S    
N1    C49   S    
C14   C34   A    
C29   C37   A    
C26   N10   S    
C1    O15   A    
C57   H54   S    
C2    O16   A    
N4    C52   S    
C43   C44   S    
C31   C39   A    
O2    C6    A    
N10   H57   S    
C32   C40   A    
C22   N5    S    
O14   V2    S    
C21   C25   A    
C58   H59   S    
C16   C20   A    
C54   H44   S    
C34   C37   A    
O11   C7    A    
C41   H1    S    
O12   C8    A    
C13   C17   A    
C60   H67   S    
O10   V2    S    
N9    C57   S    
N9    H53   S    
O5    V1    S    
C46   H14   S    
C50   H28   S    
O7    V3    S    
C43   H6    S    
C25   N9    S    
O8    V4    S    
C24   N7    S    
C55   H46   S    
C57   H56   S    
C44   H9    S    
C51   H31   S    
C52   H36   S    
C29   C33   A    
O18   V4    S    
C53   H40   S    
C23   C27   A    
C30   C38   A    
C7    C9    S    
C46   H13   S    
C27   N11   S    
O23   C45   S    
C32   C36   A    
C11   C12   T    
C42   H5    S    
N6    C54   S    
O5    C1    A    
C14   N2    S    
C4    C38   S    
C47   H17   S    
C59   H62   S    
C24   C28   A    
O8    C4    A    
C15   C35   A    
C59   H63   S    
C9    C10   T    
C59   H64   S    
O9    C5    A    
N2    C50   S    
C26   C30   A    
N8    C56   S    
C58   H60   S    
N5    H37   S    
O6    V2    S    
C45   H11   S    
C60   H68   S    
C45   H12   S    
C56   H50   S    
N7    H45   S    
C19   O23   S    
C56   H52   S    
C33   C38   A    
C23   N8    S    
N6    H41   S    
C47   C48   S    
C54   H42   S    
O16   V4    S    
C46   H15   S    
C55   H47   S    
C3    O13   A    
C18   O22   S    
C49   H23   S    
C1    C39   S    
C2    C40   S    
C3    C37   S    
O6    C2    A    
C15   C19   A    
N8    H49   S    
O11   V3    S    
C5    C11   S    
O12   V4    S    
C45   C46   S    
C6    C12   S    
C50   H26   S    
C22   C26   A    
C49   H22   S    
O10   C6    A    
C56   H51   S    
C58   H58   S    
C52   H34   S    
C44   H10   S    
O3    V1    S    
C47   H16   S    
C48   H19   S    
C21   N6    S    
C25   C29   A    
O20   V2    S    
C51   H32   S    
C27   C31   A    
N10   C58   S    
C17   O21   S    
C42   H3    S    
C8    C10   S    
N5    C53   S    
N12   H65   S    
C28   N12   S    
C16   N4    S    
C28   C32   A    
C15   N3    S    
C49   H24   S    
N11   C59   S    
O21   C41   S    
C4    O14   A    
N2    H25   S    
N7    C55   S    
C17   C21   A    
N12   C60   S    
O24   C47   S    
N3    H29   S    
C19   C23   A    
C13   C33   A    
C20   O24   S    
C20   C24   A    
C54   H43   S    
