data_mof_unit_13127.cif
_audit_creation_date              2012-12-10T17:54:23-0500
_audit_creation_method            fapswitch 2.2
_symmetry_space_group_name_H-M    P1
_symmetry_Int_Tables_number       1
_space_group_crystal_system       triclinic
_cell_length_a                    27.736647
_cell_length_b                    10.713731
_cell_length_c                    9.86853
_cell_angle_alpha                 89.587721
_cell_angle_beta                  89.975851
_cell_angle_gamma                 91.658747
_cell_volume                      2931.2564039

loop_
_atom_site_label
_atom_site_type_symbol
_atom_type_description
_atom_site_fract_x
_atom_site_fract_y
_atom_site_fract_z
_atom_type_partial_charge
C1    C     C_R   0.503330 0.259963 0.501495 0.874230
C2    C     C_R   0.277828 0.486616 0.377846 -0.105078
C3    C     C_R   0.252983 0.492165 0.500671 0.328571
C4    C     C_R   0.101863 0.493602 0.500730 -0.051867
C5    C     C_R   0.126006 0.379885 0.494617 -0.020982
C6    C     C_R   0.099481 0.267439 0.489483 -0.137184
C7    C     C_R   0.128919 0.606724 0.506832 -0.022384
C8    C     C_R   0.353377 0.496659 0.500233 -0.036594
C9    C     C_R   0.646639 0.499742 0.499967 -0.045208
C10   C     C_R   0.973085 0.381083 0.482486 0.045889
C11   C     C_R   0.976049 0.609244 0.518807 0.046624
C12   C     C_R   0.406042 0.499198 0.500039 0.852983
C13   C     C_R   0.949345 0.495491 0.500584 0.070963
C14   C     C_R   0.944787 0.271857 0.456492 -0.215509
C15   C     C_R   0.894848 0.274037 0.454403 -0.134402
C16   C     C_R   0.871222 0.385054 0.477500 -0.022390
C17   C     C_R   0.898274 0.496163 0.500443 -0.051497
C18   C     C_R   0.874128 0.607955 0.523238 -0.021447
C19   C     C_R   0.823694 0.606480 0.522855 0.504786
C20   C     C_R   0.820837 0.387889 0.477538 0.505168
C21   C     C_R   0.722008 0.490315 0.377460 -0.100067
C22   C     C_R   0.671937 0.491247 0.377200 -0.212276
C23   C     C_R   0.494976 0.738990 0.500219 0.895597
C24   C     C_R   0.672098 0.507565 0.622767 -0.212651
C25   C     C_R   0.722170 0.506960 0.622596 -0.099585
C26   C     C_R   0.747052 0.498219 0.500055 0.321207
C27   C     C_R   0.024082 0.379614 0.489744 0.046986
C28   C     C_R   0.050793 0.494214 0.500714 0.070580
C29   C     C_R   0.027060 0.609435 0.511639 0.046455
C30   C     C_R   0.049501 0.266995 0.487477 -0.214794
C31   C     C_R   0.105321 0.719769 0.511907 -0.135305
C32   C     C_R   0.950606 0.719152 0.544799 -0.215821
C33   C     C_R   0.900633 0.718291 0.546583 -0.136561
C34   C     C_R   0.593966 0.500162 0.499988 0.883703
C35   C     C_R   0.055381 0.721410 0.513860 -0.214675
C36   C     C_R   0.514860 0.110010 0.759281 -0.202093
C37   C     C_R   0.501266 0.048736 0.879005 -0.143161
C38   C     C_R   0.475210 0.935802 0.874074 0.149123
C39   C     C_R   0.467305 0.879095 0.748100 -0.187832
C40   C     C_R   0.485433 0.935416 0.627169 0.074942
C41   C     C_R   0.502308 0.059239 0.631179 0.096201
C42   C     C_R   0.505504 0.126054 0.506260 -0.110104
C43   C     C_R   0.502490 0.063738 0.382494 -0.214760
C44   C     C_R   0.496039 0.936815 0.380837 -0.207806
C45   C     C_R   0.176453 0.381491 0.494849 0.503897
C46   C     C_R   0.488992 0.871682 0.502453 -0.120605
C47   C     C_R   0.437076 0.335093 0.141724 -0.173778
C48   C     C_R   0.406365 0.253375 0.071822 -0.213088
C49   C     C_R   0.406324 0.253613 0.931624 -0.185669
C50   C     C_R   0.437054 0.335415 0.860615 -0.159251
C51   C     C_R   0.469004 0.418682 0.928161 0.148764
C52   C     C_R   0.469019 0.418637 0.073033 0.165626
C53   C     C_R   0.529446 0.578254 0.070988 -0.112138
C54   C     C_R   0.529431 0.578221 0.927572 -0.118107
C55   C     C_R   0.179290 0.603991 0.506594 0.504762
C56   C     C_R   0.277975 0.499281 0.623318 -0.104204
C57   C     C_R   0.328067 0.501298 0.623340 -0.222670
C58   C     C_R   0.327927 0.488918 0.377398 -0.218981
H1    H     H_    0.346624 0.484677 0.281234 0.165698
H2    H     H_    0.258505 0.503566 0.718231 0.135893
H3    H     H_    0.125391 0.808023 0.514209 0.191600
H4    H     H_    0.968164 0.807516 0.567257 0.140262
H5    H     H_    0.653424 0.514350 0.718727 0.161561
H6    H     H_    0.882837 0.804982 0.566562 0.190818
H7    H     H_    0.741711 0.512969 0.717419 0.139047
H8    H     H_    0.040158 0.812707 0.514147 0.138646
H9    H     H_    0.505582 0.112693 0.286237 0.174118
H10   H     H_    0.536421 0.194939 0.769536 0.180120
H11   H     H_    0.510122 0.090695 0.975738 0.148894
H12   H     H_    0.258246 0.481206 0.283062 0.136128
H13   H     H_    0.446583 0.792040 0.745439 0.159072
H14   H     H_    0.497411 0.889758 0.284135 0.186242
H15   H     H_    0.553450 0.642096 0.124601 0.152578
H16   H     H_    0.434499 0.330048 0.249109 0.209699
H17   H     H_    0.382341 0.189780 0.126956 0.161329
H18   H     H_    0.382366 0.189989 0.877355 0.161471
H19   H     H_    0.434791 0.330093 0.753260 0.211185
H20   H     H_    0.553404 0.642091 0.872833 0.158105
H21   H     H_    0.117264 0.178744 0.487144 0.189047
H22   H     H_    0.653132 0.485012 0.281216 0.162787
H23   H     H_    0.741429 0.483745 0.282671 0.139154
H24   H     H_    0.874799 0.187834 0.434388 0.192811
H25   H     H_    0.960043 0.183039 0.434260 0.141020
H26   H     H_    0.031910 0.176097 0.487062 0.138070
H27   H     H_    0.346875 0.506925 0.719370 0.164318
N1    N     N_R   0.201719 0.492482 0.500734 -0.359432
N2    N     N_R   0.798370 0.497511 0.500117 -0.358700
N3    N     N_R   0.499540 0.498800 0.142780 -0.124112
N4    N     N_R   0.499520 0.498720 0.857170 -0.130067
O1    O     O_R   0.500000 0.316780 0.614690 -0.651421
O2    O     O_2   0.794404 0.282084 0.456117 -0.549832
O3    O     O_2   0.205760 0.711595 0.511939 -0.550777
O4    O     O_2   0.800037 0.712963 0.544121 -0.550427
O5    O     O_R   0.500000 0.316750 0.385360 -0.640010
O6    O     O_R   0.428760 0.500030 0.614650 -0.647569
O7    O     O_R   0.428750 0.500010 0.385320 -0.639143
O8    O     O_R   0.500000 0.683250 0.614640 -0.623408
O9    O     O_R   0.500000 0.683220 0.385310 -0.615485
O10   O     O_R   0.571250 0.499990 0.614680 -0.621012
O11   O     O_R   0.571240 0.499970 0.385350 -0.617968
O12   O     O_2   0.200173 0.273371 0.489451 -0.552701
Zn1   Zn    Zn3+2 0.500000 0.500020 0.653130 0.927133
Zn2   Zn    Zn3+2 0.500000 0.499980 0.346870 0.940662
N5    N     N_3   0.459060 0.877295 0.997901 -0.471559
H28   H     H_    0.433140 0.934187 0.040421 0.184677
H29   H     H_    0.441842 0.791259 0.977982 0.184941

loop_
_geom_bond_atom_site_label_1
_geom_bond_atom_site_label_2
_ccdc_geom_bond_type
C10   C27   A    
C21   C26   A    
C1    O1    A    
C37   H11   S    
N4    Zn1   S    
C41   C42   A    
C31   H3    S    
C7    C55   A    
N5    H29   S    
C53   C54   A    
C40   C46   A    
C37   C38   A    
C28   C29   A    
C19   N2    A    
C5    C6    A    
C9    C22   A    
O9    Zn2   S    
C20   N2    A    
C56   C57   A    
C18   C19   A    
O1    Zn1   S    
C38   N5    S    
C8    C58   A    
C16   C17   A    
C34   O11   A    
C12   O6    A    
O8    Zn1   S    
C19   O4    S    
O6    Zn1   S    
C16   C20   A    
C23   C46   S    
C21   C22   A    
C3    N1    S    
C48   H17   S    
C36   C41   A    
C14   H25   S    
C4    C7    A    
N5    H28   S    
C4    C28   A    
C44   C46   A    
C50   C51   A    
C15   H24   S    
C20   O2    S    
C7    C31   A    
C51   C52   A    
C52   N3    A    
C25   H7    S    
C24   C25   A    
C54   N4    A    
C10   C14   A    
C39   C40   A    
C26   N2    S    
C35   H8    S    
C58   H1    S    
C5    C45   A    
O11   Zn2   S    
C56   H2    S    
C43   C44   A    
C55   O3    S    
C8    C57   A    
C3    C56   A    
C47   C48   A    
C8    C12   S    
C23   O9    A    
C36   H10   S    
C17   C18   A    
C49   H18   S    
C45   O12   S    
C40   C41   A    
C23   O8    A    
C21   H23   S    
O5    Zn2   S    
C24   H5    S    
C9    C34   S    
C31   C35   A    
C42   C43   A    
C50   H19   S    
N3    Zn2   S    
C36   C37   A    
C6    C30   A    
C53   H15   S    
C47   H16   S    
C4    C5    A    
C10   C13   A    
C1    O5    A    
C11   C32   A    
C2    C58   A    
C9    C24   A    
C47   C52   A    
C34   O10   A    
C29   C35   A    
C13   C17   A    
C32   C33   A    
C55   N1    A    
C45   N1    A    
C25   C26   A    
C22   H22   S    
C51   N4    A    
C11   C13   A    
C6    H21   S    
C38   C39   A    
C33   H6    S    
C48   C49   A    
C57   H27   S    
C44   H14   S    
C53   N3    A    
C30   H26   S    
C18   C33   A    
C32   H4    S    
C1    C42   S    
O10   Zn1   S    
C11   C29   A    
C43   H9    S    
C49   C50   A    
O7    Zn2   S    
C27   C28   A    
C39   H13   S    
C14   C15   A    
C12   O7    A    
C2    C3    A    
C54   H20   S    
C2    H12   S    
C15   C16   A    
C27   C30   A    
