data_mof_unit_23274.cif
_audit_creation_date              2013-03-05T16:41:05-0500
_audit_creation_method            fapswitch 2.2
_symmetry_space_group_name_H-M    P1
_symmetry_Int_Tables_number       1
_space_group_crystal_system       triclinic
_cell_length_a                    8.584221
_cell_length_b                    10.583714
_cell_length_c                    9.924651
_cell_angle_alpha                 90.512035
_cell_angle_beta                  98.769766
_cell_angle_gamma                 90.17827
_cell_volume                      891.097395614

loop_
_atom_site_label
_atom_site_type_symbol
_atom_site_description
_atom_site_fract_x
_atom_site_fract_y
_atom_site_fract_z
_atom_type_partial_charge
O1    O     O_R   0.500020 0.316790 0.614690 -0.575966
O2    O     O_R   0.500000 0.316760 0.385350 -0.611402
C1    C     C_R   0.500559 0.260810 0.499295 0.987436
O3    O     O_R   0.271760 0.500010 0.587850 -0.599356
O4    O     O_R   0.271740 0.499970 0.358500 -0.589497
C2    C     C_R   0.201385 0.497806 0.464146 1.027112
Zn1   Zn    Zn3+2 0.500010 0.500020 0.653130 1.107216
Zn2   Zn    Zn3+2 0.499990 0.499980 0.346870 1.078485
O5    O     O_R   0.500000 0.683240 0.614650 -0.576108
O6    O     O_R   0.499980 0.683210 0.385310 -0.584665
O7    O     O_R   0.728260 0.500030 0.641500 -0.579838
O8    O     O_R   0.728240 0.499990 0.412150 -0.606702
C3    C     C_R   0.498546 0.739391 0.500274 0.985883
C4    C     C_R   0.798654 0.499362 0.535853 0.943933
C5    C     C_2   0.036012 0.494468 0.445203 -0.209564
H1    H     H_    0.974011 0.489327 0.341245 0.211163
C6    C     C_2   0.964063 0.498523 0.554947 -0.239918
H2    H     H_    0.026168 0.502761 0.658987 0.212538
C7    C     C_R   0.635594 0.064310 0.494940 -0.013510
C8    C     C_R   0.495907 0.129193 0.494555 -0.334614
C9    C     C_R   0.350509 0.066887 0.472483 0.683351
C10   C     C_R   0.347699 0.935410 0.475109 0.215733
C11   C     C_R   0.493078 0.871541 0.499137 -0.236593
C12   C     C_R   0.634202 0.935373 0.497382 0.032066
C13   C     C_3   0.784317 0.929917 0.595658 -0.404107
C14   C     C_3   0.785364 0.073218 0.593014 0.546449
H3    H     H_    0.767970 0.891388 0.696176 0.232403
H4    H     H_    0.880899 0.885815 0.549378 0.286519
H5    H     H_    0.772491 0.119644 0.691643 0.149783
C15   C     C_R   0.419055 0.409415 0.059689 -0.002358
N1    N     N_R   0.498950 0.499140 0.142680 -0.177058
C16   C     C_R   0.567916 0.596161 0.081722 0.255675
C17   C     C_R   0.568017 0.596025 0.937914 0.286051
N2    N     N_R   0.498950 0.499180 0.857030 -0.161294
C18   C     C_R   0.419380 0.409240 0.917525 -0.008643
C19   C     C_3   0.447669 0.269511 0.915746 0.705526
C20   C     C_3   0.445622 0.269830 0.069583 -0.029392
H6    H     H_    0.560201 0.245015 0.131899 0.177100
N3    N     N_R   0.648734 0.694528 0.879216 0.234699
O9    O     O_R   0.592518 0.808668 0.874587 -0.303487
O10   O     O_R   0.791301 0.675707 0.854471 -0.352212
N4    N     N_R   0.319584 0.197387 0.834914 0.230008
O11   O     O_R   0.200335 0.254226 0.764104 -0.334285
O12   O     O_R   0.331025 0.075234 0.824999 -0.262786
F1    F     F_    0.593973 0.239182 0.882123 -0.640409
N5    N     N_R   0.312216 0.200953 0.110486 0.241585
O13   O     O_R   0.320164 0.078826 0.123030 -0.266658
O14   O     O_R   0.193106 0.260589 0.147738 -0.287971
F2    F     F_    0.214143 0.133675 0.458085 -0.537791
N6    N     N_R   0.199681 0.869216 0.459206 0.224083
O15   O     O_R   0.175620 0.780828 0.543945 -0.412407
O16   O     O_R   0.083380 0.905439 0.368201 -0.226394
F3    F     F_    0.906786 0.121342 0.531603 -0.530241
N7    N     N_R   0.648212 0.695252 0.163254 0.250827
O17   O     O_R   0.793635 0.679449 0.219610 -0.336408
O18   O     O_R   0.588233 0.808149 0.158626 -0.273990

loop_
_geom_bond_atom_site_label_1
_geom_bond_atom_site_label_2
_geom_bond_distance
_ccdc_geom_bond_type
O4    Zn2   1.980235 S    
N6    O16   1.301179 A    
C11   C12   1.387748 A    
C5    C6    1.331932 D    
C20   H6    1.112610 S    
C13   H3    1.109416 S    
N7    O17   1.299701 A    
C19   N4    1.466305 S    
C18   C19   1.499783 S    
C20   N5    1.466115 S    
C10   N6    1.435805 S    
Zn2   O8    1.967665 S    
C16   C17   1.427370 A    
C9    F2    1.358794 S    
C7    C12   1.365112 A    
C13   C14   1.517134 S    
C1    C8    1.393612 S    
N3    O10   1.300016 A    
C17   N3    1.426814 S    
C9    C10   1.392199 A    
C12   C13   1.494455 S    
C13   H4    1.109462 S    
Zn1   O7    1.980235 S    
C4    C6    1.403631 S    
C15   N1    1.363923 A    
N4    O12   1.300850 A    
C15   C18   1.411336 A    
O3    Zn1   1.967666 S    
O3    C2    1.282977 A    
C19   C20   1.529534 S    
Zn1   N2    2.025142 S    
O8    C4    1.283182 A    
C6    H2    1.087930 S    
N5    O14   1.302166 A    
C10   C11   1.410180 A    
O4    C2    1.287658 A    
O7    C4    1.287510 A    
N7    O18   1.300961 A    
N4    O11   1.302172 A    
C5    H1    1.087242 S    
C14   F3    1.383202 S    
C19   F1    1.385669 S    
C17   N2    1.372180 A    
C8    C9    1.396279 A    
C3    C11   1.399652 S    
C14   H5    1.112000 S    
Zn2   O6    1.973079 S    
N2    C18   1.365415 A    
C16   N7    1.428289 S    
N3    O9    1.300829 A    
Zn1   O5    1.979740 S    
C7    C14   1.491721 S    
O5    C3    1.284389 A    
N5    O13   1.300642 A    
O2    C1    1.280567 A    
N6    O15   1.300332 A    
C2    C5    1.403579 S    
O1    Zn1   1.973080 S    
Zn2   N1    2.025112 S    
N1    C16   1.373838 A    
O2    Zn2   1.979739 S    
C7    C8    1.383190 A    
C15   C20   1.497337 S    
O1    C1    1.285363 A    
O6    C3    1.283649 A    
