data_mof_unit_27658.cif
_audit_creation_date              2012-12-10T17:48:55-0500
_audit_creation_method            fapswitch 2.2
_symmetry_space_group_name_H-M    P1
_symmetry_Int_Tables_number       1
_space_group_crystal_system       triclinic
_cell_length_a                    10.715147
_cell_length_b                    14.700419
_cell_length_c                    14.634814
_cell_angle_alpha                 65.33475
_cell_angle_beta                  103.800315
_cell_angle_gamma                 102.957563
_cell_volume                      2014.02826999

loop_
_atom_site_label
_atom_site_type_symbol
_atom_type_description
_atom_site_fract_x
_atom_site_fract_y
_atom_site_fract_z
_atom_type_partial_charge
C1    C     C_R   0.473545 0.119459 0.311421 0.782432
C2    C     C_R   0.457680 0.361210 0.076476 0.088415
C3    C     C_R   0.415837 0.323637 0.997944 0.118296
C4    C     C_R   0.259810 0.000601 0.499158 0.750774
C5    C     C_R   0.478148 0.467539 0.051343 0.071401
C6    C     C_R   0.470436 0.534378 0.947107 0.065221
C7    C     C_R   0.428010 0.493291 0.871130 -0.218913
C8    C     C_R   0.400298 0.389976 0.896448 -0.221305
C9    C     C_R   0.501253 0.509213 0.126400 -0.226124
C10   C     C_R   0.522417 0.613145 0.100359 -0.223576
C11   C     C_R   0.524019 0.679254 0.999224 0.154387
C12   C     C_3   0.877482 0.000594 0.497914 0.132168
C13   C     C_R   0.500907 0.640413 0.921989 0.088437
C14   C     C_R   0.547738 0.784151 0.974155 -0.181754
C15   C     C_R   0.548554 0.850998 0.872964 -0.189853
C16   C     C_R   0.521980 0.880548 0.688121 0.798992
C17   C     C_R   0.510182 0.709184 0.821872 -0.254862
C18   C     C_R   0.733852 0.289853 0.660852 -0.011923
C19   C     C_R   0.690352 0.205676 0.633386 0.058055
C20   C     C_R   0.516961 0.283989 0.511794 -0.014874
C21   C     C_R   0.552646 0.372052 0.534877 -0.041171
C22   C     C_R   0.663089 0.373801 0.611114 0.112546
C23   C     C_3   0.957665 0.983040 0.605461 -0.396711
C24   C     C_R   0.482552 0.457691 0.485232 0.091086
C25   C     C_R   0.523806 0.544021 0.512831 0.077211
C26   C     C_R   0.633268 0.541944 0.588850 -0.231874
C27   C     C_R   0.700725 0.459473 0.636347 -0.204615
C28   C     C_R   0.739926 0.000026 0.499404 0.770639
C29   C     C_R   0.372136 0.459829 0.409182 -0.244782
C30   C     C_R   0.303278 0.541700 0.363435 -0.200149
C31   C     C_R   0.341618 0.625504 0.390398 0.159747
C32   C     C_R   0.453197 0.629135 0.464202 -0.028385
C33   C     C_R   0.268131 0.705717 0.344403 -0.299719
C34   C     C_3   0.932505 0.104062 0.421310 -0.382381
C35   C     C_R   0.305510 0.789603 0.370930 0.087699
C36   C     C_R   0.487857 0.718322 0.485902 0.002580
C37   C     C_3   0.034296 0.914561 0.467527 -0.372833
C38   C     C_3   0.891329 0.915949 0.465270 -0.375413
C39   C     C_3   0.101740 0.985533 0.604098 -0.405093
C40   C     C_3   0.077320 0.105802 0.418510 -0.052866
C41   C     C_3   0.121226 0.002078 0.496169 0.122076
C42   C     C_2   0.347540 0.043044 0.140362 0.368097
C43   C     C_3   0.854221 0.291890 0.741410 -0.428310
C44   C     C_3   0.925575 0.198695 0.787802 -0.365716
C45   C     C_R   0.449630 0.186400 0.201990 -0.154448
C46   C     C_3   0.045112 0.211224 0.865200 -0.831015
C47   C     C_3   0.099369 0.133918 0.308135 -0.414746
C48   C     C_3   0.095806 0.247037 0.243154 -0.357507
C49   C     C_3   0.100314 0.271393 0.131823 -0.831085
C50   C     C_R   0.529137 0.813462 0.796271 -0.066038
C51   C     C_R   0.386851 0.219723 0.021153 -0.195859
C52   C     C_R   0.398089 0.150413 0.122285 -0.006077
C53   C     C_R   0.479714 0.291050 0.177334 -0.259709
Cu1   Cu    Cu3+1 0.465900 0.918260 0.475680 0.925644
Cu2   Cu    Cu3+1 0.534100 0.081740 0.524320 0.922517
H1    H     H_    0.062060 0.840393 0.524501 0.177737
H2    H     H_    0.523194 0.316699 0.238257 0.162272
H3    H     H_    0.047908 0.920622 0.392071 0.157819
H4    H     H_    0.409750 0.538882 0.790848 0.144693
H5    H     H_    0.498564 0.463492 0.205936 0.145316
H6    H     H_    0.564107 0.814421 0.032710 0.149608
H7    H     H_    0.783407 0.464323 0.694066 0.137734
H8    H     H_    0.572056 0.728436 0.539788 0.119625
H9    H     H_    0.246589 0.849913 0.337624 0.105384
H10   H     H_    0.218422 0.539140 0.306283 0.142200
H11   H     H_    0.739577 0.139839 0.668719 0.124572
H12   H     H_    0.925309 0.166033 0.443869 0.157394
H13   H     H_    0.435244 0.276067 0.455188 0.127144
H14   H     H_    0.837020 0.928633 0.386915 0.173018
H15   H     H_    0.669670 0.603283 0.614402 0.126626
H16   H     H_    0.335069 0.398879 0.383203 0.122375
H17   H     H_    0.181380 0.703121 0.288923 0.139819
H18   H     H_    0.849710 0.840761 0.517463 0.167412
H19   H     H_    0.134707 0.913175 0.661155 0.166498
H20   H     H_    0.920137 0.908652 0.661319 0.158615
H21   H     H_    0.136663 0.165615 0.444968 0.146834
H22   H     H_    0.871605 0.118546 0.344801 0.157188
H23   H     H_    0.161191 0.047314 0.627225 0.174547
H24   H     H_    0.297039 0.996644 0.203797 0.070439
H25   H     H_    0.114650 0.277918 0.827936 0.249816
H26   H     H_    0.016538 0.221050 0.928279 0.254013
H27   H     H_    0.094255 0.142830 0.897740 0.248973
H28   H     H_    0.859628 0.130250 0.827273 0.217287
H29   H     H_    0.957756 0.187893 0.726611 0.212789
H30   H     H_    0.924607 0.359008 0.706000 0.205633
H31   H     H_    0.824686 0.300968 0.804665 0.207617
H32   H     H_    0.187732 0.247428 0.125381 0.263661
H33   H     H_    0.012361 0.231959 0.098531 0.245606
H34   H     H_    0.948542 0.042348 0.631123 0.165889
H35   H     H_    0.103796 0.354119 0.087746 0.246400
H36   H     H_    0.005833 0.270112 0.246845 0.222846
H37   H     H_    0.180528 0.292016 0.273133 0.209568
H38   H     H_    0.195425 0.116649 0.309037 0.179822
H39   H     H_    0.024487 0.088176 0.271527 0.209649
H40   H     H_    0.366578 0.361825 0.835794 0.143534
H41   H     H_    0.504911 0.683310 0.762118 0.149661
H42   H     H_    0.563878 0.931621 0.854811 0.159731
H43   H     H_    0.538208 0.641916 0.160031 0.153594
H44   H     H_    0.349987 0.192670 0.959839 0.169130
N1    N     N_R   0.585360 0.204570 0.560800 -0.191893
N2    N     N_R   0.414550 0.795430 0.439160 -0.175655
O1    O     O_R   0.455060 0.022100 0.338110 -0.591611
O2    O     O_R   0.512640 0.160150 0.379180 -0.577304
O3    O     O_R   0.288900 0.930980 0.479450 -0.595440
O4    O     O_R   0.346480 0.069030 0.520520 -0.588152
O5    O     O_R   0.487360 0.839850 0.620820 -0.585453
O6    O     O_R   0.544940 0.977900 0.661890 -0.585076
O7    O     O_R   0.653520 0.930970 0.479480 -0.588329
O8    O     O_R   0.711100 0.069020 0.520550 -0.591340
O9    O     O_2   0.357370 0.006378 0.081755 -0.558574

loop_
_geom_bond_atom_site_label_1
_geom_bond_atom_site_label_2
_ccdc_geom_bond_type
C40   C47   S    
C49   H32   S    
Cu1   N2    S    
C49   H35   S    
C44   H28   S    
C7    C8    A    
C39   C41   S    
C12   C23   S    
C26   C27   A    
C29   C30   A    
C12   C28   S    
C34   C40   S    
C32   C36   A    
Cu1   O3    S    
C16   C50   S    
C34   H22   S    
C30   C31   A    
C11   C14   A    
C39   H19   S    
C4    C41   S    
Cu2   O2    S    
C19   H11   S    
C18   C19   A    
C15   C50   A    
C10   H43   S    
C24   C29   A    
C16   O6    A    
C46   H27   S    
C37   H1    S    
C47   C48   S    
C48   H36   S    
Cu2   N1    S    
C23   H34   S    
C35   H9    S    
C36   H8    S    
C9    C10   A    
C1    O2    A    
C37   H3    S    
C33   H17   S    
C16   O5    A    
C25   C32   A    
C38   H14   S    
C45   C53   A    
C42   H24   S    
Cu1   O1    S    
C21   C22   A    
Cu2   O8    S    
C12   C38   S    
C49   H33   S    
C8    H40   S    
C15   H42   S    
C7    H4    S    
C44   C46   S    
C51   H44   S    
Cu1   O5    S    
C51   C52   A    
C43   H30   S    
C39   H23   S    
C24   C25   A    
C3    C8    A    
C53   H2    S    
C45   C52   A    
C44   H29   S    
C25   C26   A    
C14   H6    S    
C40   H21   S    
Cu2   O6    S    
C36   N2    A    
C17   C50   A    
C43   C44   S    
C5    C9    A    
C37   C38   S    
C27   H7    S    
C46   H26   S    
C31   C32   A    
C20   N1    A    
C31   C33   A    
C47   H38   S    
C17   H41   S    
C48   C49   S    
Cu2   O4    S    
C22   C27   A    
C26   H15   S    
C2    C5    A    
C12   C34   S    
Cu1   Cu2   S    
C40   C41   S    
C3    C51   A    
C18   C22   A    
C43   H31   S    
C20   H13   S    
C23   H20   S    
C35   N2    A    
C2    C53   A    
C34   H12   S    
C19   N1    A    
C6    C7    A    
Cu1   O7    S    
C28   O8    A    
C4    O4    A    
C13   C17   A    
C9    H5    S    
C2    C3    A    
C42   O9    D    
C18   C43   S    
C6    C13   A    
C46   H25   S    
C11   C13   A    
C1    C45   S    
C5    C6    A    
C28   O7    A    
C23   C39   S    
C4    O3    A    
C33   C35   A    
C47   H39   S    
C37   C41   S    
C30   H10   S    
C10   C11   A    
C20   C21   A    
C48   H37   S    
C21   C24   A    
C14   C15   A    
C1    O1    A    
C42   C52   S    
C29   H16   S    
C38   H18   S    
