data_mof_unit_67611.cif
_audit_creation_date              2013-03-05T16:07:32-0500
_audit_creation_method            fapswitch 2.2
_symmetry_space_group_name_H-M    P1
_symmetry_Int_Tables_number       1
_space_group_crystal_system       triclinic
_cell_length_a                    11.140078
_cell_length_b                    10.711212
_cell_length_c                    9.996807
_cell_angle_alpha                 92.37977
_cell_angle_beta                  89.309058
_cell_angle_gamma                 96.351903
_cell_volume                      1184.4776633

loop_
_atom_site_label
_atom_site_type_symbol
_atom_site_description
_atom_site_fract_x
_atom_site_fract_y
_atom_site_fract_z
_atom_type_partial_charge
O1    O     O_R   0.499990 0.319660 0.618740 -0.514060
O2    O     O_R   0.500010 0.680340 0.381260 -0.515723
O3    O     O_R   0.499990 0.319630 0.381170 -0.508285
O4    O     O_R   0.500010 0.680370 0.618830 -0.498717
C1    C     C_R   0.501751 0.264078 0.498221 0.840546
C2    C     C_R   0.497609 0.735842 0.501890 0.874790
O5    O     O_R   0.319650 0.500020 0.618780 -0.505296
O6    O     O_R   0.680350 0.499980 0.381220 -0.499186
O7    O     O_R   0.319640 0.500000 0.381210 -0.575469
O8    O     O_R   0.680360 0.500000 0.618790 -0.577304
C3    C     C_R   0.262406 0.490151 0.500413 0.870862
C4    C     C_R   0.737742 0.508906 0.499404 0.865436
Cu1   Cu    Cu3+1 0.500000 0.500020 0.640660 1.143331
Cu2   Cu    Cu3+1 0.500000 0.499980 0.359340 1.138836
H1    H     H_    0.091564 0.183703 0.932948 0.261547
H2    H     H_    0.911780 0.809160 0.067174 0.255567
C5    C     C_R   0.173488 0.339360 0.052395 -0.019715
C6    C     C_R   0.827834 0.654460 0.947198 -0.035174
H3    H     H_    0.236151 0.371424 0.975751 0.217221
H4    H     H_    0.764818 0.622429 0.023537 0.214818
C7    C     C_R   0.166686 0.412437 0.169169 -0.041180
C8    C     C_R   0.834330 0.581450 0.830342 -0.026986
H5    H     H_    0.214576 0.505772 0.173155 0.202063
H6    H     H_    0.786538 0.487828 0.825836 0.216530
C9    C     C_R   0.095243 0.366597 0.276206 -0.008349
C10   C     C_R   0.905427 0.627749 0.723353 -0.019838
C11   C     C_R   0.033447 0.243242 0.263268 0.221869
C12   C     C_R   0.967498 0.750786 0.736432 0.194606
C13   C     C_R   0.015507 0.187377 0.132960 0.241439
C14   C     C_R   0.986824 0.805618 0.866752 0.257723
C15   C     C_R   0.094284 0.230824 0.030856 -0.008210
C16   C     C_R   0.908212 0.762317 0.969129 0.009949
C17   C     C_R   0.939303 0.486979 0.378856 0.390475
C18   C     C_R   0.060852 0.508033 0.620387 0.347341
C19   C     C_R   0.874220 0.514955 0.497274 -0.090358
C20   C     C_R   0.126060 0.481560 0.501993 -0.118827
C21   C     C_R   0.941715 0.539936 0.615313 -0.041699
C22   C     C_R   0.058542 0.455037 0.384009 -0.076707
C23   C     C_R   0.398861 0.054158 0.458408 -0.141195
C24   C     C_R   0.600191 0.945801 0.542731 -0.146477
H7    H     H_    0.319852 0.097418 0.431203 0.222313
H8    H     H_    0.679341 0.902738 0.569893 0.222206
C25   C     C_R   0.393916 0.924099 0.460593 0.432905
C26   C     C_R   0.604915 0.075853 0.540981 0.338448
C27   C     C_R   0.495367 0.870284 0.504513 -0.146854
C28   C     C_R   0.503725 0.129591 0.496214 -0.169477
C29   C     C_R   0.471234 0.390026 0.066915 0.312226
C30   C     C_R   0.529498 0.609786 0.933024 0.305045
C31   C     C_R   0.476521 0.391196 0.922174 0.246467
C32   C     C_R   0.524083 0.608770 0.077818 0.256317
N1    N     N_R   0.500030 0.500030 0.852070 -0.289394
N2    N     N_R   0.499970 0.499970 0.147930 -0.286140
N3    N     N_R   0.460646 0.272652 0.850950 0.203131
O9    O     O_R   0.356867 0.232765 0.797418 -0.254608
O10   O     O_R   0.541854 0.194931 0.859847 -0.251315
N4    N     N_R   0.542052 0.727252 0.149133 0.205898
O11   O     O_R   0.646037 0.764691 0.203437 -0.257470
O12   O     O_R   0.463037 0.807253 0.139525 -0.250019
N5    N     N_R   0.005881 0.170169 0.380015 0.202241
O13   O     O_R   0.046067 0.212600 0.496701 -0.254477
O14   O     O_R   0.966307 0.051457 0.366909 -0.171349
N6    N     N_R   0.994827 0.824486 0.620160 0.198653
O15   O     O_R   0.956143 0.781762 0.502985 -0.279235
O16   O     O_R   0.030376 0.944085 0.634475 -0.162124
N7    N     N_R   0.911560 0.098985 0.100074 0.161014
O17   O     O_R   0.896388 0.055266 0.977348 -0.314140
O18   O     O_R   0.818023 0.089213 0.179613 -0.270463
N8    N     N_R   0.091695 0.893077 0.898665 0.157190
O19   O     O_R   0.108854 0.935941 0.021440 -0.326204
O20   O     O_R   0.183777 0.903499 0.816953 -0.243894
S1    S     S_3+6 0.891333 0.535523 0.224738 -0.011193
O21   O     O_2   0.835624 0.655015 0.253336 -0.230873
O22   O     O_2   0.994845 0.564686 0.129749 -0.326418
O23   O     O_3   0.789673 0.425096 0.154082 -0.523877
H9    H     H_    0.838170 0.362393 0.110763 0.375432
S2    S     S_3+6 0.108088 0.456657 0.773935 0.020964
O24   O     O_2   0.003484 0.424416 0.866593 -0.283750
O25   O     O_2   0.165672 0.338628 0.743185 -0.222084
O26   O     O_3   0.207817 0.566266 0.849067 -0.519212
H10   H     H_    0.184339 0.647925 0.822068 0.370296
S3    S     S_3+6 0.256280 0.833002 0.422320 0.076093
O27   O     O_2   0.217976 0.758888 0.542483 -0.323645
O28   O     O_2   0.162267 0.917256 0.390631 -0.176086
O29   O     O_3   0.270850 0.733744 0.290489 -0.500382
H11   H     H_    0.188117 0.714297 0.254649 0.394818
S4    S     S_3+6 0.742600 0.167662 0.579220 0.100665
O30   O     O_2   0.727013 0.259595 0.693626 -0.232257
O31   O     O_2   0.836129 0.084984 0.616641 -0.136745
O32   O     O_3   0.788736 0.247526 0.443651 -0.545764
H12   H     H_    0.728860 0.221208 0.372912 0.367819
S5    S     S_3+6 0.420999 0.237379 0.133444 0.063887
O33   O     O_2   0.530162 0.180701 0.179954 -0.227632
O34   O     O_2   0.331356 0.249229 0.245087 -0.345917
O35   O     O_3   0.349397 0.130641 0.025367 -0.430260
H13   H     H_    0.343048 0.050138 0.071666 0.426358
S6    S     S_3+6 0.582284 0.761468 0.866167 0.065904
O36   O     O_2   0.670791 0.747574 0.753769 -0.346650
O37   O     O_2   0.474264 0.820658 0.820518 -0.206935
O38   O     O_3   0.656407 0.866514 0.974090 -0.433435
H14   H     H_    0.661877 0.947727 0.929228 0.427795

loop_
_geom_bond_atom_site_label_1
_geom_bond_atom_site_label_2
_geom_bond_distance
_ccdc_geom_bond_type
C31   N3    1.424360 S    
C2    C27   1.442159 S    
C11   C13   1.417745 A    
C18   C21   1.408624 A    
S2    O26   1.683769 S    
S3    O27   1.499054 D    
C29   C31   1.447950 A    
N3    O9    1.300821 A    
O5    C3    1.345703 A    
C6    C16   1.392602 A    
O1    C1    1.322435 A    
C3    C20   1.511424 S    
C19   C21   1.407139 A    
S2    O25   1.498903 D    
S4    O31   1.500298 D    
S6    O38   1.681352 S    
N4    O11   1.300663 A    
O4    Cu1   1.953025 S    
N6    O16   1.300878 A    
C17   C19   1.419430 A    
Cu1   N1    2.113425 S    
C30   N1    1.409532 A    
Cu2   N2    2.113425 S    
N8    O19   1.301219 A    
C31   N1    1.383673 A    
S6    O37   1.504779 D    
C32   N2    1.384034 A    
C18   C20   1.416293 A    
C24   H8    1.081720 S    
N5    O13   1.300468 A    
Cu1   Cu2   2.812285 S    
O2    C2    1.323470 A    
C26   S4    1.764920 S    
S3    O28   1.500849 D    
C26   C28   1.406935 A    
N3    O10   1.301570 A    
C24   C27   1.392830 A    
N5    O14   1.300720 A    
O23   H9    0.990446 S    
S2    O24   1.498882 D    
O4    C2    1.335041 A    
S5    O33   1.504667 D    
S1    O22   1.499178 D    
S4    O30   1.499121 D    
C23   C25   1.389148 A    
N7    O18   1.300686 A    
S4    O32   1.677750 S    
C5    C7    1.384303 A    
O7    Cu2   2.018486 S    
N6    O15   1.300488 A    
C9    C22   1.488705 S    
S5    O34   1.499461 D    
C25   C27   1.406929 A    
O38   H14   0.990739 S    
O5    Cu1   2.023605 S    
O6    C4    1.345024 A    
S6    O36   1.499558 D    
O29   H11   0.990186 S    
C4    C19   1.514511 S    
O7    C3    1.347184 A    
O3    Cu2   1.953025 S    
O8    C4    1.348950 A    
C23   C28   1.391684 A    
C13   N7    1.444350 S    
C7    H5    1.079294 S    
C5    C15   1.390403 A    
C8    H6    1.081573 S    
C9    C11   1.422364 A    
C20   C22   1.408498 A    
S3    O29   1.676357 S    
C7    C9    1.398598 A    
O6    Cu2   2.023604 S    
C30   S6    1.816988 S    
C6    C8    1.384220 A    
C29   S5    1.818717 S    
O3    C1    1.335892 A    
O8    Cu1   2.018484 S    
S1    O23   1.683443 S    
C10   C21   1.484540 S    
H1    C15   1.081651 S    
C29   N2    1.410261 A    
H2    C16   1.081522 S    
C1    C28   1.442420 S    
C10   C12   1.420656 A    
C17   C22   1.409913 A    
C12   C14   1.415556 A    
S1    O21   1.498707 D    
C13   C15   1.398594 A    
C11   N5    1.443291 S    
S5    O35   1.681404 S    
C14   C16   1.399065 A    
C25   S3    1.761118 S    
C30   C32   1.448449 A    
C5    H3    1.071549 S    
N4    O12   1.301570 A    
C6    H4    1.071651 S    
O35   H13   0.990762 S    
O2    Cu2   1.935188 S    
C32   N4    1.425135 S    
C17   S1    1.754283 S    
O26   H10   0.989050 S    
C24   C26   1.389011 A    
O1    Cu1   1.935188 S    
C23   H7    1.081596 S    
N8    O20   1.301546 A    
N7    O17   1.301085 A    
C8    C10   1.397810 A    
O32   H12   0.988779 S    
C14   N8    1.444378 S    
C18   S2    1.757734 S    
C12   N6    1.442711 S    
