data_mof_unit_48375.cif
_audit_creation_date              2012-12-10T21:29:43-0500
_audit_creation_method            fapswitch 2.2
_symmetry_space_group_name_H-M    P1
_symmetry_Int_Tables_number       1
_space_group_crystal_system       triclinic
_cell_length_a                    10.60343
_cell_length_b                    16.043818
_cell_length_c                    16.874181
_cell_angle_alpha                 88.041567
_cell_angle_beta                  89.944181
_cell_angle_gamma                 92.128802
_cell_volume                      2866.96322159

loop_
_atom_site_label
_atom_site_type_symbol
_atom_type_description
_atom_site_fract_x
_atom_site_fract_y
_atom_site_fract_z
_atom_type_partial_charge
C1    C     C_R   0.502175 0.489081 0.652970 0.869488
C2    C     C_R   0.570369 0.527042 0.099617 0.327374
C3    C     C_R   0.533782 0.400172 0.859785 -0.191729
C4    C     C_R   0.548640 0.599463 0.140318 -0.192084
C5    C     C_R   0.511404 0.405112 0.778717 -0.223243
C6    C     C_R   0.525097 0.594719 0.221342 -0.221331
C7    C     C_R   0.426868 0.762160 0.470885 0.016993
C8    C     C_R   0.573401 0.237880 0.528904 0.016096
C9    C     C_R   0.431554 0.849543 0.472252 -0.230979
C10   C     C_R   0.568758 0.150494 0.527561 -0.231461
C11   C     C_R   0.528961 0.891174 0.514157 0.317972
C12   C     C_R   0.503607 0.510889 0.347023 0.870375
C13   C     C_R   0.471122 0.108821 0.485894 0.317396
C14   C     C_R   0.618594 0.842683 0.553316 -0.309691
C15   C     C_R   0.381227 0.157268 0.446944 -0.309788
C16   C     C_R   0.739678 0.500651 0.487392 0.890791
C17   C     C_R   0.260100 0.499386 0.512200 0.894273
C18   C     C_R   0.610195 0.755451 0.550507 -0.010783
C19   C     C_R   0.389577 0.244500 0.449733 -0.009911
C20   C     C_R   0.881987 0.348327 0.454160 -0.194557
C21   C     C_R   0.117428 0.651957 0.544221 -0.195241
C22   C     C_R   0.932823 0.271097 0.473846 0.528417
C23   C     C_R   0.520383 0.482770 0.738093 -0.029543
C24   C     C_R   0.066444 0.729117 0.524388 0.527604
C25   C     C_R   0.040993 0.270399 0.522713 -0.315805
C26   C     C_R   0.958222 0.729642 0.475567 -0.316002
C27   C     C_R   0.100972 0.345273 0.543515 -0.189138
C28   C     C_R   0.898326 0.654685 0.454965 -0.187857
C29   C     C_R   0.054672 0.422876 0.517108 0.092198
C30   C     C_R   0.944891 0.577194 0.481434 0.092026
C31   C     C_R   0.936456 0.424068 0.481253 0.005685
C32   C     C_R   0.063144 0.576090 0.517258 0.004557
C33   C     C_R   0.123910 0.499202 0.524556 -0.214749
C34   C     C_R   0.523471 0.517018 0.261960 -0.034439
C35   C     C_R   0.875652 0.500895 0.474240 -0.212624
C36   C     C_3   0.928809 0.124931 0.462019 0.079138
C37   C     C_3   0.857778 0.054686 0.420757 -0.809203
C38   C     C_3   0.069762 0.875248 0.536372 0.079199
C39   C     C_3   0.140555 0.945575 0.577658 -0.808930
C40   C     C_R   0.555114 0.554839 0.778509 -0.226630
C41   C     C_R   0.549238 0.444711 0.221630 -0.232834
C42   C     C_R   0.578101 0.549837 0.858945 -0.163210
C43   C     C_R   0.573387 0.449517 0.141222 -0.161012
C44   C     C_R   0.564976 0.472345 0.900519 0.327659
H1    H     H_    0.916999 0.786775 0.454221 0.129687
H2    H     H_    0.199341 0.651929 0.582470 0.177345
H3    H     H_    0.183498 0.342010 0.581074 0.171531
H4    H     H_    0.815548 0.657751 0.417596 0.172617
H5    H     H_    0.551353 0.384246 0.252118 0.169497
H6    H     H_    0.565260 0.615272 0.748055 0.166329
H7    H     H_    0.591767 0.392340 0.111665 0.150464
H8    H     H_    0.603654 0.606868 0.888504 0.149793
H9    H     H_    0.523478 0.340421 0.891441 0.139509
H10   H     H_    0.546283 0.659255 0.108638 0.139444
H11   H     H_    0.486291 0.348616 0.748125 0.159918
H12   H     H_    0.082070 0.213194 0.543999 0.129301
H13   H     H_    0.507165 0.651394 0.251889 0.160355
H14   H     H_    0.647837 0.269717 0.561169 0.139931
H15   H     H_    0.352612 0.730355 0.438439 0.138584
H16   H     H_    0.926548 0.110143 0.526929 0.136380
H17   H     H_    0.027620 0.127744 0.439323 0.140103
H18   H     H_    0.859907 0.066647 0.355547 0.257837
H19   H     H_    0.902428 0.994476 0.434779 0.187400
H20   H     H_    0.758175 0.050131 0.441095 0.270207
H21   H     H_    0.971069 0.872076 0.559277 0.139843
H22   H     H_    0.071585 0.890222 0.471493 0.136445
H23   H     H_    0.640698 0.116405 0.558835 0.153785
H24   H     H_    0.239984 0.950559 0.557013 0.269991
H25   H     H_    0.095313 0.005654 0.563982 0.187096
H26   H     H_    0.139009 0.933378 0.642839 0.258265
H27   H     H_    0.359835 0.883661 0.440797 0.153803
H28   H     H_    0.694893 0.872420 0.585815 0.141652
H29   H     H_    0.304746 0.127495 0.414633 0.142164
H30   H     H_    0.679861 0.718468 0.580717 0.144991
H31   H     H_    0.319682 0.281441 0.419703 0.148220
H32   H     H_    0.799896 0.348558 0.416047 0.174784
N1    N     N_2   0.571763 0.465380 0.983786 -0.207383
N2    N     N_2   0.577842 0.533869 0.016345 -0.207708
N3    N     N_R   0.515300 0.716920 0.509720 -0.098535
N4    N     N_R   0.484700 0.283080 0.490280 -0.099659
N5    N     N_2   0.540796 0.980176 0.518774 -0.201553
N6    N     N_2   0.459316 0.019819 0.481290 -0.201729
O1    O     O_R   0.494530 0.422540 0.612660 -0.628655
O2    O     O_3   0.130247 0.799721 0.552911 -0.619317
O3    O     O_R   0.505470 0.577460 0.387340 -0.628644
O4    O     O_R   0.504350 0.561840 0.618900 -0.622704
O5    O     O_R   0.495650 0.438160 0.381100 -0.622379
O6    O     O_R   0.678310 0.430340 0.496890 -0.624361
O7    O     O_R   0.321690 0.569660 0.503110 -0.622756
O8    O     O_R   0.688140 0.569650 0.503130 -0.621662
O9    O     O_R   0.311860 0.430350 0.496870 -0.620042
O10   O     O_3   0.868938 0.200612 0.445139 -0.619964
Zn1   Zn    Zn3+2 0.493440 0.406980 0.495830 0.937497
Zn2   Zn    Zn3+2 0.506560 0.593020 0.504170 0.937816

loop_
_geom_bond_atom_site_label_1
_geom_bond_atom_site_label_2
_ccdc_geom_bond_type
C16   O8    A    
C27   C29   A    
C39   H24   S    
C14   C18   A    
C17   O9    A    
C25   H12   S    
C37   H18   S    
N1    N2    D    
C11   N5    S    
C15   C19   A    
C17   C33   S    
C12   O3    A    
C36   C37   S    
C24   C26   A    
C16   C35   S    
C38   C39   S    
C11   C14   A    
C23   C40   A    
O1    Zn1   S    
C29   C33   A    
C20   H32   S    
C7    H15   S    
O7    Zn2   S    
O4    Zn2   S    
C26   H1    S    
C8    H14   S    
C28   H4    S    
C38   H22   S    
C18   N3    A    
C22   C25   A    
C38   O2    S    
C36   O10   S    
C40   C42   A    
C18   H30   S    
C41   C43   A    
C6    H13   S    
C34   C41   A    
C42   C44   A    
C41   H5    S    
C37   H19   S    
O8    Zn2   S    
C21   C32   A    
C16   O6    A    
C3    C44   A    
C17   O7    A    
N3    Zn2   S    
C4    C6    A    
C36   H16   S    
C10   H23   S    
C13   N6    S    
N5    N6    D    
C6    C34   A    
C2    C4    A    
C2    N2    S    
O9    Zn1   S    
O3    Zn2   S    
C5    C23   A    
C38   H21   S    
C2    C43   A    
C39   H25   S    
C9    C11   A    
C30   C35   A    
C15   H29   S    
C20   C22   A    
C1    C23   S    
C13   C15   A    
C31   C35   A    
C25   C27   A    
C12   C34   S    
C36   H17   S    
C37   H20   S    
C7    N3    A    
C21   H2    S    
C27   H3    S    
C1    O4    A    
C7    C9    A    
O6    Zn1   S    
C44   N1    S    
C12   O5    A    
C4    H10   S    
C14   H28   S    
C5    H11   S    
C9    H27   S    
C3    C5    A    
C10   C13   A    
C1    O1    A    
C26   C28   A    
C32   C33   A    
C28   C30   A    
C24   O2    S    
C29   C31   A    
C30   C32   A    
C3    H9    S    
C43   H7    S    
C40   H6    S    
O5    Zn1   S    
C19   H31   S    
C39   H26   S    
C19   N4    A    
C8    C10   A    
C21   C24   A    
C8    N4    A    
C22   O10   S    
N4    Zn1   S    
C42   H8    S    
C20   C31   A    
