data_mof_unit_43972.cif
_audit_creation_date              2013-03-05T15:54:37-0500
_audit_creation_method            fapswitch 2.2
_symmetry_space_group_name_H-M    P1
_symmetry_Int_Tables_number       1
_space_group_crystal_system       triclinic
_cell_length_a                    9.902879
_cell_length_b                    10.677271
_cell_length_c                    16.466672
_cell_angle_alpha                 93.178802
_cell_angle_beta                  84.977512
_cell_angle_gamma                 90.804721
_cell_volume                      1731.68769696

loop_
_atom_site_label
_atom_site_type_symbol
_atom_site_description
_atom_site_fract_x
_atom_site_fract_y
_atom_site_fract_z
_atom_type_partial_charge
O1    O     O_R   0.385310 0.683220 0.500000 -0.643493
O2    O     O_R   0.614640 0.683250 0.500010 -0.653590
C1    C     C_R   0.501210 0.739499 0.499129 0.829653
O3    O     O_R   0.371780 0.500010 0.615800 -0.638699
O4    O     O_R   0.601110 0.500030 0.615800 -0.606743
C2    C     C_R   0.481080 0.501053 0.654301 0.903244
Zn1   Zn    Zn3+2 0.346870 0.499980 0.499990 0.964165
Zn2   Zn    Zn3+2 0.653130 0.500020 0.500010 0.969780
O5    O     O_R   0.385360 0.316750 0.499990 -0.595403
O6    O     O_R   0.614690 0.316780 0.500000 -0.599996
O7    O     O_R   0.398890 0.499970 0.384200 -0.603066
O8    O     O_R   0.628220 0.499990 0.384200 -0.613894
C3    C     C_R   0.499914 0.260114 0.493651 0.967725
C4    C     C_R   0.519025 0.513526 0.347538 0.989327
C5    C     C_R   0.469669 0.526578 0.743085 -0.102531
C6    C     C_R   0.580239 0.509396 0.790326 -0.040060
C7    C     C_R   0.575564 0.564880 0.869430 -0.169408
C8    C     C_R   0.461521 0.632826 0.902811 0.178286
C9    C     C_R   0.349258 0.641030 0.857984 -0.139084
C10   C     C_R   0.353327 0.588836 0.778847 -0.190901
C11   C     C_R   0.431806 0.687143 0.168155 -0.128946
C12   C     C_R   0.420187 0.628600 0.241551 -0.210591
C13   C     C_R   0.655917 0.567273 0.219663 -0.144392
C14   C     C_R   0.666496 0.623067 0.144898 -0.186995
C15   C     C_R   0.552910 0.678600 0.117201 0.195954
C16   C     C_2   0.448472 0.676712 0.988984 -0.203975
C17   C     C_2   0.556802 0.704305 0.030369 -0.215102
C18   C     C_R   0.530841 0.564800 0.266726 -0.026183
H1    H     H_    0.324706 0.634690 0.278992 0.162464
H2    H     H_    0.744715 0.524478 0.239867 0.183395
H3    H     H_    0.655610 0.716180 0.997293 0.159569
H4    H     H_    0.258461 0.688775 0.884149 0.143930
H5    H     H_    0.344378 0.734883 0.150177 0.132600
H6    H     H_    0.266449 0.601375 0.744849 0.166294
H7    H     H_    0.348735 0.665281 0.020749 0.150475
H8    H     H_    0.658215 0.548831 0.906406 0.157541
H9    H     H_    0.761321 0.616888 0.106781 0.136797
H10   H     H_    0.361444 0.896121 0.598969 0.147813
C19   C     C_R   0.667299 0.855219 0.369476 -0.176405
H11   H     H_    0.677247 0.755083 0.370798 0.165458
C20   C     C_R   0.740816 0.911749 0.305737 -0.206754
H12   H     H_    0.805428 0.855832 0.261723 0.161803
C21   C     C_R   0.724000 0.038016 0.295115 -0.168304
H13   H     H_    0.773230 0.077459 0.240874 0.185327
C22   C     C_R   0.634743 0.110081 0.349099 0.311174
C23   C     C_R   0.572644 0.056971 0.421023 -0.028931
C24   C     C_R   0.583311 0.926734 0.428303 0.066158
C25   C     C_R   0.504639 0.871116 0.492642 -0.053925
C26   C     C_R   0.421681 0.940667 0.550221 -0.170045
H14   H     H_    0.360526 0.122194 0.595386 0.163605
C27   C     C_R   0.419903 0.068246 0.547500 -0.173606
C28   C     C_R   0.496754 0.126586 0.485250 -0.094276
H15   H     H_    0.885905 0.357416 0.407096 0.168799
C29   C     C_R   0.846476 0.666394 0.608144 -0.202309
H16   H     H_    0.739182 0.671214 0.609604 0.223952
C30   C     C_R   0.909298 0.747967 0.663165 -0.000261
C31   C     C_R   0.050071 0.746916 0.662502 -0.246170
H17   H     H_    0.101903 0.809032 0.704066 0.192453
C32   C     C_R   0.126633 0.665699 0.608410 -0.195331
H18   H     H_    0.233426 0.670683 0.611799 0.201519
C33   C     C_R   0.065657 0.581852 0.553402 0.190528
C34   C     C_R   0.921223 0.582029 0.553322 0.152157
N1    N     N_R   0.857140 0.501200 0.500750 -0.120252
C35   C     C_R   0.934687 0.421517 0.448829 -0.107684
H19   H     H_    0.136907 0.357527 0.407090 0.173738
C36   C     C_R   0.077907 0.421587 0.448827 -0.108692
N2    N     N_R   0.142740 0.501280 0.500770 -0.122855
C37   C     C_2   0.698321 0.429761 0.760850 0.922684
O9    O     O_2   0.810916 0.456794 0.782080 -0.631289
O10   O     O_R   0.680250 0.321598 0.710889 -0.787123
H20   H     H_    0.768149 0.275336 0.694995 0.353268
N3    N     N_R   0.590439 0.226072 0.321613 0.175333
O11   O     O_R   0.460904 0.243760 0.320255 -0.422783
O12   O     O_R   0.674009 0.290943 0.274685 -0.451408
C38   C     C_2   0.827946 0.834206 0.721524 0.927704
O13   O     O_2   0.704159 0.833730 0.723181 -0.642635
O14   O     O_R   0.892757 0.916299 0.775118 -0.805498
H21   H     H_    0.826539 0.970091 0.811838 0.354915

loop_
_geom_bond_atom_site_label_1
_geom_bond_atom_site_label_2
_geom_bond_distance
_ccdc_geom_bond_type
C12   H1    1.083320 S    
C20   H12   1.082905 S    
C9    C10   1.386085 A    
C8    C16   1.464790 S    
C21   H13   1.082813 S    
C19   C20   1.385660 A    
H10   C26   1.084871 S    
C22   C23   1.428144 A    
Zn1   O7    1.931006 S    
C16   C17   1.341252 D    
O4    C2    1.297137 A    
O7    C4    1.296087 A    
C31   C32   1.390964 A    
C11   H5    1.082158 S    
C5    C6    1.417151 A    
C23   C28   1.423080 A    
C1    C25   1.414972 S    
C30   C31   1.393338 A    
C8    C9    1.393581 A    
O5    C3    1.286474 A    
C2    C5    1.467028 S    
C29   H16   1.062595 S    
C37   O9    1.223439 D    
C26   C27   1.365817 A    
C13   C14   1.392320 A    
O10   H20   1.013913 S    
C6    C37   1.486174 S    
C7    H8    1.082949 S    
C10   H6    1.080468 S    
C36   N2    1.366715 A    
C32   H18   1.064331 S    
C30   C38   1.485765 S    
C12   C18   1.403033 A    
C11   C12   1.386379 A    
C22   N3    1.429454 S    
C20   C21   1.383295 A    
O3    Zn1   1.944176 S    
C9    H4    1.083826 S    
C14   H9    1.083542 S    
C5    C10   1.405481 A    
C29   C30   1.400874 A    
C32   C33   1.406133 A    
C17   H3    1.086744 S    
C27   C28   1.392418 A    
C13   H2    1.082634 S    
C14   C15   1.401209 A    
O3    C2    1.301020 A    
C19   H11   1.076675 S    
C6    C7    1.398024 A    
C29   C34   1.409201 A    
H14   C27   1.085029 S    
O14   H21   1.013970 S    
O1    C1    1.287364 A    
C35   C36   1.418280 A    
C38   O13   1.223708 D    
C34   N1    1.376556 A    
C3    C28   1.424928 S    
C21   C22   1.403292 A    
C33   N2    1.376164 A    
C24   C25   1.412195 A    
Zn2   O8    1.944176 S    
C7    C8    1.404990 A    
C13   C18   1.403110 A    
C38   O14   1.398794 S    
N3    O12   1.301186 A    
C25   C26   1.388528 A    
O8    C4    1.297315 A    
C19   C24   1.417015 A    
Zn1   O5    1.998430 S    
C11   C15   1.403206 A    
C23   C24   1.408571 A    
O1    Zn1   1.987930 S    
Zn2   O6    1.987930 S    
O2    Zn2   1.998428 S    
N3    O11   1.301519 A    
O6    C3    1.289710 A    
O4    Zn2   1.931006 S    
C15   C17   1.467925 S    
O2    C1    1.282753 A    
C31   H17   1.083233 S    
H15   C35   1.082000 S    
C33   C34   1.430455 A    
Zn2   N1    2.021247 S    
Zn1   N2    2.020628 S    
N1    C35   1.366484 A    
C16   H7    1.085010 S    
C37   O10   1.399006 S    
H19   C36   1.081823 S    
C4    C18   1.461473 S    
