data_mof_unit_29776.cif
_audit_creation_date              2012-10-26T17:13:06-0400
_audit_creation_method            fapswitch 2.2
_symmetry_space_group_name_H-M    P1
_symmetry_Int_Tables_number       1
_space_group_crystal_system       triclinic
_cell_length_a                    16.848685
_cell_length_b                    16.897121
_cell_length_c                    16.88573
_cell_angle_alpha                 67.627125
_cell_angle_beta                  67.974094
_cell_angle_gamma                 67.74046
_cell_volume                      3961.6369476

loop_
_atom_site_label
_atom_site_type_symbol
_atom_type_description
_atom_site_fract_x
_atom_site_fract_y
_atom_site_fract_z
_atom_type_partial_charge
C1    C     C_R   0.320956 0.966402 0.449626 0.001964
C2    C     C_R   0.324151 0.453938 0.943529 -0.001354
C3    C     C_R   0.552232 0.422873 0.952949 -0.001732
C4    C     C_R   0.036013 0.451287 0.580791 -0.001860
C5    C     C_R   0.020976 0.534918 0.406140 0.002298
C6    C     C_R   0.051359 0.677165 0.547358 0.001166
C7    C     C_R   0.012421 0.306454 0.436247 0.009441
C8    C     C_R   0.451483 0.998023 0.450523 0.019999
C9    C     C_R   0.539481 0.037263 0.538902 0.019776
C10   C     C_R   0.018617 0.445615 0.445729 0.018519
C11   C     C_R   0.038232 0.540557 0.540814 0.018692
C12   C     C_R   0.462515 0.462200 0.951816 0.018174
C13   C     C_R   0.557204 0.557459 0.971853 0.020511
C14   C     C_R   0.030694 0.828136 0.564137 0.809955
C15   C     C_R   0.676239 0.049878 0.546922 0.000148
C16   C     C_R   0.990872 0.166797 0.429356 0.814871
C17   C     C_R   0.830036 0.567606 0.018638 0.833492
C18   C     C_R   0.171887 0.436106 0.968934 0.786822
C19   C     C_R   0.566305 0.023046 0.829098 0.793513
C20   C     C_R   0.435506 0.971804 0.171989 0.823636
C21   C     C_R   0.436106 0.172013 0.968748 0.804370
C22   C     C_R   0.567389 0.829800 0.019300 0.823632
C23   C     C_R   0.990069 0.429654 0.167025 0.830921
C24   C     C_R   0.030915 0.563962 0.828186 0.789560
C25   C     C_R   0.172146 0.971498 0.435566 0.786191
C26   C     C_R   0.009170 0.437694 0.307292 0.010550
C27   C     C_R   0.829165 0.023279 0.566145 0.824415
C28   C     C_R   0.406895 0.978740 0.405945 0.070911
C29   C     C_R   0.587765 0.045176 0.587404 0.077048
C30   C     C_R   0.011064 0.397107 0.397001 0.069177
C31   C     C_R   0.046584 0.588606 0.588836 0.072994
C32   C     C_R   0.413469 0.413093 0.946613 0.073476
C33   C     C_R   0.603426 0.603917 0.986381 0.069859
C34   C     C_R   0.271974 0.956430 0.401967 -0.159042
C35   C     C_R   0.731716 0.032522 0.602042 -0.165108
C36   C     C_R   0.004190 0.387579 0.257763 -0.169426
C37   C     C_R   0.052963 0.546779 0.676915 -0.000140
C38   C     C_R   0.052122 0.597384 0.728357 -0.163206
C39   C     C_R   0.402950 0.272112 0.946567 -0.172489
C40   C     C_R   0.605166 0.735053 0.016595 -0.151071
C41   C     C_R   0.602269 0.032029 0.731635 -0.156988
C42   C     C_R   0.402195 0.957274 0.271342 -0.167455
C43   C     C_R   0.735418 0.606036 0.015184 -0.159407
C44   C     C_R   0.271954 0.402793 0.946778 -0.160628
C45   C     C_R   0.051555 0.728298 0.597721 -0.166555
C46   C     C_R   0.005501 0.257501 0.386896 -0.166954
C47   C     C_R   0.454329 0.061234 0.707341 -0.172734
C48   C     C_R   0.454697 0.324376 0.942459 0.003476
C49   C     C_R   0.541360 0.966073 0.285885 -0.157296
C50   C     C_R   0.060942 0.710000 0.454957 -0.157454
C51   C     C_R   0.028947 0.266075 0.520922 -0.164872
C52   C     C_R   0.736052 0.483056 0.964343 -0.168124
C53   C     C_R   0.291465 0.546506 0.932057 -0.164003
C54   C     C_R   0.289264 0.958902 0.541698 -0.166989
C55   C     C_R   0.706705 0.065782 0.453471 -0.171150
C56   C     C_R   0.547928 0.292833 0.928446 -0.166191
C57   C     C_R   0.477801 0.733551 0.972795 -0.165272
C58   C     C_R   0.020325 0.524768 0.268624 -0.157625
C59   C     C_R   0.561922 0.692470 0.991614 0.009184
C60   C     C_R   0.065546 0.453910 0.708846 -0.163818
C61   C     C_R   0.317585 0.941468 0.317282 0.112782
C62   C     C_R   0.695428 0.010275 0.695211 0.092074
C63   C     C_R   0.015589 0.295246 0.294969 0.081794
C64   C     C_R   0.063133 0.684033 0.684276 0.122519
C65   C     C_R   0.315724 0.315926 0.936566 0.123290
C66   C     C_R   0.685345 0.685133 0.040285 0.098153
C67   C     C_R   0.665009 0.047079 0.406952 -0.003236
C68   C     C_R   0.328108 0.985238 0.584521 -0.012828
C69   C     C_R   0.049719 0.407319 0.665921 -0.011519
C70   C     C_R   0.547383 0.048317 0.676291 -0.000413
C71   C     C_R   0.016881 0.575993 0.318198 -0.018596
C72   C     C_R   0.427347 0.685084 0.971982 -0.018575
C73   C     C_R   0.595973 0.337507 0.940174 -0.005710
C74   C     C_R   0.582778 0.995206 0.323627 -0.013162
C75   C     C_R   0.409551 0.039327 0.666587 -0.007900
C76   C     C_R   0.334339 0.592828 0.948142 -0.010387
C77   C     C_R   0.688664 0.431962 0.962345 -0.015248
C78   C     C_R   0.026953 0.314771 0.572471 -0.016682
C79   C     C_R   0.041972 0.668375 0.409679 -0.010061
C80   C     C_R   0.707606 0.039299 0.319279 0.116041
C81   C     C_R   0.449907 0.968893 0.319337 0.003014
C82   C     C_R   0.287526 0.990478 0.673179 0.114972
C83   C     C_R   0.045831 0.318283 0.706901 0.123904
C84   C     C_R   0.014007 0.666767 0.279253 0.114210
C85   C     C_R   0.336342 0.723517 0.975050 0.115571
C86   C     C_R   0.685838 0.297524 0.942314 0.117472
C87   C     C_R   0.668810 0.008274 0.279740 0.117895
C88   C     C_R   0.325036 0.023790 0.711636 0.118470
C89   C     C_R   0.290937 0.679461 0.958233 0.121344
C90   C     C_R   0.729737 0.342881 0.959578 0.114833
C91   C     C_R   0.029454 0.273921 0.661629 0.110306
C92   C     C_R   0.693200 0.564178 0.988297 0.005959
C93   C     C_R   0.031730 0.711873 0.322779 0.120024
C94   C     C_R   0.537532 0.010307 0.407486 -0.001596
C95   C     C_R   0.452864 0.027355 0.581129 -0.003088
C96   C     C_R   0.025873 0.404316 0.533434 0.001323
C97   C     C_R   0.031758 0.581950 0.452867 -0.000847
C98   C     C_R   0.421369 0.550384 0.957120 -0.001601
C99   C     C_R   0.599186 0.470554 0.962906 0.001713
C100  C     C_R   0.580707 0.031468 0.450999 -0.001962
C101  C     C_R   0.409795 0.005676 0.537976 -0.001874
C102  C     C_R   0.468449 0.597355 0.967658 0.002168
Cu1   Cu    Cu3+1 0.995180 0.995180 0.424630 1.073096
Cu2   Cu    Cu3+1 0.004820 0.004820 0.575370 1.071103
Cu3   Cu    Cu3+1 0.995180 0.424630 0.995180 1.071749
Cu4   Cu    Cu3+1 0.004820 0.575370 0.004820 1.073994
Cu5   Cu    Cu3+1 0.424630 0.995180 0.995180 1.077198
Cu6   Cu    Cu3+1 0.575370 0.004820 0.004820 1.072979
H1    H     H_    0.416294 0.087145 0.763353 0.206715
H2    H     H_    0.450767 0.803865 0.950922 0.202015
H3    H     H_    0.045330 0.551348 0.198611 0.198585
H4    H     H_    0.093529 0.416100 0.764155 0.203765
H5    H     H_    0.583501 0.934160 0.234767 0.204847
H6    H     H_    0.089133 0.764798 0.415950 0.201123
H7    H     H_    0.055881 0.195613 0.544371 0.196355
H8    H     H_    0.806717 0.459917 0.939515 0.198379
H9    H     H_    0.235232 0.584465 0.905412 0.203876
H10   H     H_    0.237782 0.926732 0.582106 0.207269
H11   H     H_    0.762993 0.091813 0.416500 0.196368
H12   H     H_    0.584546 0.235844 0.903509 0.191838
I1    I     I_    0.271201 0.868692 0.271337 -0.244851
I2    I     I_    0.989124 0.154169 0.732036 -0.179408
I3    I     I_    0.844961 0.270348 0.007771 -0.172767
I4    I     I_    0.154505 0.740513 0.957319 -0.171362
I5    I     I_    0.172094 0.944284 0.751416 -0.181571
I6    I     I_    0.832975 0.069507 0.247740 -0.182683
I7    I     I_    0.755391 0.167651 0.923346 -0.187651
I8    I     I_    0.263517 0.835223 0.028198 -0.164999
I9    I     I_    0.963945 0.738856 0.164776 -0.161831
I10   I     I_    0.060180 0.251070 0.838201 -0.168365
I11   I     I_    0.779313 0.911667 0.779225 -0.233842
I12   I     I_    0.084005 0.208619 0.208649 -0.203513
I13   I     I_    0.129093 0.733769 0.734229 -0.265449
I14   I     I_    0.265921 0.266338 0.870803 -0.272061
I15   I     I_    0.717943 0.716581 0.134984 -0.244395
I16   I     I_    0.257110 0.043349 0.840863 -0.173650
I17   I     I_    0.740503 0.982550 0.152826 -0.165214
I18   I     I_    0.036832 0.847129 0.258746 -0.158902
O1    O     O_R   0.124540 0.978640 0.385460 -0.536184
O2    O     O_R   0.124540 0.385460 0.978640 -0.535886
O3    O     O_R   0.021360 0.875460 0.614540 -0.530424
O4    O     O_R   0.978640 0.124540 0.385460 -0.542529
O5    O     O_R   0.013780 0.867370 0.487190 -0.591326
O6    O     O_R   0.986220 0.132630 0.512810 -0.597378
O7    O     O_R   0.867370 0.487190 0.013780 -0.595800
O8    O     O_R   0.132630 0.512810 0.986220 -0.603784
O9    O     O_R   0.487190 0.013780 0.867370 -0.603973
O10   O     O_R   0.512810 0.986220 0.132630 -0.593291
O11   O     O_R   0.512810 0.132630 0.986220 -0.590815
O12   O     O_R   0.875460 0.021360 0.614540 -0.531890
O13   O     O_R   0.487190 0.867370 0.013780 -0.599633
O14   O     O_R   0.986220 0.512810 0.132630 -0.593101
O15   O     O_R   0.013780 0.487190 0.867370 -0.601540
O16   O     O_R   0.132630 0.986220 0.512810 -0.606734
O17   O     O_R   0.867370 0.013780 0.487190 -0.590921
O18   O     O_R   0.978640 0.385460 0.124540 -0.534425
O19   O     O_R   0.021360 0.614540 0.875460 -0.538086
O20   O     O_R   0.385460 0.124540 0.978640 -0.532853
O21   O     O_R   0.614540 0.875460 0.021360 -0.534252
O22   O     O_R   0.614540 0.021360 0.875460 -0.544849
O23   O     O_R   0.385460 0.978640 0.124540 -0.526725
O24   O     O_R   0.875460 0.614540 0.021360 -0.526686

loop_
_geom_bond_atom_site_label_1
_geom_bond_atom_site_label_2
_ccdc_geom_bond_type
Cu3   O15   S    
C23   O14   A    
C6    C45   A    
C56   H12   S    
C21   O20   A    
C74   C94   A    
C17   O7    A    
C50   C79   A    
C72   C85   A    
C75   C95   A    
C82   I5    S    
Cu6   O21   S    
C55   H11   S    
C80   I6    S    
C60   H4    S    
C19   O22   A    
C61   I1    S    
C16   O6    A    
C79   C93   A    
C80   C87   A    
C18   C44   S    
C53   H9    S    
C58   C71   A    
C57   C59   A    
C54   C68   A    
C22   O21   A    
C76   C98   A    
C84   I9    S    
Cu6   O11   S    
C2    C32   A    
C90   I3    S    
Cu2   O12   S    
C93   I18   S    
C4    C96   A    
C78   C96   A    
Cu5   O23   S    
C2    C44   A    
C91   I2    S    
C1    C28   A    
C24   C38   S    
Cu5   Cu6   S    
C20   O10   A    
C3    C12   A    
C10   C96   A    
C74   C87   A    
C35   C62   A    
C36   C63   A    
C8    C101  A    
C9    C95   A    
C12   C98   A    
C65   I14   S    
C9    C29   A    
C25   C34   S    
Cu5   O13   S    
C6    C31   A    
C25   O16   A    
C14   O3    A    
C11   C31   A    
C33   C59   A    
C7    C30   A    
C40   C66   A    
C23   O18   A    
C12   C32   A    
C39   C65   A    
C44   C65   A    
C42   C81   A    
C41   C62   A    
C87   I17   S    
C15   C35   A    
C4    C69   A    
C1    C34   A    
C15   C29   A    
C14   C45   S    
C38   C64   A    
C52   H8    S    
C27   O17   A    
C77   C90   A    
Cu4   O14   S    
C58   H3    S    
C7    C46   A    
C8    C94   A    
C68   C101  A    
C88   I16   S    
C83   I10   S    
C86   C90   A    
C33   C92   A    
C16   C46   S    
C86   I7    S    
C85   C89   A    
C24   O19   A    
C27   C35   S    
C47   H1    S    
C34   C61   A    
C51   H7    S    
C31   C37   A    
C50   H6    S    
C15   C55   A    
C13   C99   A    
C16   O4    A    
C1    C54   A    
C17   C43   S    
C47   C70   A    
C13   C33   A    
C37   C38   A    
C69   C83   A    
Cu1   O1    S    
Cu5   O9    S    
C10   C30   A    
C55   C67   A    
C57   H2    S    
C21   C39   S    
C94   C100  A    
C22   C40   S    
Cu2   O6    S    
C49   H5    S    
C63   I12   S    
C6    C50   A    
C4    C11   A    
C18   O2    A    
C26   C58   A    
C42   C61   A    
C67   C100  A    
Cu1   O17   S    
C5    C97   A    
C26   C30   A    
C27   O12   A    
C21   O11   A    
C54   H10   S    
C8    C28   A    
C52   C92   A    
C53   C76   A    
C22   O13   A    
C52   C77   A    
Cu1   O4    S    
Cu5   O20   S    
C24   O15   A    
C71   C84   A    
C26   C36   A    
C48   C56   A    
C64   I13   S    
C56   C73   A    
C25   O1    A    
C28   C81   A    
C49   C74   A    
C62   I11   S    
C79   C97   A    
C67   C80   A    
C18   O8    A    
C2    C53   A    
Cu1   O5    S    
C20   C42   S    
Cu6   O22   S    
C89   I4    S    
C78   C91   A    
C9    C100  A    
Cu4   O19   S    
C83   C91   A    
Cu3   Cu4   S    
C76   C89   A    
C45   C64   A    
C95   C101  A    
C43   C92   A    
Cu4   O8    S    
C46   C63   A    
C11   C97   A    
C68   C82   A    
C14   O5    A    
C51   C78   A    
C7    C51   A    
C5    C10   A    
C5    C71   A    
C98   C102  A    
Cu3   O2    S    
C32   C48   A    
C72   C102  A    
C60   C69   A    
C43   C66   A    
C82   C88   A    
C20   O23   A    
C77   C99   A    
C29   C70   A    
C49   C81   A    
C84   C93   A    
Cu4   O24   S    
C57   C72   A    
C3    C73   A    
C19   O9    A    
C73   C86   A    
C37   C60   A    
C17   O24   A    
C47   C75   A    
C66   I15   S    
C3    C99   A    
C75   C88   A    
Cu3   O18   S    
C23   C36   S    
Cu1   Cu2   S    
C40   C59   A    
Cu2   O3    S    
C41   C70   A    
C85   I8    S    
Cu2   O16   S    
C13   C102  A    
Cu3   O7    S    
C19   C41   S    
C39   C48   A    
Cu6   O10   S    
