data_mof_unit_5208.cif
_audit_creation_date              2012-12-11T14:27:16-0500
_audit_creation_method            fapswitch 2.2
_symmetry_space_group_name_H-M    P1
_symmetry_Int_Tables_number       1
_space_group_crystal_system       triclinic
_cell_length_a                    8.183489
_cell_length_b                    14.937791
_cell_length_c                    15.069905
_cell_angle_alpha                 97.478066
_cell_angle_beta                  99.106935
_cell_angle_gamma                 97.672377
_cell_volume                      1781.01706687

loop_
_atom_site_label
_atom_site_type_symbol
_atom_type_description
_atom_site_fract_x
_atom_site_fract_y
_atom_site_fract_z
_atom_type_partial_charge
Ba1   Ba    Ba6+2 0.154720 0.543770 0.458160 1.639140
Ba2   Ba    Ba6+2 0.655440 0.456220 0.541760 1.646596
C1    C     C_3   0.380158 0.770560 0.129305 -0.378319
C2    C     C_R   0.888122 0.792582 0.526397 0.023784
C3    C     C_R   0.075328 0.232077 0.518780 -0.302360
C4    C     C_3   0.916563 0.790785 0.269783 0.359259
C5    C     C_R   0.175869 0.171585 0.551571 0.016100
C6    C     C_R   0.111182 0.079114 0.543493 -0.137919
C7    C     C_R   0.944505 0.044040 0.498920 -0.023256
C8    C     C_R   0.846512 0.105526 0.456772 -0.026124
C9    C     C_R   0.873070 0.949537 0.494247 0.012473
C10   C     C_R   0.702305 0.919793 0.453309 -0.055705
C11   C     C_R   0.611616 0.980438 0.412331 -0.125093
C12   C     C_3   0.386781 0.738606 0.221300 0.355764
C13   C     C_R   0.684843 0.068016 0.405727 0.204300
C14   C     C_R   0.964440 0.883269 0.529194 -0.142991
C15   C     C_R   0.721802 0.765584 0.484858 -0.280354
C16   C     C_3   0.944773 0.886169 0.244269 -0.374515
C17   C     C_R   0.914268 0.201413 0.469215 0.058148
C18   C     C_R   0.225108 0.479874 0.767357 -0.251976
C19   C     C_R   0.127137 0.445578 0.826334 0.021100
C20   C     C_R   0.192536 0.455413 0.919623 -0.138786
C21   C     C_R   0.359129 0.500266 0.955334 0.016026
C22   C     C_R   0.453449 0.535626 0.892777 -0.120407
C23   C     C_3   0.608579 0.739338 0.681900 0.330008
C24   C     C_R   0.386722 0.525368 0.800377 0.018444
C25   C     C_R   0.599111 0.557885 0.090218 -0.134789
C26   C     C_R   0.668079 0.567928 0.182365 0.009066
C27   C     C_R   0.413107 0.485643 0.211999 0.066351
C28   C     C_3   0.723057 0.346300 0.264950 0.313527
C29   C     C_R   0.343560 0.473946 0.119105 -0.121455
C30   C     C_R   0.433497 0.511568 0.055821 0.003671
C31   C     C_R   0.572699 0.535344 0.243454 -0.285090
C32   C     C_3   0.683763 0.322159 0.161716 -0.402369
C33   C     C_3   0.175793 0.775661 0.748804 0.482086
C34   C     C_3   0.691923 0.837824 0.719749 -0.036262
C35   C     C_3   0.144878 0.874615 0.768730 -0.352482
C36   C     C_3   0.213606 0.265444 0.331469 0.318442
C37   C     C_3   0.140207 0.165829 0.294939 -0.424868
C38   C     C_3   0.094587 0.709604 0.881897 -0.180059
C39   C     C_3   0.500372 0.938481 0.661930 -0.257001
C40   C     C_3   0.593250 0.078323 0.248218 -0.217688
C41   C     C_3   0.893599 0.213051 0.728749 0.351781
C42   C     C_3   0.895975 0.118965 0.756698 -0.387970
C43   C     C_3   0.419008 0.256849 0.777636 0.348334
C44   C     C_3   0.447780 0.228270 0.871351 -0.371414
C45   C     C_R   0.627394 0.828011 0.449332 0.004655
H1    H     H_    0.290136 0.677217 0.214408 0.095899
H2    H     H_    0.322974 0.268327 0.386205 0.055442
H3    H     H_    0.255272 0.789579 0.106729 0.138499
H4    H     H_    0.017398 0.161879 0.249899 0.128364
H5    H     H_    0.122586 0.127199 0.351566 0.061396
H6    H     H_    0.225449 0.133256 0.255053 0.121895
H7    H     H_    0.512611 0.720146 0.241654 -0.053898
H8    H     H_    0.402410 0.714936 0.078331 0.076453
H9    H     H_    0.704713 0.701839 0.657404 0.014790
H10   H     H_    0.505330 0.737807 0.623998 0.018884
H11   H     H_    0.770539 0.865671 0.673094 0.020965
H12   H     H_    0.569414 0.269878 0.140590 0.114087
H13   H     H_    0.776604 0.836283 0.784581 0.087179
H14   H     H_    0.478339 0.830897 0.134202 0.108152
H15   H     H_    0.923392 0.937231 0.299977 0.071823
H16   H     H_    0.785548 0.208723 0.672844 0.100141
H17   H     H_    0.011484 0.232813 0.703565 -0.051780
H18   H     H_    0.779357 0.097159 0.782350 0.135953
H19   H     H_    0.904760 0.068501 0.697348 0.073943
H20   H     H_    0.005823 0.120874 0.811042 0.113367
H21   H     H_    0.287616 0.269351 0.762183 -0.059700
H22   H     H_    0.505302 0.321336 0.779721 0.093694
H23   H     H_    0.662490 0.383319 0.130092 0.071844
H24   H     H_    0.423683 0.282997 0.922781 0.074133
H25   H     H_    0.579342 0.216582 0.889515 0.143532
H26   H     H_    0.004688 0.789882 0.333531 0.098923
H27   H     H_    0.361580 0.164331 0.871888 0.108001
H28   H     H_    0.664503 0.695394 0.481673 0.072217
H29   H     H_    0.483140 0.959242 0.378696 0.111521
H30   H     H_    0.095554 0.899404 0.557902 0.081779
H31   H     H_    0.126878 0.303932 0.528097 0.068100
H32   H     H_    0.194220 0.036845 0.573478 0.068192
H33   H     H_    0.680438 0.585430 0.047683 0.073631
H34   H     H_    0.790540 0.294845 0.136519 0.128501
H35   H     H_    0.110561 0.427888 0.962070 0.076423
H36   H     H_    0.221054 0.433456 0.098226 0.080639
H37   H     H_    0.786146 0.776602 0.281969 -0.063395
H38   H     H_    0.578285 0.573056 0.912995 0.069834
H39   H     H_    0.627210 0.543082 0.314807 0.070091
H40   H     H_    0.173881 0.473230 0.695636 0.078882
H41   H     H_    0.075374 0.903217 0.232850 0.144774
H42   H     H_    0.856248 0.889644 0.181290 0.106895
H43   H     H_    0.611871 0.366548 0.289967 0.006881
H44   H     H_    0.829109 0.403709 0.283897 0.070215
H45   H     H_    0.281210 0.775359 0.711082 0.072401
H46   H     H_    0.316739 0.702797 0.834601 0.187832
H47   H     H_    0.151263 0.697039 0.950126 0.089332
H48   H     H_    0.023578 0.643672 0.843395 0.128250
H49   H     H_    0.007306 0.759522 0.890846 0.106807
H50   H     H_    0.607973 0.942884 0.796870 0.202949
H51   H     H_    0.408104 0.981300 0.682865 0.122184
H52   H     H_    0.435313 0.885191 0.604840 0.134074
H53   H     H_    0.600845 0.982729 0.639156 0.123889
H54   H     H_    0.475199 0.118533 0.354565 0.197059
H55   H     H_    0.529233 0.121328 0.203536 0.121245
H56   H     H_    0.096616 0.900070 0.705923 0.047345
H57   H     H_    0.524576 0.007185 0.230502 0.089235
H58   H     H_    0.723432 0.079389 0.235382 0.114448
H59   H     H_    0.264137 0.919281 0.801872 0.103247
H60   H     H_    0.054649 0.881564 0.815611 0.096643
H61   H     H_    0.116639 0.299616 0.359198 0.013814
N1    N     N_2   0.226133 0.744097 0.835158 -0.430498
N2    N     N_2   0.569557 0.896584 0.737739 -0.430917
N3    N     N_2   0.594604 0.114088 0.342495 -0.382532
O1    O     O_2   0.174040 0.723040 0.553850 -0.488267
O2    O     O_2   0.781293 0.435501 0.818200 -0.488004
O3    O     O_3   0.877335 0.275610 0.803812 -0.605366
O4    O     O_3   0.901550 0.609570 0.550800 -0.451448
O5    O     O_3   0.408230 0.452130 0.390190 -0.491775
O6    O     O_2   0.675480 0.547140 0.721810 -0.439542
O7    O     O_3   0.547099 0.700289 0.752034 -0.663143
O8    O     O_2   0.516391 0.173731 0.548664 -0.499947
O9    O     O_3   0.451210 0.187588 0.713124 -0.606123
O10   O     O_3   0.370320 0.665070 0.388210 -0.482963
O11   O     O_2   0.281518 0.823537 0.447145 -0.506266
O12   O     O_3   0.263810 0.306601 0.259975 -0.635201
O13   O     O_3   0.030656 0.717337 0.699815 -0.637900
O14   O     O_3   0.354527 0.808953 0.284370 -0.609505
O15   O     O_2   0.134800 0.452800 0.278160 -0.466014
O16   O     O_3   0.937630 0.618610 0.340820 -0.490766
O17   O     O_2   0.004660 0.558076 0.178824 -0.489822
O18   O     O_3   0.945642 0.726812 0.199183 -0.598731
O19   O     O_2   0.636250 0.276900 0.446120 -0.452413
O20   O     O_3   0.908740 0.390420 0.449120 -0.500838
O21   O     O_3   0.439970 0.334920 0.611710 -0.483394
O22   O     O_3   0.763980 0.268915 0.300603 -0.621591
O23   O     O_3   0.402050 0.547860 0.609740 -0.472289
O24   O     O_3   0.872650 0.381380 0.659100 -0.485895
P1    P     P_3+3 0.004160 0.709210 0.580280 0.975914
P2    P     P_3+3 0.305010 0.425580 0.290930 0.982682
P3    P     P_3+3 0.888967 0.616689 0.223839 0.944029
P4    P     P_3+3 0.806120 0.290780 0.419650 1.004157
P5    P     P_3+3 0.913926 0.386597 0.777594 0.962873
P6    P     P_3+3 0.408327 0.782920 0.394215 0.932290
P7    P     P_3+3 0.501986 0.581236 0.722869 0.950547
P8    P     P_3+3 0.395129 0.216161 0.604546 0.930933

loop_
_geom_bond_atom_site_label_1
_geom_bond_atom_site_label_2
_ccdc_geom_bond_type
C37   H4    S    
O15   P2    D    
O8    P8    D    
C42   H19   S    
C23   H9    S    
C28   H43   S    
C23   O7    S    
C5    P8    S    
C41   H16   S    
C5    C6    A    
C36   H2    S    
C43   C44   S    
Ba2   O23   S    
C12   O14   S    
Ba2   P4    S    
C20   H35   S    
C33   O13   S    
C33   C35   S    
C22   C24   A    
C35   H60   S    
C34   H11   S    
C8    C13   A    
C4    O18   S    
Ba1   O1    S    
C36   C37   S    
O4    P1    S    
C18   H40   S    
C27   C31   A    
C29   H36   S    
Ba1   Ba2   S    
Ba2   O4    S    
O17   P3    D    
C1    H8    S    
Ba2   O6    S    
O18   P3    S    
C15   C45   A    
O14   P6    S    
C6    C7    A    
C6    H32   S    
Ba2   O21   S    
C21   C22   A    
C39   H52   S    
O16   P3    S    
O3    P5    S    
Ba1   P1    S    
C7    C8    A    
C32   H23   S    
C44   H25   S    
C36   O12   S    
C33   N1    S    
C2    P1    S    
C33   H45   S    
O21   P8    S    
C37   H5    S    
C19   C20   A    
C42   H18   S    
O9    P8    S    
C23   H10   S    
O1    P1    D    
C10   C45   A    
O19   P4    D    
C40   H55   S    
C1    H3    S    
C41   H17   S    
C1    H14   S    
O24   P5    S    
C4    C16   S    
C39   H53   S    
C4    H37   S    
C28   C32   S    
C43   H22   S    
O10   P6    S    
C26   P3    S    
Ba1   O15   S    
C25   H33   S    
C3    C5    A    
O13   P1    S    
C16   H15   S    
C12   H1    S    
O7    P7    S    
C16   H41   S    
C32   H34   S    
C2    C14   A    
C40   N3    S    
C13   N3    S    
O23   P7    S    
C9    C14   A    
C29   C30   A    
C11   H29   S    
C8    C17   A    
C28   O22   S    
C43   H21   S    
Ba2   O20   S    
O2    P5    D    
C10   C11   A    
C7    C9    A    
C44   H24   S    
C1    C12   S    
C2    C15   A    
C43   O9    S    
C17   P4    S    
C12   H7    S    
C26   C31   A    
O22   P4    S    
C39   N2    S    
C11   C13   A    
C41   C42   S    
C34   N2    S    
C32   H12   S    
C38   H48   S    
Ba1   O23   S    
C44   H27   S    
Ba1   P2    S    
C4    H26   S    
C35   H56   S    
O5    P2    S    
C22   H38   S    
Ba1   O5    S    
C45   P6    S    
C25   C30   A    
C39   H51   S    
C16   H42   S    
Ba1   O16   S    
C38   H47   S    
C28   H44   S    
C34   H13   S    
C40   H57   S    
C9    C10   A    
C38   N1    S    
C3    C17   A    
H54   N3    S    
C27   P2    S    
O12   P2    S    
Ba2   O24   S    
O11   P6    D    
C21   C30   S    
O6    P7    D    
C38   H49   S    
C35   H59   S    
C41   O3    S    
H50   N2    S    
C37   H6    S    
C18   C24   A    
Ba1   O20   S    
Ba2   O19   S    
Ba2   O5    S    
C36   H61   S    
C40   H58   S    
Ba1   O10   S    
O20   P4    S    
C23   C34   S    
C18   C19   A    
C27   C29   A    
C25   C26   A    
C15   H28   S    
C20   C21   A    
C14   H30   S    
C42   H20   S    
Ba1   O4    S    
C19   P5    S    
C3    H31   S    
C24   P7    S    
C31   H39   S    
H46   N1    S    
