data_mof_unit_57914.cif
_audit_creation_date              2012-10-26T19:02:53-0400
_audit_creation_method            fapswitch 2.2
_symmetry_space_group_name_H-M    P1
_symmetry_Int_Tables_number       1
_space_group_crystal_system       triclinic
_cell_length_a                    15.06052
_cell_length_b                    10.97039
_cell_length_c                    9.905155
_cell_angle_alpha                 109.998744
_cell_angle_beta                  98.887451
_cell_angle_gamma                 92.084845
_cell_volume                      1512.34987205

loop_
_atom_site_label
_atom_site_type_symbol
_atom_type_description
_atom_site_fract_x
_atom_site_fract_y
_atom_site_fract_z
_atom_type_partial_charge
C1    C     C_R   0.496904 0.254677 0.442504 0.574084
C2    C     C_2   0.499332 0.476339 0.913758 0.536559
C3    C     C_R   0.329073 0.499190 0.500032 0.561738
C4    C     C_R   0.670761 0.501617 0.500316 0.567340
C5    C     C_R   0.810471 0.595625 0.452986 0.231874
C6    C     C_R   0.191142 0.426837 0.572091 0.220252
C7    C     C_R   0.767659 0.507890 0.503852 0.021607
C8    C     C_R   0.232236 0.498476 0.500516 -0.007111
C9    C     C_R   0.816899 0.426101 0.561497 0.193061
C10   C     C_R   0.182122 0.572224 0.431336 0.227446
C11   C     C_R   0.912026 0.440041 0.582470 -0.037080
C12   C     C_R   0.509855 0.745813 0.557693 0.563557
C13   C     C_R   0.090366 0.584504 0.442745 0.021448
C14   C     C_R   0.954667 0.515221 0.515195 -0.110009
C15   C     C_R   0.048075 0.511973 0.513533 -0.122349
C16   C     C_R   0.903607 0.592611 0.448622 0.068306
C17   C     C_R   0.099081 0.436062 0.582591 0.050776
C18   C     C_R   0.965285 0.381123 0.669237 0.215427
C19   C     C_R   0.041447 0.671853 0.390751 0.229570
C20   C     C_R   0.057513 0.372745 0.662956 0.343581
C21   C     C_R   0.947049 0.668482 0.383402 0.279788
C22   C     C_2   0.502363 0.116265 0.415278 -0.049519
C23   C     C_2   0.521237 0.885594 0.586098 -0.052925
C24   C     C_2   0.547058 0.073968 0.516850 0.210440
C25   C     C_2   0.544039 0.932617 0.485879 0.191825
C26   C     C_2   0.516397 0.493493 0.074294 0.454631
Cu1   Cu    Cu3+1 0.515770 0.521810 0.644910 1.120962
Cu2   Cu    Cu3+1 0.484230 0.478190 0.355090 1.064566
H1    H     H_    0.510645 0.951669 0.691434 0.083141
H2    H     H_    0.927154 0.744310 0.231165 0.335547
H3    H     H_    0.585843 0.902705 0.302126 0.346528
H4    H     H_    0.628393 0.111535 0.701719 0.325634
H5    H     H_    0.446031 0.298967 0.853375 0.338212
H6    H     H_    0.586933 0.619077 0.244618 0.392514
H7    H     H_    0.615045 0.704312 0.897038 0.358108
H8    H     H_    0.346607 0.363380 0.121179 0.374704
H9    H     H_    0.468958 0.047347 0.310074 0.088921
H10   H     H_    0.710827 0.705747 0.459654 0.319132
H11   H     H_    0.286496 0.310485 0.570386 0.331645
H12   H     H_    0.804070 0.251903 0.568170 0.364534
H13   H     H_    0.185819 0.606890 0.254900 0.372881
H14   H     H_    0.884769 0.396697 0.807896 0.372533
H15   H     H_    0.053288 0.842660 0.372108 0.347782
H16   H     H_    0.070223 0.256922 0.777145 0.372986
N1    N     N_2   0.460520 0.445420 0.137370 -0.114850
N2    N     N_2   0.539480 0.554580 0.862630 -0.047405
O1    O     O_R   0.508410 0.332340 0.577400 -0.398432
O2    O     O_3   0.239081 0.344546 0.628534 -0.569622
O3    O     O_3   0.769395 0.329316 0.588845 -0.648230
O4    O     O_3   0.224761 0.630522 0.352231 -0.603090
O5    O     O_3   0.930875 0.338789 0.768801 -0.701916
O6    O     O_3   0.087441 0.764844 0.355235 -0.667523
O7    O     O_3   0.109280 0.309161 0.741303 -0.584755
O8    O     O_3   0.896313 0.736319 0.309620 -0.604167
O9    O     O_3   0.561509 0.849774 0.354037 -0.679407
O10   O     O_3   0.593577 0.161142 0.648332 -0.638119
O11   O     O_3   0.443617 0.371138 0.814604 -0.623901
O12   O     O_R   0.491590 0.667660 0.422600 -0.454902
O13   O     O_3   0.598608 0.556678 0.152292 -0.609846
O14   O     O_3   0.589986 0.661494 0.957924 -0.575069
O15   O     O_3   0.377521 0.398881 0.059731 -0.597648
O16   O     O_R   0.481780 0.295500 0.332650 -0.529094
O17   O     O_R   0.518220 0.704500 0.667350 -0.539423
O18   O     O_R   0.383570 0.518390 0.622380 -0.464941
O19   O     O_R   0.616430 0.481610 0.377620 -0.504018
O20   O     O_R   0.356940 0.481550 0.377630 -0.486223
O21   O     O_R   0.643060 0.518450 0.622370 -0.474536
O22   O     O_3   0.763274 0.685696 0.409372 -0.577532

loop_
_geom_bond_atom_site_label_1
_geom_bond_atom_site_label_2
_ccdc_geom_bond_type
C4    O21   A    
Cu2   O20   S    
C5    C7    A    
C11   C18   A    
C16   C21   A    
Cu2   O12   S    
C24   O10   S    
C9    C11   A    
C26   O13   S    
C21   O8    S    
C14   C15   A    
H14   O5    S    
C12   O12   A    
C1    O16   A    
C13   C15   A    
Cu2   O19   S    
H16   O7    S    
C2    O11   S    
C1    C22   S    
C2    C26   S    
C3    O18   A    
C2    N2    D    
H2    O8    S    
C12   C23   S    
H12   O3    S    
C6    O2    S    
Cu1   O17   S    
C5    O22   S    
H3    O9    S    
C23   H1    S    
C22   C24   D    
N1    O15   S    
C19   C21   A    
H5    O11   S    
C18   O5    S    
C18   C20   A    
C23   C25   D    
H6    O13   S    
Cu2   N1    S    
C11   C14   A    
C14   C16   A    
H15   O6    S    
C3    O20   A    
Cu1   O21   S    
Cu1   O18   S    
C13   C19   A    
H8    O15   S    
C10   O4    S    
H13   O4    S    
H7    O14   S    
C17   C20   A    
C9    O3    S    
C24   C25   S    
Cu1   N2    S    
C4    C7    S    
C7    C9    A    
C3    C8    S    
Cu1   O1    S    
Cu1   Cu2   S    
C15   C17   A    
C6    C17   A    
C4    O19   A    
H11   O2    S    
C5    C16   A    
C6    C8    A    
C26   N1    D    
N2    O14   S    
C12   O17   A    
C22   H9    S    
C19   O6    S    
H4    O10   S    
C8    C10   A    
C1    O1    A    
C25   O9    S    
H10   O22   S    
C20   O7    S    
C10   C13   A    
Cu2   O16   S    
