data_mof_unit_11948.cif
_audit_creation_date              2012-10-26T19:45:36-0400
_audit_creation_method            fapswitch 2.2
_symmetry_space_group_name_H-M    P1
_symmetry_Int_Tables_number       1
_space_group_crystal_system       triclinic
_cell_length_a                    10.887172
_cell_length_b                    9.514713
_cell_length_c                    10.754109
_cell_angle_alpha                 90.373857
_cell_angle_beta                  89.692483
_cell_angle_gamma                 90.032623
_cell_volume                      1113.96013295

loop_
_atom_site_label
_atom_site_type_symbol
_atom_type_description
_atom_site_fract_x
_atom_site_fract_y
_atom_site_fract_z
_atom_type_partial_charge
C1    C     C_R   0.262619 0.499946 0.499810 0.604628
C2    C     C_R   0.446725 0.924927 0.405379 0.049654
C3    C     C_R   0.551697 0.926476 0.595491 0.076818
C4    C     C_R   0.552726 0.075126 0.594972 0.062429
C5    C     C_R   0.498624 0.499931 0.259588 0.548707
C6    C     C_R   0.738301 0.499610 0.500536 0.616064
C7    C     C_R   0.498049 0.500539 0.740217 0.560118
C8    C     C_3   0.498244 0.653968 0.072035 -0.239408
C9    C     C_3   0.380326 0.426188 0.071917 -0.234389
C10   C     C_3   0.497285 0.654513 0.929593 -0.230758
C11   C     C_3   0.380509 0.426032 0.928060 -0.238836
C12   C     C_3   0.612115 0.424423 0.926451 -0.241596
C13   C     C_3   0.611696 0.423324 0.069506 -0.220483
C14   C     C_3   0.497132 0.500699 0.121424 0.027782
C15   C     C_3   0.496913 0.501594 0.877984 0.041617
C16   C     C_R   0.067112 0.391305 0.439844 0.308097
C17   C     C_R   0.066221 0.605528 0.563100 0.312109
C18   C     C_R   0.939304 0.390231 0.436748 0.179097
C19   C     C_R   0.938610 0.602908 0.569878 0.188569
C20   C     C_R   0.873113 0.497767 0.502147 -0.131175
C21   C     C_R   0.129673 0.499522 0.500194 -0.052243
C22   C     C_R   0.446513 0.073693 0.405502 0.071847
Cu1   Cu    Cu3+1 0.500020 0.640660 0.500000 1.060583
Cu2   Cu    Cu3+1 0.500020 0.359340 0.500000 1.061987
F1    F     F_    0.132068 0.288186 0.381348 -0.581067
F2    F     F_    0.129919 0.709297 0.621631 -0.562455
H1    H     H_    0.581578 0.710308 0.105496 0.149380
H2    H     H_    0.377668 0.315642 0.893295 0.140596
H3    H     H_    0.696687 0.475185 0.104030 0.159728
H4    H     H_    0.611477 0.312293 0.101224 0.181209
H5    H     H_    0.697010 0.476884 0.892485 0.167507
H6    H     H_    0.614104 0.314258 0.890955 0.131672
H7    H     H_    0.403007 0.128953 0.330035 0.139360
H8    H     H_    0.403351 0.868630 0.329784 0.114956
H9    H     H_    0.978427 0.244250 0.182780 0.345928
H10   H     H_    0.978146 0.708147 0.833395 0.342250
H11   H     H_    0.376575 0.315962 0.105780 0.143588
H12   H     H_    0.592654 0.871554 0.672418 0.166021
H13   H     H_    0.595835 0.131392 0.670747 0.121184
H14   H     H_    0.416519 0.712349 0.107540 0.131959
H15   H     H_    0.296706 0.480853 0.107373 0.134947
H16   H     H_    0.414528 0.711892 0.896874 0.146369
H17   H     H_    0.296494 0.479710 0.893900 0.135444
H18   H     H_    0.579358 0.712517 0.895403 0.174831
N1    N     N_R   0.500030 0.852070 0.500030 -0.231539
N2    N     N_R   0.500030 0.147930 0.500030 -0.225767
O1    O     O_R   0.319660 0.618740 0.499990 -0.456095
O2    O     O_2   0.761264 0.306312 0.278636 -0.344285
O3    O     O_3   0.965823 0.174212 0.249433 -0.410647
O4    O     O_2   0.827517 0.852089 0.590704 -0.194454
O5    O     O_2   0.757086 0.668397 0.732900 -0.370421
O6    O     O_3   0.963908 0.789604 0.778393 -0.414008
O7    O     O_R   0.319660 0.381260 0.499990 -0.456542
O8    O     O_R   0.499990 0.618790 0.317690 -0.537406
O9    O     O_R   0.499990 0.381210 0.317690 -0.491476
O10   O     O_R   0.680370 0.618830 0.500010 -0.438757
O11   O     O_R   0.680370 0.381170 0.500010 -0.438635
O12   O     O_R   0.500030 0.618780 0.682310 -0.493691
O13   O     O_R   0.500030 0.381220 0.682310 -0.540952
O14   O     O_2   0.823126 0.141979 0.439955 -0.180007
S1    S     S_3+6 0.868248 0.251503 0.350614 0.090610
S2    S     S_3+6 0.867059 0.729957 0.668644 0.069447

loop_
_geom_bond_atom_site_label_1
_geom_bond_atom_site_label_2
_ccdc_geom_bond_type
C2    C22   A    
Cu1   O12   S    
C9    C14   S    
C4    H13   S    
C18   S1    S    
C1    C21   S    
C16   C21   A    
Cu1   N1    S    
C10   H16   S    
C6    C20   S    
C5    O8    A    
C7    O12   A    
C9    H15   S    
C19   C20   A    
H10   O6    S    
C12   C15   S    
Cu1   Cu2   S    
Cu2   N2    S    
C2    H8    S    
C9    H11   S    
O2    S1    D    
Cu1   O10   S    
C12   H5    S    
O6    S2    S    
C13   C14   S    
C12   H6    S    
Cu2   O9    S    
C11   H17   S    
C9    C11   S    
C6    O11   A    
C5    C14   S    
C4    N2    A    
O5    S2    D    
C11   H2    S    
O14   S1    D    
Cu2   O13   S    
H9    O3    S    
C13   H3    S    
C17   C19   A    
C5    O9    A    
C18   C20   A    
C10   C15   S    
C2    N1    A    
O4    S2    D    
O3    S1    S    
C17   F2    S    
C19   S2    S    
C10   H18   S    
C3    C4    A    
C13   H4    S    
Cu1   O1    S    
C12   C13   S    
Cu1   O8    S    
C16   C18   A    
C7    O13   A    
C16   F1    S    
C22   H7    S    
C8    H1    S    
C1    O7    A    
C1    O1    A    
C8    C14   S    
C7    C15   S    
C8    H14   S    
C22   N2    A    
Cu2   O7    S    
C11   C15   S    
C3    N1    A    
C8    C10   S    
C17   C21   A    
C3    H12   S    
C6    O10   A    
Cu2   O11   S    
