data_mof_unit_55687.cif
_audit_creation_date              2012-12-10T17:43:39-0500
_audit_creation_method            fapswitch 2.2
_symmetry_space_group_name_H-M    P1
_symmetry_Int_Tables_number       1
_space_group_crystal_system       triclinic
_cell_length_a                    14.960033
_cell_length_b                    10.603337
_cell_length_c                    9.919582
_cell_angle_alpha                 89.762681
_cell_angle_beta                  89.970706
_cell_angle_gamma                 91.814032
_cell_volume                      1572.70390914

loop_
_atom_site_label
_atom_site_type_symbol
_atom_type_description
_atom_site_fract_x
_atom_site_fract_y
_atom_site_fract_z
_atom_type_partial_charge
C1    C     C_R   0.501143 0.260744 0.500190 0.849236
C2    C     C_R   0.184446 0.444386 0.390171 -0.258772
C3    C     C_R   0.230867 0.493993 0.501040 -0.069117
C4    C     C_R   0.326794 0.498718 0.500120 0.870051
C5    C     C_R   0.185843 0.537011 0.614343 -0.263015
C6    C     C_R   0.665902 0.138565 0.564989 -0.175752
C7    C     C_R   0.744192 0.076081 0.594785 -0.167984
C8    C     C_R   0.743997 0.944719 0.595936 -0.140481
C9    C     C_R   0.665710 0.875468 0.565935 -0.186111
C10   C     C_R   0.586105 0.937607 0.534020 0.089031
C11   C     C_R   0.586101 0.069706 0.534119 0.099381
C12   C     C_R   0.907789 0.533865 0.615997 0.124102
C13   C     C_R   0.506060 0.128686 0.500117 -0.076965
C14   C     C_R   0.428915 0.061513 0.462240 -0.222862
C15   C     C_R   0.429027 0.932517 0.461596 -0.197463
C16   C     C_R   0.501286 0.739352 0.499703 0.871485
C17   C     C_R   0.506244 0.871853 0.499003 -0.092016
C18   C     C_R   0.382226 0.334971 0.140723 -0.157346
C19   C     C_R   0.323825 0.254200 0.070938 -0.208814
C20   C     C_R   0.323804 0.254233 0.931379 -0.185197
C21   C     C_R   0.382174 0.335056 0.860770 -0.147786
C22   C     C_R   0.441913 0.418759 0.928089 0.163242
C23   C     C_R   0.951359 0.381993 0.281839 -0.005255
C24   C     C_R   0.441938 0.418763 0.072644 0.174154
C25   C     C_R   0.555768 0.577455 0.071082 -0.109572
C26   C     C_R   0.555764 0.577405 0.928004 -0.109599
C27   C     C_R   0.673147 0.500137 0.500075 0.856757
C28   C     C_R   0.815681 0.537973 0.614050 -0.275740
C29   C     C_R   0.768764 0.494973 0.501126 -0.072525
C30   C     C_R   0.812525 0.444031 0.390820 -0.265614
C31   C     C_R   0.905138 0.435009 0.391550 0.055877
C32   C     C_R   0.952953 0.483780 0.504023 0.045884
C33   C     C_R   0.904394 0.317657 0.168389 0.118104
C34   C     C_R   0.044764 0.386804 0.281943 -0.272682
C35   C     C_R   0.847326 0.212149 0.193176 -0.166703
C36   C     C_R   0.802425 0.151969 0.086701 -0.123089
C37   C     C_R   0.814879 0.195586 0.954736 -0.112783
C38   C     C_R   0.872672 0.299011 0.928849 -0.138040
C39   C     C_R   0.917551 0.359872 0.035153 -0.156279
C40   C     C_R   0.091808 0.438546 0.391308 0.101429
C41   C     C_R   0.045983 0.484618 0.504116 0.058716
C42   C     C_R   0.093415 0.533570 0.616409 0.126141
C43   C     C_R   0.047931 0.579719 0.728130 -0.223942
C44   C     C_R   0.955255 0.580370 0.727666 -0.248140
H1    H     H_    0.780593 0.577146 0.699210 0.156193
H2    H     H_    0.278421 0.191026 0.877301 0.150669
H3    H     H_    0.378608 0.329019 0.753850 0.202916
H4    H     H_    0.773687 0.412084 0.304797 0.179597
H5    H     H_    0.601341 0.640701 0.873938 0.142850
H6    H     H_    0.080829 0.348147 0.197474 0.153238
H7    H     H_    0.220347 0.409233 0.303838 0.154365
H8    H     H_    0.222731 0.575283 0.699837 0.164467
H9    H     H_    0.084023 0.616700 0.814831 0.148421
H10   H     H_    0.920700 0.617869 0.814052 0.147748
H11   H     H_    0.368482 0.109277 0.434582 0.131724
H12   H     H_    0.668659 0.240474 0.564901 0.141134
H13   H     H_    0.837294 0.177125 0.295011 0.139617
H14   H     H_    0.757988 0.071472 0.106516 0.137736
H15   H     H_    0.779865 0.148974 0.872650 0.138262
H16   H     H_    0.882561 0.331911 0.826397 0.146926
H17   H     H_    0.961810 0.440326 0.013912 0.133021
H18   H     H_    0.805150 0.129774 0.616909 0.136926
H19   H     H_    0.804748 0.896319 0.619359 0.141140
H20   H     H_    0.668349 0.773642 0.566363 0.129624
H21   H     H_    0.368626 0.879641 0.433713 0.145630
H22   H     H_    0.601343 0.640791 0.124435 0.147227
H23   H     H_    0.378549 0.328914 0.247649 0.196892
H24   H     H_    0.278421 0.191042 0.125689 0.146188
N1    N     N_R   0.499150 0.498800 0.142780 -0.122221
N2    N     N_R   0.499120 0.498720 0.857170 -0.121889
O1    O     O_R   0.500000 0.316780 0.614690 -0.634667
O2    O     O_R   0.499990 0.316750 0.385360 -0.630692
O3    O     O_R   0.367850 0.499980 0.614680 -0.641618
O4    O     O_R   0.367840 0.499960 0.385350 -0.639316
O5    O     O_R   0.500010 0.683250 0.614640 -0.614383
O6    O     O_R   0.500000 0.683220 0.385310 -0.609889
O7    O     O_R   0.632160 0.500040 0.614650 -0.627111
O8    O     O_R   0.632150 0.500020 0.385320 -0.618293
Zn1   Zn    Zn3+2 0.500010 0.500020 0.653130 0.933770
Zn2   Zn    Zn3+2 0.499990 0.499980 0.346870 0.939848

loop_
_geom_bond_atom_site_label_1
_geom_bond_atom_site_label_2
_ccdc_geom_bond_type
C5    C42   A    
C27   C29   S    
C16   O5    A    
C41   C42   A    
C19   C20   A    
C27   O8    A    
O1    Zn1   S    
C7    C8    A    
C33   C39   A    
C12   C28   A    
C18   C24   A    
C30   H4    S    
C28   C29   A    
C36   H14   S    
C30   C31   A    
O8    Zn2   S    
C10   C17   A    
C9    H20   S    
C18   C19   A    
C43   H9    S    
C35   C36   A    
C8    C9    A    
C23   C33   S    
C32   C41   A    
C5    H8    S    
C29   C30   A    
C9    C10   A    
C4    O4    A    
C14   H11   S    
O4    Zn2   S    
C13   C14   A    
C12   C32   A    
C24   N1    A    
O7    Zn1   S    
C39   H17   S    
C28   H1    S    
C34   H6    S    
C1    O2    A    
C2    H7    S    
C26   H5    S    
C6    C11   A    
C16   C17   S    
C3    C5    A    
C25   C26   A    
C23   C31   A    
C43   C44   A    
C7    H18   S    
C37   C38   A    
C44   H10   S    
C31   C32   A    
C23   C34   A    
O3    Zn1   S    
C19   H24   S    
C1    O1    A    
C4    O3    A    
C37   H15   S    
C38   H16   S    
C40   C41   A    
C26   N2    A    
C34   C40   A    
C1    C13   S    
C42   C43   A    
C3    C4    S    
C15   C17   A    
C36   C37   A    
N2    Zn1   S    
C16   O6    A    
C25   H22   S    
O6    Zn2   S    
C6    H12   S    
C27   O7    A    
C6    C7    A    
C35   H13   S    
C2    C3    A    
C18   H23   S    
C12   C44   A    
C11   C13   A    
C38   C39   A    
C33   C35   A    
C22   C24   A    
C10   C11   A    
C8    H19   S    
C2    C40   A    
C25   N1    A    
C20   C21   A    
O2    Zn2   S    
C14   C15   A    
N1    Zn2   S    
C21   C22   A    
O5    Zn1   S    
C22   N2    A    
C20   H2    S    
C21   H3    S    
C15   H21   S    
