data_mof_unit_35639.cif
_audit_creation_date              2012-12-10T17:45:34-0500
_audit_creation_method            fapswitch 2.2
_symmetry_space_group_name_H-M    P1
_symmetry_Int_Tables_number       1
_space_group_crystal_system       triclinic
_cell_length_a                    11.489475
_cell_length_b                    10.629205
_cell_length_c                    9.946635
_cell_angle_alpha                 89.427072
_cell_angle_beta                  90.50312
_cell_angle_gamma                 91.840818
_cell_volume                      1213.99163113

loop_
_atom_site_label
_atom_site_type_symbol
_atom_type_description
_atom_site_fract_x
_atom_site_fract_y
_atom_site_fract_z
_atom_type_partial_charge
C1    C     C_R   0.499076 0.260875 0.500901 0.883130
C2    C     C_R   0.500044 0.871590 0.498086 -0.126240
C3    C     C_R   0.346997 0.335862 0.139242 -0.305238
C4    C     C_R   0.282138 0.498393 0.499555 0.867423
C5    C     C_R   0.271994 0.252565 0.070239 0.353842
C6    C     C_R   0.278478 0.245560 0.930071 0.417522
C7    C     C_R   0.350485 0.331747 0.860961 -0.286858
C8    C     C_R   0.425878 0.417669 0.928087 0.004679
C9    C     C_R   0.425455 0.418256 0.071991 0.098992
C10   C     C_R   0.571009 0.578998 0.071506 -0.226149
C11   C     C_R   0.573012 0.577931 0.927527 0.523703
C12   C     C_R   0.815663 0.075808 0.577846 0.223705
C13   C     C_R   0.499937 0.739035 0.499335 0.888463
C14   C     C_R   0.717850 0.501190 0.500439 0.878363
C15   C     C_1   0.161649 0.499146 0.498762 -0.185798
C16   C     C_1   0.059358 0.500431 0.499236 -0.001093
C17   C     C_1   0.940716 0.501830 0.500436 -0.035341
C18   C     C_1   0.838376 0.501983 0.501097 -0.226343
C19   C     C_R   0.711030 0.136979 0.554176 -0.214199
C20   C     C_3   0.279014 0.132823 0.485899 -0.869499
C21   C     C_3   0.238528 0.034903 0.882296 0.107101
C22   C     C_3   0.367585 0.008822 0.856351 -0.426884
C23   C     C_R   0.817066 0.943836 0.568931 0.241774
C24   C     C_3   0.389110 0.867975 0.854514 -0.855240
C25   C     C_3   0.761699 0.653080 0.889675 0.075980
C26   C     C_3   0.810291 0.779843 0.940206 -0.344820
C27   C     C_3   0.940128 0.774402 0.972910 -0.974011
C28   C     C_3   0.924187 0.152076 0.614091 -0.886167
C29   C     C_3   0.928603 0.874476 0.587507 -0.947167
C30   C     C_3   0.279307 0.856371 0.456933 -0.895789
C31   C     C_3   0.092829 0.239564 0.165333 0.083285
C32   C     C_3   0.998340 0.144980 0.212149 -0.331522
C33   C     C_3   0.885513 0.209738 0.244808 -0.925976
C34   C     C_R   0.712861 0.876147 0.541868 -0.188462
C35   C     C_R   0.606350 0.937854 0.522263 -0.008237
C36   C     C_R   0.605881 0.068633 0.526139 0.000731
C37   C     C_R   0.499485 0.128129 0.503931 -0.138202
C38   C     C_R   0.392214 0.061930 0.487865 0.156283
C39   C     C_R   0.392728 0.930982 0.480829 0.185256
H1    H     H_    0.345909 0.327353 0.754399 0.234557
H2    H     H_    0.214058 0.004481 0.985531 0.189159
H3    H     H_    0.394197 0.051389 0.758944 0.248154
H4    H     H_    0.423051 0.052225 0.936571 0.219424
H5    H     H_    0.365634 0.823992 0.952775 0.254987
H6    H     H_    0.482743 0.853271 0.835625 0.298594
H7    H     H_    0.336949 0.821650 0.773386 0.267743
H8    H     H_    0.808555 0.629248 0.796523 0.179824
H9    H     H_    0.780809 0.577459 0.964725 0.110960
H10   H     H_    0.796600 0.853338 0.861901 0.243476
H11   H     H_    0.763060 0.806793 0.032005 0.218045
H12   H     H_    0.712392 0.238466 0.559688 0.150207
H13   H     H_    0.954949 0.706346 0.056312 0.271791
H14   H     H_    0.973692 0.868798 0.004267 0.259926
H15   H     H_    0.989210 0.745436 0.883248 0.264338
H16   H     H_    0.907337 0.254081 0.618848 0.240228
H17   H     H_    0.956970 0.122182 0.714371 0.261667
H18   H     H_    0.992607 0.138598 0.538180 0.246112
H19   H     H_    0.991414 0.904207 0.508245 0.245572
H20   H     H_    0.967455 0.895402 0.687604 0.248936
H21   H     H_    0.913865 0.771008 0.580944 0.244431
H22   H     H_    0.290281 0.754762 0.441711 0.235489
H23   H     H_    0.715891 0.774732 0.536445 0.143699
H24   H     H_    0.221226 0.865740 0.544670 0.232417
H25   H     H_    0.235643 0.891710 0.364572 0.255382
H26   H     H_    0.060460 0.287709 0.072595 0.151581
H27   H     H_    0.109398 0.310561 0.245448 0.146110
H28   H     H_    0.980672 0.075145 0.131507 0.224300
H29   H     H_    0.029350 0.093748 0.302838 0.222022
H30   H     H_    0.900084 0.276795 0.328552 0.273740
H31   H     H_    0.818337 0.138004 0.275629 0.273726
H32   H     H_    0.852793 0.261268 0.155160 0.261621
H33   H     H_    0.627044 0.644731 0.126023 0.157122
H34   H     H_    0.340965 0.334267 0.245356 0.228053
H35   H     H_    0.199003 0.072352 0.484534 0.246204
H36   H     H_    0.274070 0.191419 0.577121 0.237803
H37   H     H_    0.275678 0.194743 0.396475 0.247029
H38   H     H_    0.184230 0.975344 0.813417 0.160971
N1    N     N_R   0.498930 0.498800 0.142780 -0.110913
N2    N     N_R   0.498900 0.498720 0.857170 -0.127741
O1    O     O_R   0.500000 0.316780 0.614690 -0.644165
O2    O     O_3   0.642261 0.663660 0.856088 -0.627727
O3    O     O_3   0.195535 0.174396 0.140793 -0.656527
O4    O     O_R   0.499990 0.316750 0.385360 -0.619519
O5    O     O_R   0.334450 0.500030 0.614670 -0.622000
O6    O     O_R   0.334440 0.500000 0.385330 -0.634766
O7    O     O_R   0.500010 0.683250 0.614640 -0.573510
O8    O     O_R   0.500000 0.683220 0.385310 -0.613588
O9    O     O_R   0.665560 0.500000 0.614670 -0.598408
O10   O     O_R   0.665550 0.499970 0.385330 -0.603737
O11   O     O_3   0.209393 0.161729 0.855909 -0.651731
Zn1   Zn    Zn3+2 0.500010 0.500020 0.653130 0.961034
Zn2   Zn    Zn3+2 0.499990 0.499980 0.346870 0.936898

loop_
_geom_bond_atom_site_label_1
_geom_bond_atom_site_label_2
_ccdc_geom_bond_type
C2    C35   A    
C31   H27   S    
C30   H25   S    
C14   C18   S    
C35   C36   A    
C10   N1    A    
C27   H15   S    
C7    C8    A    
C22   H3    S    
C28   H18   S    
C11   O2    S    
O4    Zn2   S    
C12   C23   A    
C26   C27   S    
C31   O3    S    
C12   C28   S    
C24   H6    S    
C23   C29   S    
C36   C37   A    
C19   C36   A    
C26   H11   S    
C38   C39   A    
C15   C16   T    
C34   H23   S    
C20   H37   S    
C34   C35   A    
C2    C13   S    
C2    C39   A    
O6    Zn2   S    
C22   H4    S    
C8    C9    A    
C13   O7    A    
C8    N2    A    
C7    H1    S    
C29   H21   S    
O5    Zn1   S    
C25   H8    S    
N2    Zn1   S    
C1    C37   S    
C32   H29   S    
C21   C22   S    
C25   O2    S    
C28   H16   S    
C21   O11   S    
C28   H17   S    
C29   H20   S    
C26   H10   S    
C16   C17   S    
C4    O6    A    
N1    Zn2   S    
C25   C26   S    
C6    O11   S    
C20   H36   S    
C14   O10   A    
C37   C38   A    
C3    C9    A    
C20   C38   S    
C31   C32   S    
C4    O5    A    
O9    Zn1   S    
C23   C34   A    
C13   O8    A    
C17   C18   T    
C20   H35   S    
O10   Zn2   S    
C25   H9    S    
C11   N2    A    
C33   H31   S    
C32   H28   S    
C21   H2    S    
C24   H5    S    
C22   C24   S    
O8    Zn2   S    
C27   H13   S    
C31   H26   S    
C3    C5    A    
C27   H14   S    
C6    C7    A    
C33   H30   S    
C1    O4    A    
O7    Zn1   S    
C24   H7    S    
C32   C33   S    
O1    Zn1   S    
C14   O9    A    
C5    O3    S    
C5    C6    A    
C4    C15   S    
C12   C19   A    
C30   C39   S    
C9    N1    A    
C3    H34   S    
C10   C11   A    
C33   H32   S    
C19   H12   S    
C29   H19   S    
C30   H22   S    
C21   H38   S    
C1    O1    A    
C30   H24   S    
C10   H33   S    
