data_mof_unit_55073.cif
_audit_creation_date              2012-12-11T14:52:31-0500
_audit_creation_method            fapswitch 2.2
_symmetry_space_group_name_H-M    P1
_symmetry_Int_Tables_number       1
_space_group_crystal_system       triclinic
_cell_length_a                    18.994209
_cell_length_b                    10.89789
_cell_length_c                    18.752404
_cell_angle_alpha                 89.921765
_cell_angle_beta                  90.476272
_cell_angle_gamma                 90.073422
_cell_volume                      3881.54676928

loop_
_atom_site_label
_atom_site_type_symbol
_atom_type_description
_atom_site_fract_x
_atom_site_fract_y
_atom_site_fract_z
_atom_type_partial_charge
C1    C     C_R   0.290045 0.997049 0.860866 0.582608
C2    C     C_R   0.709861 0.996988 0.139223 0.581937
C3    C     C_R   0.790045 0.497049 0.860866 0.582607
C4    C     C_R   0.209861 0.496987 0.139223 0.581936
C5    C     C_3   0.517918 0.714221 0.963974 0.145164
C6    C     C_3   0.481564 0.714393 0.036376 0.144699
C7    C     C_3   0.017918 0.214221 0.963974 0.145163
C8    C     C_3   0.981564 0.214393 0.036377 0.144698
C9    C     C_R   0.294305 0.506903 0.957463 0.423315
C10   C     C_R   0.705448 0.507162 0.042594 0.422909
C11   C     C_R   0.794305 0.006903 0.957463 0.423316
C12   C     C_R   0.205448 0.007163 0.042594 0.422908
C13   C     C_R   0.281119 0.473288 0.028064 0.377109
C14   C     C_R   0.718567 0.473664 0.972003 0.377341
C15   C     C_R   0.781119 0.973289 0.028064 0.377108
C16   C     C_R   0.218566 0.973664 0.972003 0.377341
C17   C     C_R   0.220999 0.518050 0.063021 -0.021869
C18   C     C_R   0.778788 0.518357 0.937013 -0.022470
C19   C     C_R   0.720999 0.018051 0.063021 -0.021869
C20   C     C_R   0.278788 0.018357 0.937013 -0.022469
C21   C     C_R   0.169498 0.581681 0.023463 0.338840
C22   C     C_R   0.830362 0.581995 0.976519 0.339335
C23   C     C_R   0.669499 0.081682 0.023463 0.338842
C24   C     C_R   0.330362 0.081995 0.976519 0.339335
C25   C     C_R   0.180954 0.609279 0.952843 -0.103902
C26   C     C_R   0.818945 0.609518 0.047119 -0.103224
C27   C     C_R   0.680954 0.109279 0.952843 -0.103902
C28   C     C_R   0.318945 0.109519 0.047119 -0.103225
C29   C     C_R   0.244752 0.578429 0.920136 -0.070381
C30   C     C_R   0.755120 0.578608 0.079871 -0.070027
C31   C     C_R   0.744752 0.078429 0.920136 -0.070382
C32   C     C_R   0.255120 0.078608 0.079871 -0.070027
C33   C     C_R   0.459451 0.729933 0.526401 -0.111572
C34   C     C_R   0.467214 0.734510 0.453536 -0.114170
C35   C     C_R   0.959455 0.229929 0.526402 -0.111572
C36   C     C_R   0.967216 0.234506 0.453537 -0.114169
C37   C     C_R   0.498669 0.836853 0.422546 0.025350
C38   C     C_R   0.481055 0.829183 0.569159 0.027059
C39   C     C_R   0.998668 0.336852 0.422546 0.025349
C40   C     C_R   0.981055 0.329183 0.569159 0.027058
C41   C     C_R   0.515452 0.940340 0.464302 -0.135320
C42   C     C_R   0.506337 0.936568 0.537686 -0.144633
C43   C     C_R   0.015446 0.440342 0.464300 -0.135321
C44   C     C_R   0.006332 0.436571 0.537684 -0.144633
C45   C     C_R   0.439586 0.815845 0.863345 0.543101
C46   C     C_R   0.560304 0.816047 0.136632 0.542559
C47   C     C_R   0.939586 0.315845 0.863345 0.543101
C48   C     C_R   0.060304 0.316047 0.136632 0.542559
C49   C     C_R   0.216842 0.695174 0.525411 -0.146658
C50   C     C_R   0.816886 0.586975 0.454283 -0.149206
C51   C     C_R   0.716839 0.195169 0.525412 -0.146660
C52   C     C_R   0.316887 0.086973 0.454283 -0.149207
C53   C     C_R   0.215540 0.683712 0.452897 -0.143803
C54   C     C_R   0.823254 0.582501 0.526978 -0.116853
C55   C     C_R   0.715537 0.183708 0.452897 -0.143804
C56   C     C_R   0.323255 0.082498 0.526978 -0.116854
C57   C     C_R   0.251776 0.587845 0.421875 0.004387
C58   C     C_R   0.763714 0.560916 0.568812 0.021859
C59   C     C_R   0.751776 0.087847 0.421875 0.004387
C60   C     C_R   0.263715 0.060915 0.568812 0.021859
C61   C     C_R   0.295959 0.511168 0.462741 -0.117998
C62   C     C_R   0.699285 0.531687 0.537163 -0.124055
C63   C     C_R   0.795961 0.011172 0.462741 -0.117998
C64   C     C_R   0.199285 0.031688 0.537163 -0.124057
C65   C     C_R   0.297575 0.521646 0.536023 0.048389
C66   C     C_R   0.692495 0.533273 0.463837 0.064329
C67   C     C_R   0.797577 0.021649 0.536022 0.048390
C68   C     C_R   0.192495 0.033273 0.463837 0.064327
C69   C     C_R   0.256036 0.612502 0.567708 0.038338
C70   C     C_R   0.750611 0.572826 0.422661 0.034565
C71   C     C_R   0.756036 0.112500 0.567708 0.038339
C72   C     C_R   0.250611 0.072825 0.422661 0.034564
C73   C     C_R   0.260101 0.635037 0.851324 0.577710
C74   C     C_R   0.739869 0.635076 0.148667 0.570892
C75   C     C_R   0.760101 0.135037 0.851324 0.577709
C76   C     C_R   0.239869 0.135076 0.148667 0.570892
C77   C     C_R   0.274093 0.040472 0.643572 0.565590
C78   C     C_R   0.729436 0.047118 0.352873 0.558453
C79   C     C_R   0.774093 0.540472 0.643572 0.565589
C80   C     C_R   0.229436 0.547117 0.352873 0.558454
C81   C     C_R   0.466217 0.823035 0.644663 0.550300
C82   C     C_R   0.528811 0.824424 0.352264 0.557403
C83   C     C_R   0.966217 0.323035 0.644663 0.550302
C84   C     C_R   0.028810 0.324424 0.352264 0.557403
C85   C     C_R   0.261121 0.640196 0.642235 0.563173
C86   C     C_R   0.740145 0.632487 0.354809 0.557799
C87   C     C_R   0.761121 0.140196 0.642235 0.563173
C88   C     C_R   0.240145 0.132487 0.354809 0.557798
C89   C     C_3   0.481032 0.914359 0.036561 -0.075586
C90   C     C_3   0.518829 0.914192 0.963252 -0.075184
C91   C     C_3   0.981032 0.414359 0.036561 -0.075585
C92   C     C_3   0.018829 0.414192 0.963252 -0.075183
C93   C     C_3   0.429751 0.813495 0.009993 -0.015487
C94   C     C_3   0.569920 0.813352 0.990067 -0.015037
C95   C     C_3   0.929751 0.313496 0.009994 -0.015487
C96   C     C_3   0.069920 0.313352 0.990067 -0.015037
C97   C     C_3   0.467298 0.814947 0.937339 -0.005417
C98   C     C_3   0.532391 0.815162 0.062721 -0.004221
C99   C     C_3   0.967298 0.314947 0.937339 -0.005417
C100  C     C_3   0.032391 0.315162 0.062721 -0.004220
Cr1   Cr    Cr6+3 0.229630 0.835900 0.747350 1.087027
Cr2   Cr    Cr6+3 0.770370 0.835900 0.252650 1.086170
Cr3   Cr    Cr6+3 0.729630 0.335900 0.747350 1.087026
Cr4   Cr    Cr6+3 0.270370 0.335900 0.252650 1.086170
Cr5   Cr    Cr6+3 0.387410 0.989850 0.750850 1.105651
Cr6   Cr    Cr6+3 0.612590 0.989850 0.249150 1.096605
Cr7   Cr    Cr6+3 0.887410 0.489850 0.750850 1.105652
Cr8   Cr    Cr6+3 0.112590 0.489850 0.249150 1.096606
Cr9   Cr    Cr6+3 0.385800 0.677120 0.749340 1.122852
Cr10  Cr    Cr6+3 0.614200 0.677120 0.250660 1.125433
Cr11  Cr    Cr6+3 0.885800 0.177120 0.749340 1.122853
Cr12  Cr    Cr6+3 0.114200 0.177120 0.250660 1.125433
H1    H     H_    0.186729 0.769570 0.548107 0.161997
H2    H     H_    0.862836 0.611324 0.423369 0.148839
H3    H     H_    0.686723 0.269561 0.548108 0.161998
H4    H     H_    0.362837 0.111322 0.423369 0.148839
H5    H     H_    0.182276 0.743872 0.421513 0.173350
H6    H     H_    0.875082 0.596093 0.550220 0.166011
H7    H     H_    0.682270 0.243866 0.421515 0.173351
H8    H     H_    0.375083 0.096089 0.550220 0.166011
H9    H     H_    0.324651 0.436209 0.438709 0.168718
H10   H     H_    0.654679 0.505130 0.569406 0.155370
H11   H     H_    0.824656 0.936217 0.438707 0.168717
H12   H     H_    0.154678 0.005131 0.569406 0.155370
H13   H     H_    0.466106 0.998414 0.066138 0.206659
H14   H     H_    0.533929 0.998129 0.933456 0.206733
H15   H     H_    0.966106 0.498414 0.066138 0.206660
H16   H     H_    0.033930 0.498129 0.933456 0.206734
H17   H     H_    0.140222 0.659783 0.924747 0.239903
H18   H     H_    0.859749 0.659959 0.075177 0.239653
H19   H     H_    0.640222 0.159784 0.924747 0.239903
H20   H     H_    0.359749 0.159959 0.075177 0.239653
H21   H     H_    0.436284 0.648165 0.549176 0.170811
H22   H     H_    0.452702 0.654985 0.422014 0.159856
H23   H     H_    0.936292 0.148158 0.549177 0.170815
H24   H     H_    0.952707 0.154978 0.422015 0.159859
H25   H     H_    0.539781 0.020844 0.441114 0.152368
H26   H     H_    0.520520 0.015532 0.569788 0.139308
H27   H     H_    0.039771 0.520849 0.441111 0.152368
H28   H     H_    0.020512 0.515538 0.569786 0.139309
O1    O     O_R   0.214270 0.709000 0.827470 -0.493247
O2    O     O_R   0.785730 0.709000 0.172530 -0.495983
O3    O     O_R   0.714270 0.209000 0.827470 -0.493248
O4    O     O_R   0.285730 0.209000 0.172530 -0.495983
O5    O     O_R   0.445950 0.919440 0.676520 -0.508344
O6    O     O_R   0.554050 0.919440 0.323480 -0.509429
O7    O     O_R   0.945950 0.419440 0.676520 -0.508344
O8    O     O_R   0.054050 0.419440 0.323480 -0.509428
O9    O     O_R   0.456730 0.717630 0.669840 -0.501879
O10   O     O_R   0.543270 0.717630 0.330160 -0.483168
O11   O     O_R   0.956730 0.217630 0.669840 -0.501880
O12   O     O_R   0.043270 0.217630 0.330160 -0.483169
O13   O     O_R   0.320620 0.625640 0.672920 -0.478721
O14   O     O_R   0.679380 0.625640 0.327080 -0.468775
O15   O     O_R   0.820620 0.125640 0.672920 -0.478720
O16   O     O_R   0.179380 0.125640 0.327080 -0.468774
O17   O     O_3   0.334280 0.834290 0.749180 -0.343410
O18   O     O_3   0.665720 0.834290 0.250820 -0.332138
O19   O     O_3   0.834280 0.334290 0.749180 -0.343410
O20   O     O_3   0.165720 0.334290 0.250820 -0.332138
O21   O     O_R   0.236160 0.958490 0.823130 -0.433948
O22   O     O_R   0.763840 0.958490 0.176870 -0.437866
O23   O     O_R   0.736160 0.458490 0.823130 -0.433948
O24   O     O_R   0.263840 0.458490 0.176870 -0.437866
O25   O     O_R   0.332080 0.075470 0.831280 -0.409282
O26   O     O_R   0.667920 0.075470 0.168720 -0.416051
O27   O     O_R   0.832080 0.575470 0.831280 -0.409282
O28   O     O_R   0.167920 0.575470 0.168720 -0.416050
O29   O     O_R   0.446300 0.918110 0.826620 -0.484619
O30   O     O_R   0.553700 0.918110 0.173380 -0.488264
O31   O     O_R   0.946300 0.418110 0.826620 -0.484619
O32   O     O_R   0.053700 0.418110 0.173380 -0.488264
O33   O     O_R   0.457110 0.716200 0.831760 -0.465375
O34   O     O_R   0.542890 0.716200 0.168240 -0.469570
O35   O     O_R   0.957110 0.216200 0.831760 -0.465375
O36   O     O_R   0.042890 0.216200 0.168240 -0.469570
O37   O     O_R   0.320980 0.624310 0.823030 -0.446204
O38   O     O_R   0.679020 0.624310 0.176970 -0.451505
O39   O     O_R   0.820980 0.124310 0.823030 -0.446204
O40   O     O_R   0.179020 0.124310 0.176970 -0.451505
O41   O     O_R   0.213890 0.710430 0.665540 -0.530123
O42   O     O_R   0.786110 0.710430 0.334460 -0.527539
O43   O     O_R   0.713890 0.210430 0.665540 -0.530125
O44   O     O_R   0.286110 0.210430 0.334460 -0.527539
O45   O     O_R   0.235810 0.959820 0.673020 -0.512686
O46   O     O_R   0.764190 0.959820 0.326980 -0.507328
O47   O     O_R   0.735810 0.459820 0.673020 -0.512686
O48   O     O_R   0.264190 0.459820 0.326980 -0.507329
O49   O     O_R   0.331700 0.076900 0.669350 -0.496360
O50   O     O_R   0.668300 0.076900 0.330650 -0.510057
O51   O     O_R   0.831700 0.576900 0.669350 -0.496362
O52   O     O_R   0.168300 0.576900 0.330650 -0.510054
I1    I     I_    0.328180 0.784162 0.052481 -0.362069
I2    I     I_    0.671375 0.783981 0.947466 -0.350799
I3    I     I_    0.828181 0.284162 0.052482 -0.362069
I4    I     I_    0.171375 0.283981 0.947465 -0.350798
I5    I     I_    0.359124 0.391040 0.593384 -0.341137
I6    I     I_    0.592679 0.473170 0.424175 -0.374866
I7    I     I_    0.859128 0.891045 0.593382 -0.341143
I8    I     I_    0.092679 0.973168 0.424174 -0.374870
I9    I     I_    0.541443 0.539807 0.913470 0.068091
I10   I     I_    0.457618 0.540271 0.087445 0.058611
I11   I     I_    0.041443 0.039807 0.913470 0.068092
I12   I     I_    0.957618 0.040271 0.087445 0.058610
F1    F     F_    0.354440 0.468533 0.925938 -0.525683
F2    F     F_    0.645236 0.468814 0.074150 -0.527530
F3    F     F_    0.854440 0.968532 0.925938 -0.525683
F4    F     F_    0.145236 0.968814 0.074150 -0.527530
F5    F     F_    0.324902 0.392641 0.060786 -0.563788
F6    F     F_    0.674624 0.393172 0.939329 -0.563655
F7    F     F_    0.824902 0.892641 0.060786 -0.563788
F8    F     F_    0.174624 0.893172 0.939329 -0.563655
F9    F     F_    0.107574 0.617558 0.052531 -0.563236
F10   F     F_    0.892362 0.617845 0.947434 -0.562817
F11   F     F_    0.607575 0.117560 0.052531 -0.563235
F12   F     F_    0.392362 0.117846 0.947434 -0.562818

loop_
_geom_bond_atom_site_label_1
_geom_bond_atom_site_label_2
_ccdc_geom_bond_type
C58   C62   A    
C49   H1    S    
C49   C53   A    
C55   C59   A    
C63   H11   S    
C42   H26   S    
C34   C37   A    
C77   O45   A    
C41   C42   A    
C14   C18   A    
Cr9   O33   S    
C19   C23   A    
C35   C36   A    
C78   O50   A    
C50   C54   A    
C25   H17   S    
Cr2   O18   S    
C5    C94   S    
C3    O27   A    
C7    C8    S    
C23   F11   S    
C46   C98   S    
C15   C19   A    
C7    C96   S    
Cr2   O46   S    
C7    C99   S    
C37   C41   A    
Cr11  O35   S    
Cr6   O26   S    
C95   I3    S    
C39   C84   S    
C6    I10   S    
C67   I7    S    
C64   C68   A    
C5    I9    S    
C5    C6    S    
C30   C74   S    
C53   H5    S    
C88   O44   A    
C29   C73   S    
C94   C98   S    
C95   C99   S    
C36   H24   S    
Cr10  O14   S    
C92   C96   S    
C47   C99   S    
C3    C18   S    
C61   H9    S    
C46   O34   A    
C96   I4    S    
C9    C13   A    
C7    I11   S    
C72   C88   S    
C48   O32   A    
C80   O48   A    
C11   C15   A    
Cr5   O17   S    
Cr3   O43   S    
Cr5   O25   S    
C74   O38   A    
C91   H15   S    
C15   F7    S    
Cr12  O12   S    
C43   H27   S    
C33   H21   S    
C78   O46   A    
C23   C27   A    
C91   C100  S    
C75   O39   A    
C2    O26   A    
C90   C97   S    
C51   C55   A    
C26   H18   S    
C9    C29   A    
Cr12  O40   S    
C73   O37   A    
C84   O8    A    
Cr8   O28   S    
Cr1   O17   S    
C44   H28   S    
C49   C69   A    
C12   C32   A    
Cr11  O39   S    
C56   H8    S    
C57   C80   S    
C40   C83   S    
C8    C95   S    
Cr1   O1    S    
Cr4   O20   S    
C48   C100  S    
C92   H16   S    
C59   C78   S    
Cr6   O18   S    
C82   O6    A    
Cr9   O17   S    
C90   C94   S    
C83   O11   A    
C52   H4    S    
C25   C29   A    
Cr4   O48   S    
Cr7   O27   S    
C60   C77   S    
C59   C63   A    
C14   F6    S    
Cr6   O30   S    
C27   C31   A    
Cr2   O42   S    
C12   C16   A    
C16   F8    S    
Cr3   O47   S    
C73   O1    A    
C10   C14   A    
C94   I2    S    
C35   H23   S    
C91   C92   S    
C12   F4    S    
C62   C66   A    
Cr7   O31   S    
C89   H13   S    
C76   O40   A    
C64   H12   S    
C91   C95   S    
C89   C93   S    
C51   H3    S    
C27   H19   S    
C4    O28   A    
Cr3   O3    S    
C68   C72   A    
C50   H2    S    
C48   O36   A    
Cr9   O9    S    
C43   C44   A    
C63   C67   A    
C32   C76   S    
C52   C72   A    
C69   C85   S    
C13   F5    S    
Cr7   O7    S    
C10   C30   A    
C93   C97   S    
C31   C75   S    
C11   F3    S    
C34   H22   S    
C28   C32   A    
C16   C20   A    
C6    C93   S    
Cr5   O5    S    
Cr7   O19   S    
C4    O24   A    
C33   C34   A    
C90   H14   S    
Cr11  O11   S    
C11   C31   A    
C85   O13   A    
C57   C61   A    
C84   O12   A    
C66   I6    S    
C46   O30   A    
C75   O3    A    
C58   C79   S    
C83   O7    A    
C4    C17   S    
C76   O4    A    
C82   O10   A    
Cr12  O36   S    
C5    C97   S    
C10   F2    S    
C81   O5    A    
C22   F10   S    
C38   C81   S    
C71   C87   S    
Cr5   O29   S    
C21   F9    S    
C37   C82   S    
Cr6   O50   S    
C40   C44   A    
C88   O16   A    
C6    C98   S    
C62   H10   S    
Cr9   O13   S    
Cr2   O22   S    
C54   C58   A    
C45   C97   S    
C65   C69   A    
C21   C25   A    
C1    C20   S    
C85   O41   A    
Cr12  O20   S    
Cr4   O44   S    
C2    C19   S    
C18   C22   A    
C41   H25   S    
C36   C39   A    
C93   I1    S    
C24   C28   A    
Cr11  O19   S    
Cr10  O10   S    
Cr10  O18   S    
Cr4   O24   S    
C47   O31   A    
C51   C71   A    
C79   O47   A    
Cr8   O20   S    
C87   O15   A    
C3    O23   A    
C22   C26   A    
Cr3   O23   S    
C33   C38   A    
Cr6   O6    S    
C68   I8    S    
C89   C98   S    
C60   C64   A    
C77   O49   A    
C54   H6    S    
C35   C40   A    
C86   O14   A    
C74   O2    A    
C1    O25   A    
C9    F1    S    
C87   O43   A    
C24   F12   S    
Cr3   O19   S    
C50   C70   A    
Cr10  O34   S    
Cr8   O32   S    
C81   O9    A    
C96   C100  S    
Cr1   O21   S    
C8    I12   S    
Cr5   O49   S    
C53   C57   A    
C67   C71   A    
C61   C65   A    
C8    C100  S    
Cr1   O41   S    
C17   C21   A    
Cr4   O4    S    
C80   O52   A    
C1    O21   A    
C13   C17   A    
C38   C42   A    
C56   C60   A    
C45   O33   A    
C55   H7    S    
C66   C70   A    
C39   C43   A    
Cr1   O45   S    
Cr12  O16   S    
Cr7   O51   S    
C86   O42   A    
Cr9   O37   S    
Cr10  O38   S    
Cr8   O52   S    
C79   O51   A    
Cr2   O2    S    
C28   H20   S    
C89   C90   S    
C65   I5    S    
Cr11  O15   S    
C20   C24   A    
C47   O35   A    
C45   O29   A    
C52   C56   A    
C92   C99   S    
C2    O22   A    
Cr8   O8    S    
C26   C30   A    
C70   C86   S    
