data_mof_unit_28194.cif
_audit_creation_date              2012-12-10T18:01:11-0500
_audit_creation_method            fapswitch 2.2
_symmetry_space_group_name_H-M    P1
_symmetry_Int_Tables_number       1
_space_group_crystal_system       triclinic
_cell_length_a                    18.322636
_cell_length_b                    18.374514
_cell_length_c                    25.772569
_cell_angle_alpha                 89.908106
_cell_angle_beta                  90.015356
_cell_angle_gamma                 89.89795
_cell_volume                      8676.81349474

loop_
_atom_site_label
_atom_site_type_symbol
_atom_type_description
_atom_site_fract_x
_atom_site_fract_y
_atom_site_fract_z
_atom_type_partial_charge
C1    C     C_R   0.860499 0.140830 0.749193 0.865442
C2    C     C_R   0.195759 0.197330 0.250628 -0.281028
C3    C     C_R   0.236560 0.684666 0.224260 0.423209
C4    C     C_3   0.677858 0.110274 0.333540 0.079934
C5    C     C_3   0.692648 0.038788 0.362052 -0.267020
C6    C     C_3   0.650776 0.035633 0.413219 -1.022454
C7    C     C_3   0.285022 0.118136 0.347496 0.103446
C8    C     C_3   0.291197 0.040578 0.368722 -0.271230
C9    C     C_3   0.293877 0.039764 0.427903 -1.013971
C10   C     C_3   0.304148 0.098825 0.673300 0.103768
C11   C     C_3   0.309319 0.017493 0.661170 -0.275065
C12   C     C_3   0.323257 0.004238 0.603541 -0.993597
C13   C     C_R   0.195228 0.197151 0.747729 -0.290437
C14   C     C_3   0.729310 0.142133 0.638173 0.091943
C15   C     C_3   0.730893 0.071487 0.606971 -0.306916
C16   C     C_3   0.730390 0.086584 0.548715 -1.014158
C17   C     C_3   0.224513 0.648230 0.869214 0.107749
C18   C     C_3   0.217428 0.686494 0.921677 -0.343995
C19   C     C_3   0.151364 0.659066 0.951778 -0.971480
C20   C     C_3   0.757639 0.655856 0.870805 0.090160
C21   C     C_3   0.746674 0.588449 0.904811 -0.294661
C22   C     C_3   0.742106 0.607946 0.962275 -1.017949
C23   C     C_3   0.828516 0.591662 0.193894 0.096628
C24   C     C_R   0.805866 0.198847 0.747346 -0.276305
C25   C     C_3   0.875630 0.584699 0.145123 -0.332909
C26   C     C_3   0.949536 0.550020 0.157271 -0.984601
C27   C     C_3   0.209912 0.626160 0.147756 0.087796
C28   C     C_3   0.231545 0.555574 0.120336 -0.270277
C29   C     C_3   0.217654 0.560240 0.062099 -1.048961
C30   C     C_3   0.931903 0.299566 0.270053 0.118506
C31   C     C_3   0.922705 0.378250 0.288593 -0.337502
C32   C     C_3   0.967094 0.392055 0.337680 -1.003039
C33   C     C_3   0.113972 0.279554 0.154186 0.131237
C34   C     C_3   0.035886 0.282811 0.133385 -0.284759
C35   C     C_R   0.304194 0.697127 0.749926 -0.263831
C36   C     C_3   0.034129 0.277502 0.074309 -1.009450
C37   C     C_3   0.066614 0.288955 0.713804 0.153263
C38   C     C_3   0.019598 0.357229 0.707942 -0.308090
C39   C     C_3   0.971463 0.352944 0.659665 -1.008599
C40   C     C_3   0.885111 0.279267 0.847672 0.136548
C41   C     C_3   0.962608 0.287941 0.868744 -0.285943
C42   C     C_3   0.963225 0.292500 0.927881 -1.024871
C43   C     C_3   0.382589 0.778254 0.650853 0.151779
C44   C     C_3   0.427675 0.758325 0.603104 -0.330938
C45   C     C_3   0.484176 0.816645 0.590663 -0.995433
C46   C     C_R   0.698030 0.694928 0.748742 -0.278160
C47   C     C_3   0.675640 0.739825 0.623597 0.138774
C48   C     C_3   0.641532 0.672863 0.598147 -0.323597
C49   C     C_3   0.669746 0.661807 0.543018 -0.999350
C50   C     C_3   0.590070 0.815503 0.309028 0.167539
C51   C     C_3   0.562443 0.852994 0.358149 -0.299396
C52   C     C_3   0.510339 0.915234 0.345290 -1.010474
C53   C     C_3   0.369347 0.754489 0.355821 0.156534
C54   C     C_3   0.336450 0.815408 0.389225 -0.345275
C55   C     C_3   0.341486 0.797208 0.446942 -1.020847
C56   C     C_3   0.181546 0.786990 0.622701 0.135156
C57   C     C_R   0.697771 0.695313 0.251212 -0.290886
C58   C     C_3   0.205189 0.807863 0.567778 -0.320949
C59   C     C_3   0.159908 0.768639 0.526773 -1.007868
C60   C     C_3   0.691960 0.923679 0.709611 0.148714
C61   C     C_3   0.612872 0.923979 0.690418 -0.381124
C62   C     C_3   0.570781 0.989620 0.710974 -0.956759
C63   C     C_3   0.788883 0.816586 0.374738 0.141872
C64   C     C_3   0.770055 0.857254 0.424616 -0.328821
C65   C     C_3   0.811633 0.826561 0.471117 -1.012502
C66   C     C_3   0.298194 0.935907 0.240713 0.116992
C67   C     C_3   0.378837 0.955869 0.236065 -0.333361
C68   C     C_R   0.303037 0.696411 0.250696 -0.298762
C69   C     C_3   0.392063 0.007298 0.190506 -0.957886
C70   C     C_3   0.769031 0.386043 0.153177 0.149226
C71   C     C_3   0.836854 0.365600 0.121569 -0.349427
C72   C     C_3   0.825136 0.380165 0.063820 -1.001433
C73   C     C_3   0.190480 0.435493 0.253494 0.137506
C74   C     C_3   0.113939 0.464160 0.241189 -0.305048
C75   C     C_3   0.089883 0.521819 0.280201 -0.976393
C76   C     C_3   0.187683 0.405760 0.820936 0.161046
C77   C     C_3   0.132280 0.467931 0.823368 -0.329828
C78   C     C_3   0.105102 0.480030 0.878660 -1.021789
C79   C     C_R   0.821740 0.267607 0.234754 0.338093
C80   C     C_3   0.817327 0.432717 0.755435 0.127974
C81   C     C_3   0.869514 0.484090 0.783526 -0.296857
C82   C     C_3   0.902393 0.540096 0.746594 -0.956463
C83   C     C_3   0.990582 0.824663 0.941698 0.155045
C84   C     C_3   0.981809 0.773647 0.988423 -0.337601
C85   C     C_3   0.931369 0.710231 0.975724 -1.025173
C86   C     C_3   0.141056 0.892561 0.055745 0.118671
C87   C     C_3   0.175626 0.832120 0.088381 -0.321999
C88   C     C_3   0.258312 0.840806 0.091681 -1.019210
C89   C     C_3   0.519501 0.321063 0.448984 0.150264
C90   C     C_R   0.180283 0.266235 0.228577 0.308242
C91   C     C_3   0.547480 0.262572 0.411783 -0.313395
C92   C     C_3   0.497558 0.196156 0.411651 -1.020229
C93   C     C_3   0.645452 0.405890 0.565091 0.129404
C94   C     C_3   0.683001 0.342987 0.593475 -0.313673
C95   C     C_3   0.758787 0.364281 0.612751 -1.021153
C96   C     C_R   0.175081 0.270176 0.756830 0.301553
C97   C     C_R   0.140054 0.140086 0.749690 0.874815
C98   C     C_R   0.819545 0.265652 0.772691 0.300519
C99   C     C_R   0.291760 0.738182 0.704366 0.290921
C100  C     C_R   0.695004 0.751442 0.711638 0.327378
C101  C     C_R   0.694045 0.752761 0.287600 0.303419
C102  C     C_R   0.316160 0.763943 0.275599 0.343313
C103  C     C_R   0.235059 0.789278 0.703260 0.353997
C104  C     C_R   0.742859 0.809944 0.715709 0.372248
C105  C     C_R   0.751710 0.801822 0.291334 0.364819
C106  C     C_R   0.267288 0.820961 0.268545 0.401449
C107  C     C_R   0.766607 0.318892 0.228315 0.392799
C108  C     C_R   0.140141 0.140277 0.250081 0.866269
C109  C     C_R   0.232156 0.321553 0.231400 0.381222
C110  C     C_R   0.229179 0.323691 0.760621 0.384171
C111  C     C_R   0.767145 0.320870 0.770687 0.364249
C112  C     C_R   0.195618 0.803641 0.748833 -0.212676
C113  C     C_R   0.802463 0.805348 0.750202 -0.240450
C114  C     C_R   0.806058 0.802234 0.252835 -0.243789
C115  C     C_R   0.198008 0.806308 0.247577 -0.247705
C116  C     C_R   0.696472 0.304118 0.248388 -0.238965
C117  C     C_R   0.302026 0.306094 0.251420 -0.235946
C118  C     C_R   0.302145 0.305381 0.749148 -0.223682
C119  C     C_R   0.859854 0.140066 0.250242 0.875919
C120  C     C_R   0.698625 0.306797 0.748184 -0.216122
C121  C     C_R   0.026000 0.935646 0.973872 0.375125
C122  C     C_R   0.033277 0.939395 0.027387 0.361762
C123  C     C_R   0.534778 0.439373 0.473384 0.359662
C124  C     C_R   0.539074 0.441989 0.527279 0.349623
C125  C     C_R   0.004974 0.000088 0.053685 -0.159817
C126  C     C_R   0.001565 0.998079 0.946713 -0.166565
C127  C     C_R   0.505652 0.500238 0.553635 -0.155602
C128  C     C_R   0.504246 0.499133 0.446611 -0.150098
C129  C     C_R   0.978984 0.060757 0.026669 -0.272256
C130  C     C_R   0.359408 0.639865 0.250415 0.859595
C131  C     C_R   0.978600 0.060245 0.973316 -0.266916
C132  C     C_R   0.475772 0.559086 0.526636 -0.263700
C133  C     C_R   0.475898 0.558959 0.473293 -0.268984
C134  C     C_R   0.139792 0.859802 0.749605 0.882850
C135  C     C_R   0.859424 0.860463 0.750214 0.865720
C136  C     C_R   0.860652 0.859422 0.250888 0.870622
C137  C     C_R   0.140623 0.860750 0.249328 0.848851
C138  C     C_R   0.640063 0.359930 0.249545 0.879059
C139  C     C_R   0.359398 0.360597 0.250416 0.857841
C140  C     C_R   0.359395 0.360425 0.749743 0.886843
C141  C     C_R   0.640429 0.639982 0.250138 0.874740
C142  C     C_R   0.640671 0.360723 0.749581 0.857093
C143  C     C_R   0.000365 0.999573 0.890898 0.847389
C144  C     C_R   0.001534 0.000065 0.109248 0.844378
C145  C     C_R   0.501177 0.499769 0.390861 0.854003
C146  C     C_R   0.501317 0.500056 0.609221 0.837270
C147  C     C_R   0.999895 0.000735 0.608665 0.737190
C148  C     C_R   0.999943 0.000806 0.391349 0.736336
C149  C     C_R   0.499877 0.499936 0.108654 0.742537
C150  C     C_R   0.499846 0.499897 0.891346 0.743649
C151  C     C_3   0.920794 0.011361 0.529791 -0.382981
C152  C     C_R   0.640899 0.639461 0.749413 0.859282
C153  C     C_3   0.030441 0.928742 0.530074 -0.401663
C154  C     C_3   0.031123 0.928917 0.470160 -0.394672
C155  C     C_3   0.920953 0.011428 0.470258 -0.393347
C156  C     C_3   0.419998 0.495931 0.029800 -0.390953
C157  C     C_3   0.542392 0.433221 0.030064 -0.402287
C158  C     C_3   0.543103 0.433745 0.970122 -0.394803
C159  C     C_3   0.419933 0.494928 0.970238 -0.384331
C160  C     C_3   0.047078 0.064946 0.529976 -0.402091
C161  C     C_3   0.046973 0.065158 0.469965 -0.399247
C162  C     C_3   0.535407 0.570258 0.029861 -0.393367
C163  C     C_R   0.360065 0.640367 0.750108 0.913257
C164  C     C_3   0.534019 0.570782 0.969901 -0.411929
C165  C     C_3   0.999551 0.001491 0.550928 0.209124
C166  C     C_3   0.999753 0.001598 0.449113 0.211476
C167  C     C_3   0.499424 0.499829 0.050905 0.207565
C168  C     C_3   0.499244 0.499798 0.949096 0.207478
C169  C     C_R   0.210280 0.765147 0.794414 -0.383321
C170  C     C_R   0.808656 0.746364 0.784195 -0.389912
C171  C     C_R   0.808728 0.746674 0.216053 -0.374482
C172  C     C_R   0.183204 0.738581 0.225380 -0.391844
C173  C     C_R   0.680076 0.235318 0.268209 -0.404015
C174  C     C_R   0.804008 0.196693 0.251489 -0.294442
C175  C     C_R   0.317497 0.237650 0.272418 -0.376293
C176  C     C_R   0.320979 0.233746 0.736654 -0.379715
C177  C     C_R   0.685843 0.241132 0.722714 -0.383669
C178  C     C_R   0.733235 0.180743 0.269939 0.449010
C179  C     C_R   0.264423 0.183766 0.273658 0.412178
C180  C     C_R   0.268109 0.179409 0.735561 0.433336
C181  C     C_R   0.740060 0.188546 0.719739 0.426026
C182  C     C_R   0.263624 0.710678 0.795357 0.435338
C183  C     C_R   0.755290 0.692681 0.785527 0.424543
C184  C     C_R   0.757967 0.690535 0.217022 0.438609
H1    H     H_    0.025708 0.117848 0.544527 0.148041
H2    H     H_    0.855138 0.741643 0.809952 0.198766
H3    H     H_    0.139909 0.228146 0.140286 0.130618
H4    H     H_    0.144879 0.326833 0.138563 0.165685
H5    H     H_    0.003771 0.237101 0.149982 0.278294
H6    H     H_    0.010011 0.334800 0.145602 0.222479
H7    H     H_    0.063665 0.324121 0.056669 0.268270
H8    H     H_    0.976682 0.278511 0.060675 0.275583
H9    H     H_    0.059599 0.225742 0.061298 0.272577
H10   H     H_    0.030602 0.240369 0.712733 0.155162
H11   H     H_    0.104293 0.286100 0.679721 0.086718
H12   H     H_    0.984457 0.363793 0.742705 0.255543
H13   H     H_    0.851435 0.745333 0.187008 0.208688
H14   H     H_    0.055594 0.405677 0.704980 0.219205
H15   H     H_    0.005451 0.344654 0.624480 0.264308
H16   H     H_    0.940413 0.404447 0.654989 0.264360
H17   H     H_    0.932042 0.307339 0.663379 0.265699
H18   H     H_    0.862540 0.226544 0.861882 0.125758
H19   H     H_    0.851009 0.324638 0.862795 0.170933
H20   H     H_    0.996421 0.240822 0.856246 0.267906
H21   H     H_    0.987228 0.338323 0.852498 0.224832
H22   H     H_    0.932209 0.341074 0.941062 0.269713
H23   H     H_    0.020357 0.297218 0.941851 0.277352
H24   H     H_    0.130105 0.727167 0.208811 0.199674
H25   H     H_    0.938549 0.242875 0.945090 0.265919
H26   H     H_    0.419929 0.783190 0.684839 0.146651
H27   H     H_    0.356035 0.831787 0.643783 0.163450
H28   H     H_    0.455899 0.705820 0.610394 0.246883
H29   H     H_    0.391074 0.751415 0.569089 0.214704
H30   H     H_    0.456917 0.869502 0.582543 0.268043
H31   H     H_    0.515976 0.800263 0.555902 0.266669
H32   H     H_    0.522310 0.823170 0.623744 0.289649
H33   H     H_    0.736173 0.732068 0.624775 0.117522
H34   H     H_    0.664543 0.788384 0.599044 0.170209
H35   H     H_    0.625103 0.223540 0.281073 0.186740
H36   H     H_    0.654487 0.623759 0.621676 0.208476
H37   H     H_    0.581385 0.679355 0.596805 0.252898
H38   H     H_    0.655783 0.709569 0.518436 0.273905
H39   H     H_    0.644053 0.612622 0.525980 0.275931
H40   H     H_    0.729884 0.654100 0.543272 0.261553
H41   H     H_    0.542891 0.792395 0.287527 0.172376
H42   H     H_    0.615855 0.857804 0.283793 0.120124
H43   H     H_    0.534141 0.812778 0.383257 0.218708
H44   H     H_    0.609464 0.875284 0.379983 0.233746
H45   H     H_    0.538644 0.957705 0.322150 0.267376
H46   H     H_    0.371395 0.225294 0.287403 0.202651
H47   H     H_    0.489893 0.940173 0.381720 0.268720
H48   H     H_    0.463261 0.894407 0.322867 0.298103
H49   H     H_    0.424043 0.740260 0.371422 0.173124
H50   H     H_    0.335660 0.704145 0.359459 0.102885
H51   H     H_    0.365632 0.867284 0.381951 0.255092
H52   H     H_    0.278101 0.823205 0.378883 0.231174
H53   H     H_    0.312231 0.745643 0.455421 0.270893
H54   H     H_    0.316149 0.841619 0.469940 0.273985
H55   H     H_    0.399478 0.791637 0.458943 0.271697
H56   H     H_    0.122612 0.799686 0.627777 0.125355
H57   H     H_    0.377333 0.219432 0.728908 0.194600
H58   H     H_    0.189101 0.726983 0.627370 0.141842
H59   H     H_    0.199722 0.867601 0.562438 0.220839
H60   H     H_    0.263568 0.793484 0.562360 0.231147
H61   H     H_    0.168779 0.708943 0.529492 0.271305
H62   H     H_    0.176583 0.787296 0.487536 0.273629
H63   H     H_    0.100959 0.780594 0.532032 0.263403
H64   H     H_    0.717127 0.977004 0.700367 0.212138
H65   H     H_    0.693072 0.918860 0.752860 0.094099
H66   H     H_    0.612106 0.925174 0.647302 0.231146
H67   H     H_    0.585092 0.873686 0.703776 0.246398
H68   H     H_    0.633694 0.230405 0.704454 0.199547
H69   H     H_    0.570243 0.989157 0.754070 0.267370
H70   H     H_    0.513582 0.987557 0.696778 0.263958
H71   H     H_    0.596030 0.041006 0.697137 0.289662
H72   H     H_    0.848928 0.818808 0.368333 0.124371
H73   H     H_    0.772258 0.758582 0.380077 0.136490
H74   H     H_    0.783220 0.915766 0.419774 0.223965
H75   H     H_    0.710704 0.852327 0.432381 0.215618
H76   H     H_    0.796369 0.768810 0.477765 0.272740
H77   H     H_    0.797720 0.858348 0.506379 0.269680
H78   H     H_    0.871402 0.830077 0.464546 0.259849
H79   H     H_    0.958268 0.108273 0.046760 0.194161
H80   H     H_    0.266126 0.986482 0.246783 0.209949
H81   H     H_    0.279305 0.912417 0.203084 0.095413
H82   H     H_    0.397040 0.983037 0.272237 0.234668
H83   H     H_    0.411641 0.905542 0.230501 0.227773
H84   H     H_    0.375692 0.981026 0.153510 0.255726
H85   H     H_    0.450979 0.021024 0.188390 0.266881
H86   H     H_    0.360443 0.058433 0.195679 0.282286
H87   H     H_    0.752394 0.442291 0.142488 0.179086
H88   H     H_    0.722407 0.350114 0.142173 0.109119
H89   H     H_    0.884320 0.397734 0.135177 0.246364
H90   H     H_    0.958652 0.107846 0.952878 0.187181
H91   H     H_    0.849310 0.306909 0.126979 0.242539
H92   H     H_    0.778582 0.347511 0.049097 0.264394
H93   H     H_    0.874953 0.364843 0.041888 0.275021
H94   H     H_    0.813935 0.438835 0.056965 0.266148
H95   H     H_    0.228669 0.482255 0.256119 0.193558
H96   H     H_    0.189505 0.408791 0.292529 0.079809
H97   H     H_    0.112821 0.488357 0.201712 0.234450
H98   H     H_    0.074753 0.418186 0.241916 0.237932
H99   H     H_    0.092388 0.499877 0.320323 0.260109
H100  H     H_    0.032868 0.538652 0.271766 0.265009
H101  H     H_    0.450945 0.604517 0.546756 0.182736
H102  H     H_    0.125613 0.570418 0.277487 0.292250
H103  H     H_    0.236399 0.420512 0.844384 0.143772
H104  H     H_    0.162371 0.356625 0.838957 0.146404
H105  H     H_    0.157972 0.518703 0.808729 0.215463
H106  H     H_    0.084861 0.454981 0.798127 0.232162
H107  H     H_    0.074301 0.431711 0.892414 0.277735
H108  H     H_    0.068362 0.528140 0.879643 0.273179
H109  H     H_    0.151779 0.489702 0.905211 0.260350
H110  H     H_    0.774868 0.465119 0.734899 0.145205
H111  H     H_    0.849366 0.401778 0.725958 0.133931
H112  H     H_    0.104214 0.059334 0.544143 0.178732
H113  H     H_    0.451887 0.604760 0.452896 0.181639
H114  H     H_    0.839686 0.512906 0.814793 0.262982
H115  H     H_    0.914168 0.451927 0.801724 0.207664
H116  H     H_    0.934345 0.512541 0.715729 0.253823
H117  H     H_    0.939396 0.576686 0.768500 0.267646
H118  H     H_    0.858623 0.573536 0.728534 0.275945
H119  H     H_    0.003014 0.791353 0.906831 0.174118
H120  H     H_    0.937735 0.852829 0.933578 0.110177
H121  H     H_    0.035865 0.752100 0.000390 0.254177
H122  H     H_    0.957839 0.804164 0.021452 0.243375
H123  H     H_    0.876934 0.731154 0.963933 0.262837
H124  H     H_    0.897572 0.063603 0.544061 0.174382
H125  H     H_    0.924816 0.675184 0.010556 0.278062
H126  H     H_    0.954525 0.676823 0.943814 0.268334
H127  H     H_    0.154475 0.946007 0.073855 0.105402
H128  H     H_    0.164560 0.890410 0.015899 0.164822
H129  H     H_    0.152466 0.833736 0.128147 0.244222
H130  H     H_    0.162685 0.778296 0.071046 0.213765
H131  H     H_    0.283153 0.834316 0.052650 0.272766
H132  H     H_    0.281336 0.798735 0.117987 0.261663
H133  H     H_    0.272534 0.895271 0.107273 0.260210
H134  H     H_    0.462771 0.336128 0.437292 0.125976
H135  H     H_    0.086871 0.920674 0.544673 0.185324
H136  H     H_    0.518371 0.297862 0.488876 0.169444
H137  H     H_    0.550165 0.285291 0.371855 0.258960
H138  H     H_    0.603371 0.245522 0.423504 0.212557
H139  H     H_    0.496065 0.170766 0.450789 0.270443
H140  H     H_    0.518221 0.155457 0.383473 0.264517
H141  H     H_    0.441382 0.212111 0.400031 0.262599
H142  H     H_    0.646533 0.454937 0.590476 0.109620
H143  H     H_    0.676229 0.417567 0.528710 0.144842
H144  H     H_    0.649214 0.326367 0.627191 0.246254
H145  H     H_    0.687851 0.295617 0.566908 0.211285
H146  H     H_    0.088082 0.921082 0.456181 0.183640
H147  H     H_    0.794173 0.379946 0.579600 0.273419
H148  H     H_    0.784189 0.317435 0.633230 0.259590
H149  H     H_    0.754865 0.410539 0.640304 0.251109
H150  H     H_    0.897054 0.063402 0.455805 0.169926
H151  H     H_    0.388041 0.543764 0.043530 0.182750
H152  H     H_    0.599571 0.434177 0.044667 0.176322
H153  H     H_    0.600578 0.436298 0.956247 0.183436
H154  H     H_    0.386744 0.541511 0.955657 0.182613
H155  H     H_    0.884947 0.966658 0.543940 0.189086
H156  H     H_    0.104036 0.059969 0.455666 0.178121
H157  H     H_    0.996861 0.882445 0.544376 0.154819
H158  H     H_    0.998310 0.882407 0.455477 0.149185
H159  H     H_    0.885802 0.966532 0.456269 0.191186
H160  H     H_    0.392362 0.446098 0.044541 0.176874
H161  H     H_    0.516903 0.381974 0.044236 0.152991
H162  H     H_    0.519148 0.382170 0.955326 0.151706
H163  H     H_    0.393537 0.443971 0.956435 0.168552
H164  H     H_    0.618343 0.114397 0.325654 0.139674
H165  H     H_    0.694923 0.155868 0.359461 0.129901
H166  H     H_    0.676006 0.992257 0.337240 0.251254
H167  H     H_    0.025221 0.118017 0.455494 0.148962
H168  H     H_    0.752075 0.033905 0.370096 0.237577
H169  H     H_    0.666608 0.081870 0.438497 0.275600
H170  H     H_    0.663398 0.984069 0.433795 0.264998
H171  H     H_    0.591097 0.038020 0.405930 0.278936
H172  H     H_    0.234555 0.143490 0.363722 0.133671
H173  H     H_    0.333489 0.149674 0.360424 0.128113
H174  H     H_    0.243511 0.008161 0.355530 0.267743
H175  H     H_    0.341641 0.014656 0.353557 0.223347
H176  H     H_    0.342212 0.070392 0.441946 0.270696
H177  H     H_    0.298001 0.982710 0.441890 0.274856
H178  H     H_    0.505894 0.618885 0.044814 0.153766
H179  H     H_    0.243551 0.064520 0.444217 0.259413
H180  H     H_    0.357209 0.124920 0.663587 0.131380
H181  H     H_    0.260268 0.122913 0.648528 0.134006
H182  H     H_    0.354342 0.992739 0.684160 0.208285
H183  H     H_    0.257437 0.990466 0.672316 0.277855
H184  H     H_    0.278258 0.027618 0.579859 0.265346
H185  H     H_    0.326038 0.944850 0.595968 0.270562
H186  H     H_    0.375795 0.029276 0.591628 0.263343
H187  H     H_    0.779169 0.174069 0.628158 0.132186
H188  H     H_    0.679905 0.173704 0.626804 0.137842
H189  H     H_    0.592917 0.573942 0.043534 0.187697
H190  H     H_    0.780782 0.040002 0.617113 0.249457
H191  H     H_    0.682341 0.038160 0.616837 0.223247
H192  H     H_    0.678762 0.114152 0.537407 0.270382
H193  H     H_    0.734677 0.034419 0.527205 0.275652
H194  H     H_    0.777174 0.121693 0.537713 0.260603
H195  H     H_    0.236391 0.589797 0.876452 0.168231
H196  H     H_    0.171584 0.649990 0.847769 0.125703
H197  H     H_    0.267565 0.676412 0.944936 0.219745
H198  H     H_    0.211876 0.746145 0.915841 0.231773
H199  H     H_    0.100336 0.671394 0.930190 0.271433
H200  H     H_    0.590473 0.576298 0.954898 0.187524
H201  H     H_    0.149237 0.686338 0.990140 0.265865
H202  H     H_    0.155483 0.599483 0.958115 0.272286
H203  H     H_    0.710086 0.693033 0.876537 0.123212
H204  H     H_    0.808559 0.683688 0.883213 0.135730
H205  H     H_    0.695576 0.560569 0.892989 0.249159
H206  H     H_    0.792866 0.550058 0.899069 0.218678
H207  H     H_    0.795381 0.628702 0.976157 0.281153
H208  H     H_    0.728136 0.558597 0.985126 0.267866
H209  H     H_    0.699507 0.649956 0.968980 0.264102
H210  H     H_    0.810890 0.536464 0.206175 0.190650
H211  H     H_    0.502488 0.618789 0.955916 0.160350
H212  H     H_    0.862534 0.613575 0.226319 0.118466
H213  H     H_    0.846476 0.550982 0.115998 0.222190
H214  H     H_    0.884947 0.639467 0.128025 0.226299
H215  H     H_    0.982232 0.586686 0.182375 0.269080
H216  H     H_    0.980041 0.540682 0.120652 0.269330
H217  H     H_    0.942284 0.497112 0.177417 0.263428
H218  H     H_    0.243183 0.671082 0.130687 0.131759
H219  H     H_    0.151111 0.637392 0.140498 0.141431
H220  H     H_    0.290439 0.544572 0.127031 0.257149
H221  H     H_    0.199888 0.509374 0.136481 0.239179
H222  H     H_    0.181458 0.779089 0.829687 0.196439
H223  H     H_    0.158621 0.569106 0.054536 0.277313
H224  H     H_    0.234647 0.508569 0.043319 0.272405
H225  H     H_    0.249560 0.605551 0.044804 0.273651
H226  H     H_    0.990534 0.289782 0.261910 0.204758
H227  H     H_    0.916868 0.260972 0.301756 0.089869
H228  H     H_    0.940675 0.416178 0.257543 0.230591
H229  H     H_    0.864383 0.389373 0.297238 0.234319
H230  H     H_    0.946921 0.357240 0.369881 0.263918
H231  H     H_    0.961448 0.449965 0.349261 0.273303
H232  H     H_    0.025709 0.379947 0.330845 0.270393
O1    O     O_3   0.000000 0.000000 0.749970 -0.494164
O2    O     O_R   0.646190 0.585480 0.219360 -0.601536
O3    O     O_R   0.646190 0.585480 0.780640 -0.607533
O4    O     O_R   0.353810 0.585480 0.780640 -0.612598
O5    O     O_R   0.146170 0.914530 0.719320 -0.609299
O6    O     O_R   0.853830 0.914530 0.719320 -0.613727
O7    O     O_R   0.853830 0.914530 0.280680 -0.597304
O8    O     O_R   0.146170 0.914530 0.280680 -0.625029
O9    O     O_R   0.646170 0.414530 0.219320 -0.632010
O10   O     O_R   0.353830 0.414530 0.219320 -0.612031
O11   O     O_R   0.353830 0.414530 0.780680 -0.630209
O12   O     O_3   1.000000 0.000000 0.250030 -0.495698
O13   O     O_R   0.646170 0.414530 0.780680 -0.601929
O14   O     O_R   0.085450 0.146180 0.780600 -0.624491
O15   O     O_R   0.914550 0.146180 0.780600 -0.623096
O16   O     O_R   0.914550 0.146180 0.219400 -0.629328
O17   O     O_R   0.085450 0.146180 0.219400 -0.627736
O18   O     O_R   0.585450 0.646180 0.280600 -0.607430
O19   O     O_R   0.414550 0.646180 0.280600 -0.633604
O20   O     O_R   0.414550 0.646180 0.719400 -0.627148
O21   O     O_R   0.585450 0.646180 0.719400 -0.612332
O22   O     O_R   0.914560 0.853830 0.780620 -0.666670
O23   O     O_3   0.500000 0.500000 0.249970 -0.495059
O24   O     O_R   0.085440 0.853830 0.780620 -0.654492
O25   O     O_R   0.085440 0.853830 0.219380 -0.659975
O26   O     O_R   0.914560 0.853830 0.219380 -0.656395
O27   O     O_R   0.414560 0.353830 0.280620 -0.663705
O28   O     O_R   0.585440 0.353830 0.280620 -0.660064
O29   O     O_R   0.585440 0.353830 0.719380 -0.664516
O30   O     O_R   0.414560 0.353830 0.719380 -0.651589
O31   O     O_R   0.000000 0.060730 0.866830 -0.658918
O32   O     O_R   1.000000 0.060730 0.133170 -0.667848
O33   O     O_R   0.500000 0.560730 0.366830 -0.658472
O34   O     O_3   0.500000 0.500000 0.750030 -0.499616
O35   O     O_R   0.500000 0.560730 0.633170 -0.678569
O36   O     O_R   0.939250 0.000010 0.633130 -0.657378
O37   O     O_R   0.060750 0.000010 0.633130 -0.651576
O38   O     O_R   0.060750 0.000010 0.366870 -0.653272
O39   O     O_R   0.939250 0.000010 0.366870 -0.660381
O40   O     O_R   0.439250 0.500010 0.133130 -0.663796
O41   O     O_R   0.560750 0.500010 0.133130 -0.652110
O42   O     O_R   0.560750 0.500010 0.866870 -0.659250
O43   O     O_R   0.439250 0.500010 0.866870 -0.651429
O44   O     O_R   1.000000 0.939270 0.866820 -0.631679
O45   O     O_R   0.853810 0.085480 0.719360 -0.620351
O46   O     O_R   1.000000 0.939270 0.133180 -0.599055
O47   O     O_R   0.500000 0.439270 0.366820 -0.625270
O48   O     O_R   0.500000 0.439270 0.633180 -0.599949
O49   O     O_3   0.716225 0.110333 0.285864 -0.606792
O50   O     O_3   0.282245 0.115485 0.292716 -0.631790
O51   O     O_3   0.288512 0.107862 0.726648 -0.617174
O52   O     O_3   0.727107 0.125532 0.691799 -0.631446
O53   O     O_3   0.284524 0.677609 0.841646 -0.626176
O54   O     O_3   0.763496 0.633533 0.818507 -0.612718
O55   O     O_3   0.765156 0.633317 0.182343 -0.608201
O56   O     O_R   0.146190 0.085480 0.719360 -0.632661
O57   O     O_3   0.221534 0.617835 0.201733 -0.624090
O58   O     O_3   0.892887 0.287508 0.223351 -0.630004
O59   O     O_3   0.111714 0.282104 0.208979 -0.637067
O60   O     O_3   0.102653 0.290737 0.762471 -0.624883
O61   O     O_3   0.887930 0.280866 0.792889 -0.619658
O62   O     O_3   0.330066 0.723197 0.659275 -0.626500
O63   O     O_3   0.642713 0.751412 0.672735 -0.621660
O64   O     O_3   0.637645 0.757859 0.323213 -0.606358
O65   O     O_3   0.379244 0.777203 0.303610 -0.624833
O66   O     O_3   0.222009 0.828983 0.658487 -0.636821
O67   O     O_R   0.146190 0.085480 0.280640 -0.629828
O68   O     O_3   0.732797 0.869378 0.683371 -0.630042
O69   O     O_3   0.752736 0.850178 0.332445 -0.618432
O70   O     O_3   0.287390 0.890128 0.284475 -0.635204
O71   O     O_3   0.784238 0.385979 0.207183 -0.638931
O72   O     O_3   0.214397 0.389954 0.212516 -0.634407
O73   O     O_3   0.209280 0.395586 0.768659 -0.623176
O74   O     O_3   0.782952 0.387679 0.792631 -0.624981
O75   O     O_3   0.049749 0.873468 0.948530 -0.632203
O76   O     O_3   0.064804 0.881940 0.054095 -0.629170
O77   O     O_3   0.566534 0.381976 0.446766 -0.628140
O78   O     O_R   0.853810 0.085480 0.280640 -0.606580
O79   O     O_3   0.572835 0.385642 0.553795 -0.632066
O80   O     O_R   0.353810 0.585480 0.219360 -0.617865
Zn1   Zn    Zn3+2 0.086750 0.999990 0.706190 0.960125
Zn2   Zn    Zn3+2 1.000000 0.086770 0.206250 0.945015
Zn3   Zn    Zn3+2 0.500000 0.586770 0.293750 0.964394
Zn4   Zn    Zn3+2 0.500000 0.586770 0.706250 0.954933
Zn5   Zn    Zn3+2 1.000000 0.913230 0.793740 0.945198
Zn6   Zn    Zn3+2 1.000000 0.913230 0.206260 0.958623
Zn7   Zn    Zn3+2 0.500000 0.413230 0.293740 0.941976
Zn8   Zn    Zn3+2 0.500000 0.413230 0.706260 0.961438
Zn9   Zn    Zn3+2 0.913250 0.999990 0.706190 0.947793
Zn10  Zn    Zn3+2 0.913250 0.999990 0.293810 0.968326
Zn11  Zn    Zn3+2 0.086750 0.999990 0.293810 0.938689
Zn12  Zn    Zn3+2 0.586750 0.499990 0.206190 0.967075
Zn13  Zn    Zn3+2 0.413250 0.499990 0.206190 0.947638
Zn14  Zn    Zn3+2 0.413250 0.499990 0.793810 0.971250
Zn15  Zn    Zn3+2 0.586750 0.499990 0.793810 0.963275
Zn16  Zn    Zn3+2 1.000000 0.086770 0.793750 0.955738

loop_
_geom_bond_atom_site_label_1
_geom_bond_atom_site_label_2
_ccdc_geom_bond_type
C99   C103  A    
C16   H193  S    
C157  C158  S    
C49   H38   S    
C29   H223  S    
C36   H7    S    
C65   H78   S    
C39   H16   S    
C110  C118  A    
C47   H33   S    
O37   Zn1   S    
C157  H152  S    
O34   Zn4   S    
C24   C98   A    
O9    Zn12  S    
C154  H146  S    
C27   O57   S    
C81   H115  S    
C84   H121  S    
C82   H116  S    
C128  C145  S    
C147  O37   A    
C125  C144  S    
C126  C143  S    
C100  C104  A    
O28   Zn7   S    
C73   C74   S    
C2    C90   A    
O2    Zn12  S    
C95   H148  S    
C135  O6    A    
C25   H213  S    
C61   H66   S    
O36   Zn9   S    
C71   H91   S    
C148  O39   A    
C136  O7    A    
C151  C155  S    
C86   H127  S    
C43   H27   S    
C82   H117  S    
C85   H123  S    
O43   Zn14  S    
O17   Zn2   S    
C21   C22   S    
O29   Zn8   S    
C117  C139  S    
C27   H218  S    
C118  C140  S    
C93   H143  S    
C15   H191  S    
C162  C164  S    
C8    H175  S    
C152  O3    A    
C149  O40   A    
C109  C117  A    
C51   C52   S    
C10   O51   S    
C164  C168  S    
C7    H173  S    
C115  C172  A    
C146  O35   A    
C35   C163  S    
C103  C112  A    
C123  O77   S    
C43   C44   S    
C37   C38   S    
C140  O30   A    
O39   Zn10  S    
C112  C169  A    
O12   Zn6   S    
C150  C168  S    
C5    H166  S    
C151  H124  S    
C42   H23   S    
O23   Zn7   S    
C55   H53   S    
C103  O66   S    
C58   H60   S    
C179  O50   S    
C130  O80   A    
C164  H200  S    
C42   H25   S    
C124  C127  A    
C6    H170  S    
C40   H18   S    
C49   H40   S    
C50   H42   S    
C14   H187  S    
C162  H178  S    
C77   H106  S    
C139  O10   A    
C56   H58   S    
O46   Zn6   S    
C17   H195  S    
C52   H48   S    
C112  C134  S    
C4    C5    S    
C76   O73   S    
C83   H119  S    
C1    O45   A    
C145  O33   A    
C163  O20   A    
C106  C115  A    
C63   O69   S    
C32   H231  S    
C183  O54   S    
C160  H112  S    
C64   C65   S    
C155  H159  S    
C5    C6    S    
C139  O27   A    
C75   H102  S    
C2    C108  S    
C45   H31   S    
C59   H62   S    
C144  O46   A    
C13   C97   S    
C169  C182  A    
O45   Zn9   S    
C7    H172  S    
C125  C129  A    
C141  O2    A    
C20   C21   S    
C146  O48   A    
C113  C135  S    
C51   H44   S    
C114  C136  S    
C144  O32   A    
C67   C69   S    
C53   H50   S    
C22   H208  S    
C138  O9    A    
C105  O69   S    
C26   H217  S    
O35   Zn4   S    
C12   H184  S    
C3    O57   S    
C123  C124  A    
C53   C54   S    
C73   H95   S    
O80   Zn13  S    
C116  C173  A    
C37   H11   S    
C30   H227  S    
C89   H136  S    
O13   Zn15  S    
C12   H185  S    
C119  C174  S    
C38   C39   S    
C17   O53   S    
C52   H45   S    
C150  O42   A    
C20   H203  S    
C149  O41   A    
C21   H206  S    
C5    H168  S    
O34   Zn15  S    
O12   Zn10  S    
C91   H138  S    
C169  H222  S    
C147  C165  S    
C71   H89   S    
C69   H86   S    
C132  H101  S    
C74   H97   S    
C92   H141  S    
C38   H14   S    
C104  O68   S    
C108  O67   A    
C89   C91   S    
C72   H94   S    
C14   O52   S    
O40   Zn13  S    
C158  H162  S    
C92   H139  S    
C117  C175  A    
C66   C67   S    
C118  C176  A    
C87   H129  S    
C94   H145  S    
O34   Zn8   S    
C148  O38   A    
C94   C95   S    
C160  H1    S    
C19   H199  S    
C31   H228  S    
O20   Zn4   S    
C114  C171  A    
O6    Zn9   S    
C130  O19   A    
C13   C96   A    
C34   H6    S    
C27   H219  S    
C91   C92   S    
C156  H151  S    
C78   H109  S    
C25   C26   S    
C151  C165  S    
C177  H68   S    
C8    H174  S    
C75   H100  S    
C88   H131  S    
C4    H164  S    
C19   H201  S    
C89   O77   S    
C83   C84   S    
O41   Zn12  S    
C17   C18   S    
C76   H103  S    
C41   H20   S    
C68   C130  S    
C50   O64   S    
C154  H158  S    
C66   H81   S    
C18   H197  S    
C60   H65   S    
C62   H71   S    
O67   Zn11  S    
O18   Zn3   S    
C80   H110  S    
O56   Zn1   S    
O8    Zn11  S    
C39   H15   S    
C54   C55   S    
O23   Zn12  S    
C53   O65   S    
C24   C181  A    
C36   H8    S    
C65   H77   S    
C56   H56   S    
C63   C64   S    
C121  O75   S    
O21   Zn4   S    
C52   H47   S    
C13   C180  A    
C57   C101  A    
C122  C125  A    
C153  H157  S    
C143  O44   A    
C71   C72   S    
C129  H79   S    
C81   H114  S    
C84   H122  S    
C70   H87   S    
C173  C178  A    
C177  C181  A    
C56   C58   S    
C33   H4    S    
C34   C36   S    
C61   C62   S    
C107  C116  A    
C10   C11   S    
C95   H147  S    
C141  O18   A    
C176  C180  A    
C43   O62   S    
C1    C24   S    
C14   C15   S    
C76   H104  S    
C79   O58   S    
C59   H63   S    
C90   C109  A    
C92   H140  S    
C57   C184  A    
O78   Zn10  S    
C82   H118  S    
C178  O49   S    
C62   H69   S    
C87   C88   S    
C119  O16   A    
C180  O51   S    
C148  C166  S    
C41   C42   S    
C138  O28   A    
C3    C68   A    
C149  C167  S    
C157  C167  S    
C158  H153  S    
C93   H142  S    
C158  C168  S    
C78   H107  S    
C77   C78   S    
C90   O59   S    
C28   C29   S    
C68   C102  A    
C9    H176  S    
C30   C31   S    
C66   H80   S    
C3    C172  A    
C29   H225  S    
C18   C19   S    
O27   Zn7   S    
O38   Zn11  S    
C119  O78   A    
C70   C71   S    
C54   H52   S    
C66   O70   S    
O44   Zn5   S    
C64   H75   S    
C56   O66   S    
C153  C165  S    
C6    H171  S    
C175  H46   S    
C49   H39   S    
C29   H224  S    
C79   C174  A    
C159  H154  S    
C151  H155  S    
C14   H188  S    
C156  C159  S    
C47   H34   S    
C44   H29   S    
C171  C184  A    
C7    C8    S    
C84   C85   S    
C131  H90   S    
O15   Zn16  S    
O22   Zn5   S    
C67   H82   S    
C86   C87   S    
C172  H24   S    
C85   H125  S    
C135  O22   A    
C58   C59   S    
C96   C110  A    
C73   O72   S    
C4    H165  S    
C60   C61   S    
C32   H232  S    
C156  H160  S    
C122  O76   S    
O1    Zn5   S    
C107  O71   S    
C80   H111  S    
C10   H180  S    
C25   H214  S    
C61   H67   S    
C170  H2    S    
C45   H30   S    
C79   C107  A    
C59   H61   S    
C23   O55   S    
C160  C165  S    
C121  C122  A    
C48   C49   S    
C39   H17   S    
C51   H43   S    
C109  O72   S    
O5    Zn1   S    
C26   H215  S    
C9    H177  S    
C98   O61   S    
C53   H49   S    
O26   Zn6   S    
C111  O74   S    
C44   C45   S    
C10   H181  S    
O16   Zn2   S    
C48   H36   S    
C70   O71   S    
O10   Zn13  S    
C72   H92   S    
O23   Zn13  S    
O47   Zn7   S    
C113  C170  A    
O30   Zn8   S    
O31   Zn16  S    
C110  O73   S    
C57   C141  S    
C37   H10   S    
C99   O62   S    
C28   H221  S    
C11   H182  S    
O1    Zn9   S    
C137  O25   A    
C150  O43   A    
C20   H204  S    
O11   Zn14  S    
C21   H205  S    
C104  C113  A    
C63   H73   S    
C42   H22   S    
C33   O59   S    
C55   H54   S    
C58   H59   S    
C91   H137  S    
C127  C146  S    
C69   H85   S    
C6    H169  S    
C80   O74   S    
C23   C25   S    
C74   H98   S    
C124  O79   S    
C133  H113  S    
C154  C166  S    
C50   H41   S    
C100  O63   S    
C96   O60   S    
C142  O29   A    
C16   H194  S    
O1    Zn16  S    
C86   O76   S    
C106  O70   S    
O25   Zn6   S    
C60   O68   S    
C85   H126  S    
C46   C152  S    
C93   C94   S    
C170  C183  A    
O24   Zn5   S    
C17   H196  S    
C120  C177  A    
C7    O50   S    
C69   H84   S    
C81   C82   S    
C134  O5    A    
C147  O36   A    
C31   C32   S    
C83   H120  S    
C35   C182  A    
C86   H128  S    
C31   H229  S    
O7    Zn10  S    
C63   H72   S    
C101  O64   S    
C83   O75   S    
C140  O11   A    
C77   H105  S    
C161  H156  S    
C48   H37   S    
C155  C166  S    
C15   C16   S    
C75   H99   S    
C88   H132  S    
C45   H32   S    
C159  C168  S    
C72   H93   S    
C184  O55   S    
C43   H26   S    
C47   O63   S    
C127  C132  A    
C1    O15   A    
C23   H210  S    
C136  O26   A    
C36   H9    S    
C163  O4    A    
C38   H12   S    
C132  C133  A    
C97   O14   A    
C9    H179  S    
C159  H163  S    
C161  C166  S    
C15   H190  S    
C22   H207  S    
C157  H161  S    
O12   Zn2   S    
C174  C178  A    
C18   H198  S    
O33   Zn3   S    
O23   Zn3   S    
C54   H51   S    
C93   O79   S    
C35   C99   A    
C32   H230  S    
C64   H74   S    
C108  O17   A    
C50   C51   S    
C116  C138  S    
C26   H216  S    
C73   H96   S    
C101  C105  A    
O32   Zn2   S    
C74   C75   S    
C47   C48   S    
C115  C137  S    
C105  C114  A    
C30   H226  S    
C65   H76   S    
C120  C142  S    
C76   C77   S    
C153  H135  S    
C134  O24   A    
C143  O31   A    
C8    C9    S    
C175  C179  A    
C37   O60   S    
C152  O21   A    
C137  O8    A    
O34   Zn14  S    
C111  C120  A    
C44   H28   S    
C46   C183  A    
O48   Zn8   S    
C67   H83   S    
C70   H88   S    
O42   Zn15  S    
C40   H19   S    
C162  H189  S    
C33   C34   S    
C33   H3    S    
O3    Zn15  S    
C22   H209  S    
C181  O52   S    
C161  H167  S    
O14   Zn16  S    
C40   C41   S    
C60   H64   S    
C87   H130  S    
C94   H144  S    
C88   H133  S    
C164  H211  S    
C2    C179  A    
C62   H70   S    
C46   C100  A    
C98   C111  A    
O1    Zn1   S    
C34   H5    S    
O4    Zn14  S    
C80   C81   S    
C97   O56   A    
C95   H149  S    
C182  O53   S    
C11   C12   S    
C78   H108  S    
C40   O61   S    
O12   Zn11  S    
C30   O58   S    
C160  C161  S    
C155  H150  S    
C19   H202  S    
C16   H192  S    
C121  C126  A    
C171  H13   S    
C128  C133  A    
C123  C128  A    
C126  C131  A    
C102  C106  A    
C142  O13   A    
C12   H186  S    
C102  O65   S    
C89   H134  S    
C41   H21   S    
C173  H35   S    
O19   Zn3   S    
C28   H220  S    
C11   H183  S    
C162  C167  S    
C23   H212  S    
C156  C167  S    
C145  O47   A    
C27   C28   S    
C55   H55   S    
C153  C154  S    
C4    O49   S    
C176  H57   S    
C129  C131  A    
C20   O54   S    
