data_mof_unit_9189.cif
_audit_creation_date              2012-10-26T17:11:26-0400
_audit_creation_method            fapswitch 2.2
_symmetry_space_group_name_H-M    P1
_symmetry_Int_Tables_number       1
_space_group_crystal_system       triclinic
_cell_length_a                    28.054011
_cell_length_b                    18.729004
_cell_length_c                    16.865999
_cell_angle_alpha                 90.104604
_cell_angle_beta                  62.466306
_cell_angle_gamma                 90.040392
_cell_volume                      7858.08756863

loop_
_atom_site_label
_atom_site_type_symbol
_atom_type_description
_atom_site_fract_x
_atom_site_fract_y
_atom_site_fract_z
_atom_type_partial_charge
C1    C     C_R   0.294985 0.728262 0.329686 0.810555
C2    C     C_R   0.600380 0.999645 0.501572 0.069620
C3    C     C_R   0.691020 0.712195 0.903485 0.134220
C4    C     C_R   0.926467 0.903200 0.066614 0.800840
C5    C     C_R   0.073568 0.096729 0.933328 0.810036
C6    C     C_R   0.073503 0.903182 0.933373 0.807098
C7    C     C_R   0.925870 0.095913 0.067508 0.802634
C8    C     C_R   0.426470 0.403208 0.066613 0.804987
C9    C     C_R   0.573595 0.596682 0.933306 0.808152
C10   C     C_R   0.572886 0.402242 0.933941 0.804033
C11   C     C_R   0.426449 0.596741 0.066694 0.807332
C12   C     C_R   0.042941 0.628829 0.522020 0.093491
C13   C     C_R   0.899260 0.499780 0.499750 0.069829
C14   C     C_R   0.930125 0.375832 0.560557 0.090957
C15   C     C_R   0.958668 0.626062 0.476554 0.098730
C16   C     C_R   0.027110 0.373866 0.573417 0.094487
C17   C     C_R   0.540870 0.125908 0.525648 0.098721
C18   C     C_R   0.472545 0.873784 0.427442 0.099903
C19   C     C_R   0.456558 0.128715 0.480306 0.092997
C20   C     C_R   0.569387 0.875641 0.440660 0.096657
C21   C     C_R   0.025100 0.692388 0.500461 -0.191900
C22   C     C_R   0.946118 0.313983 0.589142 -0.182759
C23   C     C_R   0.984754 0.690535 0.474088 -0.191369
C24   C     C_R   0.087029 0.500294 0.546123 0.070220
C25   C     C_R   0.994633 0.312643 0.594057 -0.187310
C26   C     C_R   0.514710 0.190366 0.528597 -0.190757
C27   C     C_R   0.504927 0.812486 0.406832 -0.195040
C28   C     C_R   0.474331 0.192242 0.502320 -0.191311
C29   C     C_R   0.553362 0.813758 0.411971 -0.193504
C30   C     C_R   0.974470 0.563101 0.503080 0.031382
C31   C     C_R   0.009728 0.436827 0.549480 0.032314
C32   C     C_R   0.019056 0.563847 0.520269 0.033486
C33   C     C_R   0.962077 0.437252 0.540169 0.032907
C34   C     C_R   0.480472 0.063727 0.481679 0.033934
C35   C     C_R   0.616990 0.877021 0.448325 -0.234356
C36   C     C_R   0.537465 0.937100 0.461216 0.033010
C37   C     C_R   0.525054 0.062953 0.498868 0.031306
C38   C     C_R   0.489863 0.936721 0.451780 0.032321
C39   C     C_R   0.461027 0.000116 0.462633 -0.046484
C40   C     C_R   0.553975 0.999648 0.488321 -0.046854
C41   C     C_R   0.945581 0.499800 0.513261 -0.045785
C42   C     C_R   0.038580 0.500195 0.538826 -0.045976
C43   C     C_R   0.390365 0.934956 0.445112 0.051119
C44   C     C_R   0.616863 0.063365 0.527761 0.051788
C45   C     C_R   0.630769 0.936415 0.486481 0.046285
C46   C     C_R   0.415336 0.129510 0.456546 -0.234716
C47   C     C_R   0.387442 0.066026 0.456576 0.049604
C48   C     C_R   0.868914 0.436537 0.514488 0.047586
C49   C     C_R   0.112292 0.566042 0.544692 0.049005
C50   C     C_R   0.109465 0.434952 0.555450 0.051518
C51   C     C_R   0.882868 0.563458 0.473522 0.052365
C52   C     C_R   0.336670 0.934663 0.455166 -0.112013
C53   C     C_R   0.666895 0.064376 0.531222 -0.113628
C54   C     C_R   0.674058 0.935547 0.509041 -0.108261
C55   C     C_R   0.335562 0.065604 0.459553 -0.108767
C56   C     C_R   0.825816 0.435576 0.491459 -0.105799
C57   C     C_R   0.423332 0.873130 0.424104 -0.237728
C58   C     C_R   0.164333 0.565641 0.540996 -0.108761
C59   C     C_R   0.163263 0.434682 0.545063 -0.112318
C60   C     C_R   0.832996 0.564366 0.469423 -0.112330
C61   C     C_R   0.311284 0.000087 0.459823 -0.273643
C62   C     C_R   0.692415 0.999703 0.527578 -0.274841
C63   C     C_R   0.807556 0.499657 0.472772 -0.275003
C64   C     C_R   0.188688 0.500134 0.540317 -0.273538
C65   C     C_R   0.583445 0.124173 0.546689 -0.233121
C66   C     C_R   0.076478 0.373127 0.576311 -0.237172
C67   C     C_R   0.916239 0.624296 0.455133 -0.233591
C68   C     C_R   0.882568 0.377209 0.552713 -0.233171
C69   C     C_R   0.706214 0.274561 0.669303 0.791908
C70   C     C_R   0.084272 0.629541 0.545532 -0.235114
C71   C     C_R   0.223273 0.772176 0.950954 -0.049037
C72   C     C_R   0.796765 0.261570 0.029729 -0.082802
C73   C     C_R   0.776654 0.771999 0.049248 -0.051503
C74   C     C_R   0.220829 0.232087 0.953287 -0.025556
C75   C     C_R   0.735797 0.297726 0.938908 -0.082370
C76   C     C_R   0.279219 0.732062 0.046627 -0.025358
C77   C     C_R   0.276651 0.272189 0.049175 -0.049263
C78   C     C_R   0.720912 0.731818 0.953270 -0.027498
C79   C     C_R   0.233964 0.700011 0.958617 -0.322771
C80   C     C_R   0.705053 0.728195 0.670322 0.826733
C81   C     C_R   0.757009 0.315458 0.062627 -0.212743
C82   C     C_R   0.766212 0.699797 0.041031 -0.323600
C83   C     C_R   0.231549 0.304190 0.960905 -0.256572
C84   C     C_R   0.777865 0.247585 0.903597 -0.199524
C85   C     C_R   0.268267 0.804143 0.039591 -0.256544
C86   C     C_R   0.266193 0.200004 0.040927 -0.322639
C87   C     C_R   0.731573 0.803933 0.960937 -0.254011
C88   C     C_R   0.261848 0.679373 0.006047 0.427273
C89   C     C_R   0.729829 0.337430 0.014964 0.406677
C90   C     C_R   0.738405 0.679119 0.993441 0.428812
C91   C     C_R   0.294872 0.271975 0.329730 0.811428
C92   C     C_R   0.258143 0.325153 0.009733 0.425150
C93   C     C_R   0.812166 0.237335 0.941167 0.406292
C94   C     C_R   0.241625 0.825112 0.990890 0.425208
C95   C     C_R   0.238362 0.179366 0.993366 0.427324
C96   C     C_R   0.758111 0.824928 0.009834 0.426595
C97   C     C_R   0.145546 0.831640 0.943219 -0.189673
C98   C     C_R   0.857894 0.174314 0.056158 -0.198299
C99   C     C_R   0.854361 0.831540 0.056907 -0.192777
C100  C     C_R   0.144944 0.169564 0.943561 -0.113677
C101  C     C_R   0.648280 0.336420 0.940506 -0.190849
C102  C     C_R   0.795951 0.230102 0.329201 0.818789
C103  C     C_R   0.355120 0.669508 0.056353 -0.113428
C104  C     C_R   0.354361 0.331629 0.056894 -0.190218
C105  C     C_R   0.645041 0.669344 0.943497 -0.117109
C106  C     C_R   0.118149 0.852398 0.895065 -0.066302
C107  C     C_R   0.882620 0.148811 0.105930 -0.080487
C108  C     C_R   0.881781 0.852448 0.105000 -0.068495
C109  C     C_R   0.118098 0.147687 0.894972 -0.087880
C110  C     C_R   0.618438 0.352760 0.894884 -0.073166
C111  C     C_R   0.381941 0.647725 0.104991 -0.086810
C112  C     C_R   0.381795 0.352460 0.104984 -0.066020
C113  C     C_R   0.205112 0.771952 0.670251 0.811089
C114  C     C_R   0.618170 0.647550 0.894923 -0.088298
C115  C     C_R   0.136510 0.829394 0.807192 -0.224997
C116  C     C_R   0.864270 0.171246 0.193673 -0.214876
C117  C     C_R   0.863416 0.829577 0.192896 -0.225226
C118  C     C_R   0.136660 0.170209 0.806913 -0.228922
C119  C     C_R   0.636218 0.328904 0.807628 -0.220467
C120  C     C_R   0.363373 0.670344 0.193039 -0.230946
C121  C     C_R   0.363448 0.329541 0.192860 -0.223626
C122  C     C_R   0.636736 0.670076 0.806870 -0.225173
C123  C     C_R   0.182922 0.788166 0.765715 -0.066370
C124  C     C_R   0.205030 0.228239 0.670334 0.810440
C125  C     C_R   0.821009 0.218005 0.232180 -0.071335
C126  C     C_R   0.817014 0.788282 0.234346 -0.061504
C127  C     C_R   0.182573 0.212478 0.765956 -0.064759
C128  C     C_R   0.686046 0.295910 0.762594 -0.057549
C129  C     C_R   0.317455 0.712554 0.234036 -0.064146
C130  C     C_R   0.317042 0.288251 0.234301 -0.066944
C131  C     C_R   0.682654 0.712328 0.765915 -0.069038
C132  C     C_R   0.210477 0.767860 0.813809 -0.188716
C133  C     C_R   0.800265 0.249524 0.178705 -0.182841
C134  C     C_R   0.789441 0.767913 0.186272 -0.197494
C135  C     C_R   0.794872 0.771970 0.329735 0.791296
C136  C     C_R   0.209261 0.234512 0.814896 -0.206705
C137  C     C_R   0.719168 0.289699 0.803917 -0.188698
C138  C     C_R   0.290769 0.734539 0.185126 -0.206482
C139  C     C_R   0.289479 0.267907 0.186191 -0.189008
C140  C     C_R   0.709381 0.734270 0.814833 -0.206138
C141  C     C_R   0.196927 0.631665 0.526241 0.815045
C142  C     C_R   0.799354 0.368871 0.486212 0.809380
C143  C     C_R   0.802937 0.631399 0.474601 0.810519
C144  C     C_R   0.196271 0.368232 0.528536 0.805844
C145  C     C_R   0.697025 0.131447 0.525586 0.814714
C146  C     C_R   0.412688 0.000271 0.454995 0.070124
C147  C     C_R   0.303712 0.868205 0.471527 0.805868
C148  C     C_R   0.303032 0.131624 0.473932 0.815351
C149  C     C_R   0.700618 0.868874 0.513909 0.816250
C150  C     C_R   0.192314 0.790263 0.902355 0.077418
C151  C     C_R   0.819792 0.230069 0.087719 0.107249
C152  C     C_R   0.807612 0.790173 0.097788 0.079821
C153  C     C_R   0.190899 0.212473 0.903555 0.133592
C154  C     C_R   0.700595 0.308225 0.894308 0.096958
C155  C     C_R   0.309148 0.712450 0.096379 0.133000
C156  C     C_R   0.307614 0.290278 0.097742 0.077738
Cu1   Cu    Cu3+1 0.209920 0.785290 0.495070 0.936327
Cu2   Cu    Cu3+1 0.504760 0.500000 0.075850 0.964501
Cu3   Cu    Cu3+1 0.995240 0.000000 0.924150 0.967129
Cu4   Cu    Cu3+1 0.004760 0.000000 0.075850 0.959949
Cu5   Cu    Cu3+1 0.790080 0.214710 0.504930 0.940493
Cu6   Cu    Cu3+1 0.790080 0.785290 0.504930 0.941611
Cu7   Cu    Cu3+1 0.209920 0.214710 0.495070 0.942480
Cu8   Cu    Cu3+1 0.709920 0.285290 0.495070 0.941285
Cu9   Cu    Cu3+1 0.290080 0.714710 0.504930 0.940670
Cu10  Cu    Cu3+1 0.290080 0.285290 0.504930 0.936175
Cu11  Cu    Cu3+1 0.709920 0.714710 0.495070 0.936818
Cu12  Cu    Cu3+1 0.495240 0.500000 0.924150 0.960840
H1    H     H_    0.577697 0.765813 0.395410 0.138300
H2    H     H_    0.728153 0.999580 0.536817 0.190413
H3    H     H_    0.771967 0.499453 0.463105 0.189698
H4    H     H_    0.229264 0.500037 0.532413 0.190132
H5    H     H_    0.643403 0.831911 0.420629 0.174119
H6    H     H_    0.407955 0.180757 0.436129 0.180518
H7    H     H_    0.412736 0.824669 0.401316 0.168889
H8    H     H_    0.588972 0.170796 0.579105 0.171194
H9    H     H_    0.087189 0.324603 0.598607 0.169504
H10   H     H_    0.910889 0.670898 0.422697 0.171576
H11   H     H_    0.856124 0.332122 0.580171 0.171926
H12   H     H_    0.455740 0.242915 0.502192 0.138761
H13   H     H_    0.091768 0.680704 0.566246 0.179916
H14   H     H_    0.219756 0.659536 0.928592 0.154597
H15   H     H_    0.748380 0.344576 0.122953 0.166215
H16   H     H_    0.780554 0.659351 0.070734 0.154840
H17   H     H_    0.217568 0.344865 0.930935 0.174902
H18   H     H_    0.787070 0.217883 0.843383 0.168271
H19   H     H_    0.282107 0.844822 0.069928 0.174880
H20   H     H_    0.280540 0.159532 0.070588 0.154777
H21   H     H_    0.717579 0.844590 0.930962 0.178357
H22   H     H_    0.131723 0.849364 0.011545 0.173351
H23   H     H_    0.492854 0.763585 0.386682 0.138689
H24   H     H_    0.867900 0.147508 0.994282 0.206819
H25   H     H_    0.868145 0.849143 0.988617 0.173825
H26   H     H_    0.130848 0.152302 0.012049 0.170474
H27   H     H_    0.631409 0.348761 0.010907 0.192178
H28   H     H_    0.369259 0.652166 0.987814 0.170645
H29   H     H_    0.368134 0.349283 0.988626 0.173114
H30   H     H_    0.630935 0.652084 0.011990 0.170377
H31   H     H_    0.115815 0.846056 0.769727 0.175519
H32   H     H_    0.881681 0.148950 0.233661 0.177726
H33   H     H_    0.884116 0.846339 0.230377 0.175563
H34   H     H_    0.526873 0.239656 0.547814 0.138757
H35   H     H_    0.116497 0.152476 0.768961 0.177978
H36   H     H_    0.612304 0.338754 0.773455 0.172171
H37   H     H_    0.383528 0.652688 0.230971 0.177058
H38   H     H_    0.384156 0.346274 0.230338 0.175671
H39   H     H_    0.616551 0.652388 0.768934 0.179106
H40   H     H_    0.247197 0.736918 0.781705 0.157449
H41   H     H_    0.767425 0.286508 0.210574 0.142233
H42   H     H_    0.752715 0.736998 0.218328 0.153837
H43   H     H_    0.245465 0.266499 0.783383 0.156293
H44   H     H_    0.760067 0.272370 0.763488 0.138509
H45   H     H_    0.006702 0.263742 0.614027 0.144697
H46   H     H_    0.254551 0.766517 0.216729 0.156450
H47   H     H_    0.252775 0.236950 0.218209 0.157527
H48   H     H_    0.745592 0.766244 0.783325 0.157473
H49   H     H_    0.228358 0.906141 0.931493 0.337938
H50   H     H_    0.888497 0.236274 0.898118 0.318812
H51   H     H_    0.771108 0.905871 0.069983 0.329192
H52   H     H_    0.244085 0.078413 0.015029 0.339292
H53   H     H_    0.702037 0.423770 0.989700 0.336377
H54   H     H_    0.256447 0.578449 0.983462 0.339138
H55   H     H_    0.271297 0.406114 0.069693 0.338012
H56   H     H_    0.972585 0.739841 0.455104 0.138774
H57   H     H_    0.743997 0.578183 0.015366 0.331990
H58   H     H_    0.921726 0.266092 0.605700 0.146150
H59   H     H_    0.043659 0.743055 0.500898 0.138756
H60   H     H_    0.270796 0.999968 0.467321 0.190196
O1    O     O_R   0.255040 0.869590 0.478480 -0.581656
O2    O     O_R   0.817950 0.203450 0.375560 -0.583987
O3    O     O_R   0.817950 0.796550 0.375560 -0.594055
O4    O     O_R   0.182050 0.203450 0.624440 -0.593835
O5    O     O_R   0.682050 0.296550 0.624440 -0.594230
O6    O     O_R   0.317950 0.703450 0.375560 -0.594434
O7    O     O_R   0.317950 0.296550 0.375560 -0.591352
O8    O     O_R   0.682050 0.703450 0.624440 -0.584059
O9    O     O_R   0.250530 0.763330 0.367210 -0.588093
O10   O     O_R   0.749470 0.236670 0.632790 -0.600131
O11   O     O_R   0.749470 0.763330 0.632790 -0.584684
O12   O     O_R   0.744960 0.130410 0.521520 -0.578425
O13   O     O_R   0.250530 0.236670 0.367210 -0.587727
O14   O     O_R   0.750530 0.263330 0.367210 -0.583714
O15   O     O_R   0.249470 0.736670 0.632790 -0.587890
O16   O     O_R   0.249470 0.263330 0.632790 -0.588323
O17   O     O_R   0.750530 0.736670 0.367210 -0.602655
O18   O     O_R   0.177260 0.690030 0.513710 -0.601183
O19   O     O_R   0.822740 0.309970 0.486290 -0.598839
O20   O     O_R   0.822740 0.690030 0.486290 -0.595858
O21   O     O_R   0.177260 0.309970 0.513710 -0.592588
O22   O     O_R   0.677260 0.190030 0.513710 -0.594361
O23   O     O_R   0.744960 0.869590 0.521520 -0.583956
O24   O     O_R   0.322740 0.809970 0.486290 -0.592634
O25   O     O_R   0.322740 0.190030 0.486290 -0.601744
O26   O     O_R   0.677260 0.809970 0.513710 -0.597437
O27   O     O_R   0.051640 0.926880 0.885090 -0.589911
O28   O     O_R   0.948360 0.073120 0.114910 -0.590210
O29   O     O_R   0.948360 0.926880 0.114910 -0.591333
O30   O     O_R   0.051640 0.073120 0.885090 -0.587530
O31   O     O_R   0.551640 0.426880 0.885090 -0.588636
O32   O     O_R   0.448360 0.573120 0.114910 -0.590690
O33   O     O_R   0.448360 0.426880 0.114910 -0.589981
O34   O     O_R   0.255040 0.130410 0.478480 -0.582411
O35   O     O_R   0.551640 0.573120 0.885090 -0.588593
O36   O     O_R   0.940620 0.926560 0.986760 -0.586656
O37   O     O_R   0.059380 0.073440 0.013240 -0.585239
O38   O     O_R   0.059380 0.926560 0.013240 -0.585815
O39   O     O_R   0.940620 0.073440 0.986760 -0.582862
O40   O     O_R   0.440620 0.426560 0.986760 -0.586611
O41   O     O_R   0.559380 0.573440 0.013240 -0.585821
O42   O     O_R   0.559380 0.426560 0.013240 -0.582000
O43   O     O_R   0.440620 0.573440 0.986760 -0.585908
O44   O     O_3   0.235750 0.897506 0.982601 -0.725422
O45   O     O_R   0.755040 0.369590 0.478480 -0.585915
O46   O     O_3   0.862104 0.210017 0.885237 -0.748073
O47   O     O_3   0.763721 0.897324 0.018815 -0.726389
O48   O     O_3   0.229213 0.108241 0.983171 -0.719680
O49   O     O_3   0.699874 0.399141 0.043230 -0.738391
O50   O     O_3   0.271182 0.608256 0.015654 -0.719544
O51   O     O_3   0.263837 0.397549 0.018610 -0.725004
O52   O     O_3   0.729240 0.607984 0.983314 -0.730198
O53   O     O_R   0.244960 0.630410 0.521520 -0.582567
O54   O     O_R   0.244960 0.369590 0.521520 -0.581805
O55   O     O_R   0.755040 0.630410 0.478480 -0.580774
O56   O     O_R   0.182050 0.796550 0.624440 -0.591512

loop_
_geom_bond_atom_site_label_1
_geom_bond_atom_site_label_2
_ccdc_geom_bond_type
C100  C153  A    
C5    O37   A    
C134  H42   S    
C31   C42   A    
C132  C150  A    
C133  C151  A    
C74   C83   A    
C102  C125  S    
C14   C33   A    
C19   C46   A    
C3    C105  A    
C16   C31   A    
C9    C114  S    
C1    C129  S    
C52   C61   A    
C77   C156  S    
Cu9   O24   S    
Cu10  O16   S    
C131  C140  A    
C13   C51   A    
C44   C53   A    
C91   O13   A    
Cu3   O36   S    
C113  O15   A    
C97   C150  A    
C46   H6    S    
C124  O16   A    
Cu1   O18   S    
Cu6   O3    S    
C119  C128  A    
C47   C146  A    
C100  C109  A    
C58   C64   A    
C121  H38   S    
Cu12  O40   S    
C109  C118  A    
C21   H59   S    
C147  O24   A    
C115  C123  A    
Cu8   O45   S    
C127  C136  A    
Cu5   O10   S    
C101  C110  A    
C95   O48   S    
C120  C129  A    
Cu8   O22   S    
C105  C114  A    
C70   H13   S    
C36   C40   A    
C72   C151  S    
H51   O47   S    
C6    C106  S    
C28   H12   S    
C124  O4    A    
C124  C127  S    
C103  H28   S    
C50   C59   A    
C35   C45   A    
C15   C30   A    
C16   C25   A    
C119  H36   S    
C82   C90   A    
C99   H25   S    
C76   C155  S    
C143  O55   A    
C79   H14   S    
C106  C115  A    
C25   H45   S    
C18   C38   A    
C136  C153  A    
C147  O1    A    
C58   C141  S    
Cu4   O29   S    
H57   O52   S    
C6    O27   A    
C84   C93   A    
C86   C95   A    
C2    C40   A    
C126  C134  A    
C102  O2    A    
C10   O31   A    
C148  O34   A    
C76   C85   A    
Cu11  O55   S    
C78   C87   A    
C144  O21   A    
Cu4   O38   S    
C123  C132  A    
C27   C29   A    
C133  H41   S    
C80   O8    A    
C121  C130  A    
C71   C79   A    
Cu1   O1    S    
Cu5   O12   S    
C99   C108  A    
Cu2   O41   S    
C103  C111  A    
Cu12  O31   S    
C77   C86   A    
C37   C40   A    
C60   C143  S    
C38   C39   A    
C75   C84   A    
C71   C150  S    
H55   O51   S    
C91   O7    A    
C143  O20   A    
Cu7   O34   S    
C85   C94   A    
C69   O5    A    
C57   H7    S    
C20   C35   A    
C69   C128  S    
C2    C44   A    
C22   C25   A    
C6    O38   A    
C30   C41   A    
C102  O14   A    
C94   O44   S    
C44   C65   A    
C2    C45   A    
C24   C50   A    
C66   H9    S    
C137  H44   S    
C34   C39   A    
C35   H5    S    
Cu7   O4    S    
Cu12  O43   S    
Cu1   Cu9   S    
C104  C112  A    
C1    O9    A    
C115  H31   S    
Cu6   O23   S    
C4    O36   A    
C15   C67   A    
C89   O49   S    
C51   C67   A    
C7    O39   A    
C19   C28   A    
C142  O45   A    
C116  C125  A    
C73   C152  S    
C7    C107  S    
C118  C127  A    
C122  C131  A    
C117  C126  A    
C12   C70   A    
C32   C42   A    
C11   O43   A    
C122  H39   S    
C67   H10   S    
C110  C119  A    
C45   C54   A    
C22   H58   S    
Cu3   O30   S    
C99   C152  A    
C68   H11   S    
C29   H1    S    
C14   C22   A    
C81   C89   A    
C112  C121  A    
Cu6   O11   S    
C55   C148  S    
C101  C154  A    
Cu2   O32   S    
C55   C61   A    
Cu7   O13   S    
C107  C116  A    
C75   C89   A    
C113  O56   A    
C142  O19   A    
C81   H15   S    
C51   C60   A    
C8    O33   A    
C88   O50   S    
C138  C155  A    
C85   H19   S    
C86   H20   S    
C4    O29   A    
C34   C37   A    
C24   C42   A    
C135  O17   A    
C84   H18   S    
Cu3   O27   S    
Cu8   O14   S    
C13   C41   A    
Cu2   Cu12  S    
C78   C90   A    
C4    C108  S    
C120  H37   S    
C80   O11   A    
Cu5   O19   S    
C8    C112  S    
C7    O28   A    
C145  O12   A    
Cu10  O7    S    
Cu10  O25   S    
C90   O52   S    
C9    O41   A    
C139  H47   S    
C69   O10   A    
C72   C81   A    
C103  C155  A    
C56   C142  S    
Cu9   O6    S    
C80   C131  S    
C135  O3    A    
C62   H2    S    
C130  C139  A    
C108  C117  A    
C79   C88   A    
C98   C151  A    
Cu11  O8    S    
C61   H60   S    
C11   C111  S    
Cu9   O53   S    
Cu7   Cu10  S    
C91   C130  S    
C54   C62   A    
C98   C107  A    
C64   H4    S    
C18   C57   A    
C63   H3    S    
Cu3   Cu4   S    
C113  C123  S    
C1    O6    A    
C134  C152  A    
C53   C145  S    
C48   C68   A    
C141  O53   A    
Cu1   O56   S    
C97   C106  A    
Cu1   O9    S    
C105  H30   S    
C126  C135  S    
C49   C70   A    
C21   C23   A    
C65   H8    S    
C144  O54   A    
C16   C66   A    
C73   C82   A    
Cu5   Cu8   S    
C46   C47   A    
C138  H46   S    
C17   C65   A    
H49   O44   S    
Cu2   O42   S    
C33   C41   A    
C11   O32   A    
Cu4   O28   S    
C36   C38   A    
C43   C146  A    
C5    C109  S    
C39   C146  A    
C72   C93   A    
C137  C154  A    
C10   C110  S    
Cu6   O20   S    
C43   C52   A    
Cu5   O2    S    
C20   C36   A    
C10   O42   A    
C14   C68   A    
C73   C96   A    
C3    C78   S    
C101  H27   S    
C149  O23   A    
C77   C92   A    
C82   H16   S    
H52   O48   S    
C104  H29   S    
H53   O49   S    
C118  H35   S    
C8    O40   A    
C71   C94   A    
C83   C92   A    
C59   C64   A    
C60   C63   A    
C17   C26   A    
C26   H34   S    
C116  H32   S    
Cu3   O39   S    
C129  C138  A    
C31   C33   A    
H54   O50   S    
C76   C88   A    
C87   H21   S    
C15   C23   A    
C148  O25   A    
H50   O46   S    
Cu11  O26   S    
C12   C32   A    
C27   H23   S    
C117  H33   S    
C54   C149  S    
C20   C29   A    
C145  O22   A    
Cu7   O21   S    
C98   H24   S    
C43   C57   A    
C149  O26   A    
Cu11  O17   S    
C12   C21   A    
C49   C58   A    
C74   C153  S    
C111  C120  A    
C128  C137  A    
C136  H43   S    
C53   C62   A    
Cu2   O33   S    
C87   C96   A    
C141  O18   A    
C56   C63   A    
C17   C37   A    
C104  C156  A    
C50   C66   A    
Cu9   O15   S    
C97   H22   S    
C59   C144  S    
C132  H40   S    
C52   C147  S    
Cu10  O54   S    
C47   C55   A    
C125  C133  A    
C24   C49   A    
C48   C56   A    
Cu8   O5    S    
C74   C95   A    
C18   C27   A    
C19   C34   A    
C13   C48   A    
C100  H26   S    
C26   C28   A    
C92   O51   S    
C93   O46   S    
C30   C32   A    
C75   C154  S    
C139  C156  A    
C9    O35   A    
C5    O30   A    
Cu12  O35   S    
C140  H48   S    
Cu6   Cu11  S    
C114  C122  A    
Cu4   O37   S    
C23   H56   S    
C96   O47   S    
C83   H17   S    
C3    C140  A    
