data_mof_unit_63172.cif
_audit_creation_date              2012-12-10T16:42:39-0500
_audit_creation_method            fapswitch 2.2
_symmetry_space_group_name_H-M    P1
_symmetry_Int_Tables_number       1
_space_group_crystal_system       triclinic
_cell_length_a                    18.731194
_cell_length_b                    19.044514
_cell_length_c                    19.06826
_cell_angle_alpha                 109.752404
_cell_angle_beta                  109.567684
_cell_angle_gamma                 109.159817
_cell_volume                      5231.90514555

loop_
_atom_site_label
_atom_site_type_symbol
_atom_type_description
_atom_site_fract_x
_atom_site_fract_y
_atom_site_fract_z
_atom_type_partial_charge
C1    C     C_R   0.384493 0.382701 0.502315 0.872139
C2    C     C_R   0.776623 0.571185 0.734375 0.036924
C3    C     C_R   0.807690 0.520192 0.836082 -0.134091
C4    C     C_R   0.718915 0.453273 0.789057 0.017343
C5    C     C_R   0.663430 0.438772 0.708099 0.010440
C6    C     C_R   0.689445 0.501390 0.684311 -0.091489
C7    C     C_R   0.683408 0.399127 0.819102 -0.127862
C8    C     C_R   0.611280 0.315152 0.757511 -0.141240
C9    C     C_R   0.562619 0.295091 0.672372 0.468717
C10   C     C_R   0.585142 0.359287 0.650364 -0.265761
C11   C     C_2   0.254844 0.259628 0.579749 -0.136451
C12   C     C_R   0.621380 0.502399 0.618047 0.774855
C13   C     C_2   0.182306 0.191704 0.506856 -0.478432
C14   C     C_2   0.308946 0.332681 0.574749 0.437855
C15   C     C_2   0.324710 0.316250 0.508463 -0.461179
C16   C     C_2   0.175395 0.426727 0.180238 -0.155189
C17   C     C_2   0.185767 0.497619 0.175282 -0.277393
C18   C     C_2   0.248665 0.426690 0.241440 -0.159650
C19   C     C_2   0.309684 0.497521 0.317909 -0.289604
C20   C     C_2   0.734183 0.815939 0.483458 0.464753
C21   C     C_2   0.815021 0.825773 0.509405 -0.414120
C22   C     C_2   0.671847 0.757560 0.497316 -0.144897
C23   C     C_R   0.610913 0.616814 0.493531 0.936809
C24   C     C_2   0.665376 0.680044 0.479568 -0.431366
C25   C     C_R   0.991899 0.382901 0.874619 0.863588
C26   C     C_R   0.878034 0.508672 0.888638 0.832969
C27   C     C_R   0.000148 0.617515 0.117410 0.932756
C28   C     C_R   0.115844 0.498681 0.113030 0.871025
C29   C     C_R   0.000630 0.118708 0.617229 0.762854
C30   C     C_R   0.117715 0.119916 0.502756 0.864705
C31   C     C_R   0.998499 0.880429 0.382989 0.854567
C32   C     C_R   0.881836 0.885177 0.502407 0.881684
C33   C     C_2   0.000112 0.255045 0.675322 0.359143
C34   C     C_R   0.379990 0.498594 0.382026 0.852239
C35   C     C_2   0.008987 0.191153 0.686720 0.239038
C36   C     C_2   0.011744 0.329554 0.746804 -0.018150
C37   C     C_2   0.978454 0.315901 0.796984 -0.361947
C38   C     C_2   0.020072 0.756740 0.330346 -0.172476
C39   C     C_2   0.990741 0.808364 0.314980 -0.325505
C40   C     C_2   0.009329 0.682048 0.260184 -0.032234
C41   C     C_2   0.008936 0.685630 0.190356 -0.338384
C42   C     C_R   0.814097 0.623742 0.703912 -0.110868
C43   C     C_R   0.893581 0.701025 0.762502 -0.201726
C44   C     C_R   0.936684 0.725663 0.848751 -0.140333
C45   C     C_R   0.906246 0.670110 0.877469 -0.057582
C46   C     C_R   0.830485 0.587478 0.817228 -0.007966
Cu1   Cu    Cu3+1 0.500390 0.438990 0.439360 1.023780
Cu2   Cu    Cu3+1 0.499610 0.561010 0.560640 1.013139
Cu3   Cu    Cu3+1 0.935830 0.439030 0.996840 1.060567
Cu4   Cu    Cu3+1 0.057850 0.561040 0.996790 1.068376
Cu5   Cu    Cu3+1 0.061410 0.000010 0.561410 1.018928
Cu6   Cu    Cu3+1 0.938590 0.999990 0.438590 1.016221
H1    H     H_    0.162738 0.194431 0.447768 0.163947
H2    H     H_    0.296875 0.250267 0.458969 0.126912
H3    H     H_    0.113816 0.366699 0.135899 0.166515
H4    H     H_    0.249768 0.554997 0.212944 0.158891
H5    H     H_    0.249390 0.366602 0.225516 0.169087
H6    H     H_    0.303682 0.554916 0.337755 0.167791
H7    H     H_    0.834615 0.792139 0.541196 0.146140
H8    H     H_    0.700749 0.660057 0.449617 0.201534
H9    H     H_    0.936761 0.250344 0.779055 0.174840
H10   H     H_    0.049832 0.767407 0.395368 0.191991
H11   H     H_    0.953973 0.794009 0.249454 0.176153
H12   H     H_    0.023163 0.745212 0.189335 0.190730
H13   H     H_    0.924503 0.742018 0.741618 0.153182
H14   H     H_    0.995251 0.788053 0.893167 0.164865
H15   H     H_    0.545858 0.343368 0.585193 0.165988
O1    O     O_R   0.411310 0.359450 0.448800 -0.606803
O2    O     O_R   0.048900 0.462510 0.908320 -0.560696
O3    O     O_R   0.855710 0.448510 0.907250 -0.578921
O4    O     O_R   0.958760 0.551540 0.907200 -0.563447
O5    O     O_R   0.944780 0.537560 0.085320 -0.560593
O6    O     O_R   0.047820 0.640590 0.085270 -0.557912
O7    O     O_R   0.034920 0.448530 0.086440 -0.567886
O8    O     O_R   0.137970 0.551560 0.086390 -0.593893
O9    O     O_R   0.051300 0.089020 0.640330 -0.576191
O10   O     O_R   0.947570 0.089010 0.536620 -0.550744
O11   O     O_R   0.140880 0.089030 0.551840 -0.535111
O12   O     O_R   0.410660 0.462490 0.551220 -0.536810
O13   O     O_R   0.037150 0.089020 0.448130 -0.595268
O14   O     O_R   0.052430 0.910990 0.463380 -0.575833
O15   O     O_R   0.948700 0.910980 0.359670 -0.588190
O16   O     O_R   0.962850 0.910980 0.551870 -0.598587
O17   O     O_R   0.859120 0.910970 0.448160 -0.537408
O18   O     O_R   0.589930 0.448490 0.538390 -0.551973
O19   O     O_R   0.589280 0.551530 0.640800 -0.579379
O20   O     O_R   0.589340 0.537510 0.448780 -0.555020
O21   O     O_R   0.588690 0.640550 0.551200 -0.571812
O22   O     O_R   0.410720 0.448470 0.359200 -0.588386
O23   O     O_R   0.410070 0.551510 0.461610 -0.573209
O24   O     O_R   0.945860 0.359480 0.908360 -0.583417
O25   O     O_3   0.499062 0.210197 0.610305 -0.551087
C47   C     C_3   0.418889 0.204414 0.564097 -0.192596
H16   H     H_    0.405786 0.248727 0.606532 0.166563
H17   H     H_    0.365559 0.138052 0.535150 0.210851
H18   H     H_    0.416903 0.216223 0.510501 0.142443
O26   O     O_3   0.352161 0.415643 0.643506 -0.533253
C48   C     C_3   0.291727 0.445144 0.638884 -0.174947
H19   H     H_    0.326386 0.512154 0.692860 0.187734
H20   H     H_    0.238338 0.405902 0.645656 0.164457
H21   H     H_    0.263851 0.445924 0.577767 0.135249
O27   O     O_3   0.713430 0.868123 0.454378 -0.537741
C49   C     C_3   0.641874 0.816034 0.369491 -0.218366
H22   H     H_    0.580641 0.779612 0.367765 0.157522
H23   H     H_    0.654391 0.771243 0.326526 0.149835
H24   H     H_    0.632032 0.858273 0.343575 0.191087
C50   C     C_2   0.615109 0.785089 0.523880 0.921726
O28   O     O_2   0.645048 0.860536 0.575649 -0.561997
O29   O     O_R   0.526720 0.726324 0.486433 -0.765675
H25   H     H_    0.494988 0.753453 0.508984 0.333356
C51   C     C_2   0.784254 0.591616 0.610895 0.872050
O30   O     O_2   0.755323 0.515567 0.562427 -0.503336
O31   O     O_R   0.796129 0.647719 0.578624 -0.755466
H26   H     H_    0.812424 0.707715 0.620284 0.275189
O32   O     O_3   0.973109 0.248948 0.595169 -0.573624
C52   C     C_3   0.046138 0.281300 0.584860 -0.235615
H27   H     H_    0.100118 0.271510 0.618854 0.134995
H28   H     H_    0.071142 0.350564 0.606167 0.186252
H29   H     H_    0.024567 0.247380 0.515305 0.190546
O33   O     O_3   0.044511 0.203540 0.769711 -0.579741
C53   C     C_3   0.993684 0.130492 0.770590 -0.294159
H30   H     H_    0.012750 0.080751 0.751821 0.194857
H31   H     H_    0.922143 0.102569 0.728921 0.147635
H32   H     H_    0.006748 0.150348 0.837395 0.194728
C54   C     C_2   0.057206 0.415847 0.758087 0.910465
O34   O     O_2   0.020825 0.458604 0.756326 -0.561727
O35   O     O_R   0.141338 0.447489 0.769482 -0.766449
H33   H     H_    0.165471 0.506672 0.775724 0.330118
C55   C     C_2   0.008088 0.609797 0.274665 0.881580
O36   O     O_2   0.975033 0.591232 0.315871 -0.570722
O37   O     O_R   0.047961 0.565689 0.245195 -0.768921
H34   H     H_    0.043597 0.518883 0.260396 0.338137
C56   C     C_2   0.948941 0.705064 0.971999 0.849849
O38   O     O_2   0.028417 0.748756 0.016174 -0.539088
O39   O     O_R   0.899755 0.692804 0.012361 -0.754412
H35   H     H_    0.835143 0.666755 0.972287 0.326107
C57   C     C_2   0.709947 0.436628 0.912863 0.922002
O40   O     O_2   0.683538 0.391161 0.941017 -0.566082
O41   O     O_R   0.762402 0.525496 0.968630 -0.774013
H36   H     H_    0.775503 0.543336 0.029973 0.345982
C58   C     C_2   0.587428 0.246732 0.779965 0.978698
O42   O     O_2   0.510717 0.198184 0.753063 -0.538406
O43   O     O_R   0.652934 0.236658 0.830391 -0.729497
H37   H     H_    0.628728 0.187676 0.840992 0.340632
C59   C     C_2   0.281530 0.265749 0.665119 0.909938
O44   O     O_2   0.287547 0.324397 0.723551 -0.562671
O45   O     O_R   0.303560 0.206672 0.679741 -0.721022
H38   H     H_    0.321978 0.218295 0.740734 0.349432

loop_
_geom_bond_atom_site_label_1
_geom_bond_atom_site_label_2
_ccdc_geom_bond_type
C8    C9    A    
C40   C55   S    
C47   H16   S    
O27   C49   S    
C50   O29   S    
C44   H14   S    
C51   O30   D    
C42   C51   S    
C28   O7    A    
C33   C36   S    
O26   C48   S    
C7    C8    A    
C29   O9    A    
C45   C46   A    
C2    C46   A    
C57   O41   S    
C31   O15   A    
C12   O18   A    
Cu1   O18   S    
Cu2   O12   S    
C36   C37   D    
Cu4   O2    S    
O31   H26   S    
C58   O43   S    
C6    C12   S    
C5    C6    A    
C11   C14   S    
C20   O27   S    
O32   C52   S    
C1    O1    A    
C52   H27   S    
C18   C19   D    
Cu6   O17   S    
C53   H32   S    
O45   H38   S    
C25   C37   S    
C36   C54   S    
C31   C39   S    
C16   C17   D    
Cu3   O5    S    
C50   O28   D    
Cu2   O21   S    
C8    C58   S    
C1    C15   S    
Cu5   O11   S    
C9    C10   A    
Cu5   O14   S    
C24   H8    S    
C30   O13   A    
C47   H17   S    
Cu2   O23   S    
C26   O4    A    
Cu1   O22   S    
C35   O33   S    
C2    C6    A    
Cu3   O24   S    
C4    C7    A    
C9    O25   S    
C59   O45   S    
C59   O44   D    
C13   H1    S    
C19   H6    S    
C38   C39   D    
C32   O17   A    
C21   C32   S    
C25   O24   A    
C33   O32   S    
Cu5   Cu6   S    
C15   H2    S    
C13   C30   S    
O39   H35   S    
Cu5   O9    S    
C49   H23   S    
Cu4   O6    S    
C7    C57   S    
C11   C59   S    
C10   H15   S    
C3    C4    A    
Cu1   O20   S    
C43   C44   A    
C34   O23   A    
C27   C41   S    
C18   H5    S    
Cu1   Cu2   S    
C43   H13   S    
C51   O31   S    
Cu4   O4    S    
Cu6   O15   S    
C17   H4    S    
C53   H30   S    
C40   C41   D    
C20   C22   S    
Cu3   Cu4   S    
C47   H18   S    
C48   H20   S    
Cu3   O3    S    
C56   O38   D    
C26   O3    A    
C22   C24   D    
C25   O2    A    
C42   C43   A    
Cu6   O10   S    
Cu5   O16   S    
Cu1   O1    S    
O33   C53   S    
C14   O26   S    
C54   O35   S    
C55   O36   D    
C32   O16   A    
Cu3   O7    S    
C17   C28   S    
Cu6   O13   S    
C3    C26   S    
C44   C45   A    
C4    C5    A    
C19   C34   S    
C37   H9    S    
O41   H36   S    
C21   H7    S    
O35   H33   S    
C48   H21   S    
C39   H11   S    
C57   O40   D    
C29   C35   S    
C3    C46   A    
C45   C56   S    
C31   O14   A    
C52   H29   S    
C12   O19   A    
C23   O21   A    
C34   O22   A    
O43   H37   S    
C16   H3    S    
C5    C10   A    
C27   O6    A    
Cu4   O8    S    
C38   C40   S    
C11   C13   D    
C54   O34   D    
C2    C42   A    
C1    O12   A    
O25   C47   S    
C33   C35   D    
C52   H28   S    
C49   H24   S    
Cu2   O19   S    
O37   H34   S    
C53   H31   S    
C23   C24   S    
C30   O11   A    
C29   O10   A    
C20   C21   D    
C16   C18   S    
C48   H19   S    
O29   H25   S    
C49   H22   S    
C56   O39   S    
C14   C15   D    
C23   O20   A    
C41   H12   S    
C38   H10   S    
C58   O42   D    
C28   O8    A    
C27   O5    A    
C22   C50   S    
C55   O37   S    
