data_mof_unit_8944.cif
_audit_creation_date              2012-12-10T18:31:50-0500
_audit_creation_method            fapswitch 2.2
_symmetry_space_group_name_H-M    P1
_symmetry_Int_Tables_number       1
_space_group_crystal_system       triclinic
_cell_length_a                    10.629668
_cell_length_b                    14.950774
_cell_length_c                    15.346813
_cell_angle_alpha                 81.260264
_cell_angle_beta                  90.857491
_cell_angle_gamma                 103.053688
_cell_volume                      2347.85568586

loop_
_atom_site_label
_atom_site_type_symbol
_atom_type_description
_atom_site_fract_x
_atom_site_fract_y
_atom_site_fract_z
_atom_type_partial_charge
C1    C     C_R   0.483361 0.441442 0.662457 0.883296
C2    C     C_3   0.120435 0.497114 0.502052 0.107145
C3    C     C_3   0.063993 0.477202 0.411164 -0.429146
C4    C     C_3   0.101741 0.594870 0.513597 -0.488411
C5    C     C_R   0.484135 0.404945 0.756241 -0.124333
C6    C     C_R   0.547838 0.594236 0.244759 -0.112671
C7    C     C_R   0.431548 0.279050 0.880353 0.550115
C8    C     C_R   0.432978 0.311306 0.788979 -0.352270
C9    C     C_R   0.540238 0.465925 0.813093 -0.276912
C10   C     C_R   0.542867 0.436541 0.903379 0.021169
C11   C     C_R   0.484918 0.342721 0.937666 0.062841
C12   C     C_R   0.741675 0.500439 0.498997 0.854597
C13   C     C_R   0.591802 0.500843 0.960997 0.101368
C14   C     C_R   0.555582 0.476193 0.050698 0.078894
C15   C     C_R   0.511530 0.381552 0.085097 -0.263626
C16   C     C_R   0.478120 0.315263 0.029189 -0.198157
C17   C     C_R   0.674419 0.588720 0.932486 -0.241614
C18   C     C_R   0.712616 0.651882 0.990962 -0.236957
C19   C     C_R   0.660201 0.632269 0.076391 0.138793
C20   C     C_R   0.571405 0.546676 0.104038 0.065209
C21   C     C_R   0.694547 0.696860 0.134659 -0.217719
C22   C     C_R   0.643961 0.675321 0.220350 -0.246287
C23   C     C_R   0.518976 0.558536 0.337718 0.840310
C24   C     C_R   0.497682 0.537240 0.182012 0.109072
C25   C     C_R   0.693209 0.826597 0.652315 0.098367
C26   C     C_R   0.656855 0.741911 0.620373 -0.051342
C27   C     C_R   0.534999 0.805774 0.505804 0.244450
C28   C     C_R   0.580425 0.895383 0.531036 -0.094275
C29   C     C_R   0.635620 0.899871 0.614468 -0.086657
C30   C     C_R   0.558738 0.977750 0.481440 0.064760
C31   C     C_R   0.539429 0.051648 0.524092 -0.044959
C32   C     C_R   0.563691 0.045135 0.617481 0.028463
C33   C     C_R   0.616821 0.971131 0.660574 0.497359
C34   C     C_R   0.257921 0.498969 0.501628 0.842253
C35   C     C_R   0.556280 0.987370 0.389216 -0.169727
C36   C     C_R   0.489594 0.047332 0.341964 -0.226732
C37   C     C_R   0.443572 0.110410 0.384121 0.117273
C38   C     C_R   0.488905 0.122982 0.470533 -0.002199
C39   C     C_R   0.366631 0.168716 0.339532 0.082075
C40   C     C_R   0.359363 0.248298 0.374485 -0.037304
C41   C     C_R   0.490885 0.209908 0.494118 -0.067268
C42   C     C_3   0.900828 0.423280 0.574339 -0.390270
C43   C     C_3   0.046430 0.425520 0.580691 0.017573
C44   C     C_3   0.920031 0.479909 0.408307 0.419074
C45   C     C_3   0.959302 0.594979 0.516671 -0.510290
C46   C     C_3   0.877855 0.499487 0.499286 0.063978
H1    H     H_    0.844072 0.354335 0.562744 0.211740
H2    H     H_    0.147988 0.646091 0.456745 0.205106
H3    H     H_    0.907820 0.539788 0.357941 0.037659
H4    H     H_    0.117255 0.530589 0.357721 0.102513
H5    H     H_    0.441285 0.243432 0.057910 0.186046
H6    H     H_    0.681767 0.720786 0.267853 0.165589
H7    H     H_    0.779843 0.717275 0.968451 0.146651
H8    H     H_    0.394239 0.264027 0.743373 0.167266
H9    H     H_    0.576184 0.538108 0.786307 0.165878
H10   H     H_    0.864556 0.435138 0.638405 0.125304
H11   H     H_    0.506889 0.358084 0.155391 0.145691
H12   H     H_    0.716204 0.608017 0.866700 0.141654
H13   H     H_    0.765432 0.761278 0.115537 0.143504
H14   H     H_    0.553381 0.237047 0.543899 0.175634
H15   H     H_    0.309477 0.298324 0.340116 0.125193
H16   H     H_    0.481340 0.046617 0.271863 0.138891
H17   H     H_    0.692862 0.682671 0.650638 0.152192
H18   H     H_    0.079130 0.455804 0.641510 0.108064
H19   H     H_    0.601158 0.945083 0.353901 0.133665
H20   H     H_    0.077432 0.409871 0.395984 0.207991
H21   H     H_    0.940169 0.652088 0.466265 0.193616
H22   H     H_    0.933868 0.609238 0.582601 0.205737
H23   H     H_    0.146867 0.616770 0.575215 0.202800
N1    N     N_R   0.573860 0.731700 0.552730 -0.138761
N2    N     N_R   0.426060 0.268290 0.447230 -0.121594
O1    O     O_R   0.462770 0.383110 0.605620 -0.625056
O2    O     O_R   0.510160 0.531900 0.639510 -0.620961
O3    O     O_R   0.661510 0.425600 0.483070 -0.567874
O4    O     O_R   0.708900 0.574390 0.516960 -0.637115
O5    O     O_R   0.489840 0.468100 0.360490 -0.611307
O6    O     O_R   0.537230 0.616890 0.394380 -0.632469
O7    O     O_R   0.291100 0.425610 0.483040 -0.620869
O8    O     O_R   0.338490 0.574400 0.516930 -0.636837
Zn1   Zn    Zn3+2 0.468350 0.400660 0.477370 0.929324
Zn2   Zn    Zn3+2 0.531650 0.599340 0.522630 0.903989
C47   C     C_3   0.357311 0.481497 0.192796 -0.385085
C48   C     C_3   0.274589 0.509880 0.115728 -0.870402
H24   H     H_    0.283018 0.586188 0.105852 0.259142
H25   H     H_    0.304138 0.489410 0.053999 0.270040
H26   H     H_    0.171760 0.474591 0.130235 0.241125
H27   H     H_    0.348888 0.405733 0.201897 0.199990
H28   H     H_    0.311452 0.494599 0.252783 0.194285
O9    O     O_3   0.385296 0.185945 0.915422 -0.618004
C49   C     C_3   0.267211 0.147376 0.877787 -0.346080
H29   H     H_    0.284889 0.123756 0.814801 0.163014
H30   H     H_    0.201190 0.196184 0.868104 0.157310
H31   H     H_    0.217222 0.085134 0.923528 0.195215
O10   O     O_3   0.635098 0.963937 0.750904 -0.625199
C50   C     C_3   0.530773 0.897352 0.795340 -0.354727
H32   H     H_    0.435098 0.906872 0.770125 0.148134
H33   H     H_    0.533184 0.905133 0.866113 0.204311
H34   H     H_    0.539492 0.825549 0.791178 0.172831
C51   C     C_3   0.795477 0.836555 0.722658 -0.364074
C52   C     C_3   0.921125 0.815792 0.692630 -0.935503
H35   H     H_    0.907504 0.741509 0.685316 0.250549
H36   H     H_    0.955889 0.859850 0.628806 0.271800
H37   H     H_    0.996339 0.831168 0.742645 0.252182
H38   H     H_    0.821805 0.908230 0.738325 0.262249
H39   H     H_    0.758493 0.788475 0.783970 0.196785
C53   C     C_3   0.428833 0.787767 0.438527 -0.360171
C54   C     C_3   0.305917 0.815795 0.464199 -0.901812
H40   H     H_    0.269329 0.777567 0.529926 0.259327
H41   H     H_    0.321788 0.891037 0.466624 0.276364
H42   H     H_    0.231043 0.799857 0.414192 0.239698
H43   H     H_    0.460158 0.819896 0.370627 0.174535
H44   H     H_    0.401919 0.714342 0.432202 0.259699
C55   C     C_3   0.528962 0.109458 0.676777 -0.353836
C56   C     C_3   0.649493 0.180102 0.698363 -0.811306
H45   H     H_    0.708923 0.145855 0.746896 0.285405
H46   H     H_    0.710364 0.211216 0.638530 0.233422
H47   H     H_    0.621298 0.236391 0.727265 0.247353
H48   H     H_    0.450064 0.142384 0.651149 0.167811
H49   H     H_    0.485018 0.069242 0.739919 0.234432
C57   C     C_3   0.292759 0.150278 0.256232 -0.439704
C58   C     C_3   0.147201 0.134299 0.272087 -0.857424
H50   H     H_    0.114192 0.075316 0.326096 0.263231
H51   H     H_    0.121609 0.197476 0.289538 0.250104
H52   H     H_    0.095653 0.117419 0.211121 0.251037
H53   H     H_    0.324455 0.210826 0.203645 0.201294
H54   H     H_    0.308982 0.088329 0.230949 0.214658
C59   C     C_3   0.073344 0.326199 0.600551 -0.398864
C60   C     C_3   0.041912 0.264850 0.528002 -0.787611
H55   H     H_    0.948635 0.269143 0.496560 0.281524
H56   H     H_    0.119781 0.282555 0.477025 0.261620
H57   H     H_    0.035294 0.191329 0.557539 0.227339
H58   H     H_    0.175453 0.330619 0.619817 0.212876
H59   H     H_    0.014670 0.289025 0.660056 0.192401
O11   O     O_3   0.846040 0.393470 0.389355 -0.596553
C61   C     C_3   0.820560 0.398480 0.298473 -0.307654
H60   H     H_    0.911518 0.420519 0.258130 0.148122
H61   H     H_    0.755222 0.446269 0.278430 0.169025
H62   H     H_    0.770590 0.328391 0.285318 0.195610

loop_
_geom_bond_atom_site_label_1
_geom_bond_atom_site_label_2
_ccdc_geom_bond_type
C44   H3    S    
C61   H62   S    
C40   N2    A    
C12   O3    A    
C15   H11   S    
C19   C20   A    
C16   H5    S    
C23   O5    A    
C33   O10   S    
C56   H45   S    
C50   H34   S    
C61   H60   S    
C53   H44   S    
C45   C46   S    
C7    C11   A    
C30   C35   A    
C1    C5    S    
C28   C29   A    
C19   C21   A    
C21   H13   S    
C30   C31   A    
O7    Zn1   S    
C53   C54   S    
C35   H19   S    
C59   H59   S    
C39   C57   S    
C7    O9    S    
C29   C33   A    
C18   C19   A    
C42   C46   S    
N1    Zn2   S    
C24   C47   S    
C59   H58   S    
N2    Zn1   S    
C58   H52   S    
C18   H7    S    
C42   H10   S    
C55   H49   S    
C25   C51   S    
C50   H32   S    
C45   H21   S    
C54   H40   S    
C9    H9    S    
C32   C55   S    
C9    C10   A    
C17   H12   S    
C41   N2    A    
C2    C34   S    
C51   H38   S    
O3    Zn1   S    
C21   C22   A    
C60   H55   S    
C25   C29   A    
C54   H41   S    
C36   H16   S    
O2    Zn2   S    
C4    H23   S    
C3    H4    S    
C44   C46   S    
C43   H18   S    
C4    C45   S    
C44   O11   S    
C51   H39   S    
C3    C44   S    
C1    O1    A    
C15   C16   A    
C14   C20   A    
C7    C8    A    
C38   C41   A    
C12   C46   S    
C43   C59   S    
C39   C40   A    
O8    Zn2   S    
C57   H53   S    
O4    Zn2   S    
C27   C53   S    
C25   C26   A    
C52   H37   S    
C40   H15   S    
C35   C36   A    
C2    C4    S    
C26   H17   S    
C5    C9    A    
C37   C38   A    
C34   O8    A    
C11   C16   A    
C49   H30   S    
C48   H24   S    
O6    Zn2   S    
C2    C43   S    
C6    C24   A    
C45   H22   S    
C52   H36   S    
C17   C18   A    
C23   O6    A    
C58   H50   S    
O11   C61   S    
C27   N1    A    
C48   H25   S    
C26   N1    A    
C54   H42   S    
C3    H20   S    
C42   C43   S    
C8    H8    S    
C53   H43   S    
C60   H57   S    
C57   C58   S    
C49   H31   S    
C22   H6    S    
C55   C56   S    
C4    H2    S    
C61   H61   S    
C36   C37   A    
C31   C32   A    
O5    Zn1   S    
C41   H14   S    
C10   C13   A    
C60   H56   S    
C5    C8    A    
C56   H46   S    
C50   H33   S    
C59   C60   S    
C31   C38   A    
C13   C17   A    
C1    O2    A    
C32   C33   A    
C28   C30   A    
C2    C3    S    
O1    Zn1   S    
C51   C52   S    
C34   O7    A    
C49   H29   S    
C47   H28   S    
C6    C23   S    
C52   H35   S    
C57   H54   S    
C42   H1    S    
O10   C50   S    
C58   H51   S    
C56   H47   S    
C10   C11   A    
C55   H48   S    
C48   H26   S    
C37   C39   A    
C47   C48   S    
C12   O4    A    
C27   C28   A    
C14   C15   A    
O9    C49   S    
C13   C14   A    
C20   C24   A    
C47   H27   S    
C6    C22   A    
