data_mof_unit_42453.cif
_audit_creation_date              2013-03-05T15:48:00-0500
_audit_creation_method            fapswitch 2.2
_symmetry_space_group_name_H-M    P1
_symmetry_Int_Tables_number       1
_space_group_crystal_system       triclinic
_cell_length_a                    8.540297
_cell_length_b                    18.941945
_cell_length_c                    27.043346
_cell_angle_alpha                 96.82535
_cell_angle_beta                  91.324789
_cell_angle_gamma                 85.847069
_cell_volume                      4331.92280862

loop_
_atom_site_label
_atom_site_type_symbol
_atom_site_description
_atom_site_fract_x
_atom_site_fract_y
_atom_site_fract_z
_atom_type_partial_charge
P1    P     P_3+3 0.082480 0.557670 0.610090 0.514814
O1    O     O_2   0.913240 0.537010 0.617740 -0.327876
O2    O     O_3   0.145240 0.536960 0.557560 -0.373137
O3    O     O_3   0.669960 0.410470 0.588880 -0.384902
O4    O     O_2   0.813248 0.454422 0.674281 -0.362585
O5    O     O_3   0.070686 0.650580 0.624659 -0.600930
O6    O     O_3   0.636800 0.352033 0.681410 -0.480156
H1    H     H_    0.724066 0.291898 0.616712 0.051827
C1    C     C_3   0.650936 0.223543 0.668967 0.806579
H2    H     H_    0.712181 0.181680 0.642211 -0.154533
P2    P     P_3+3 0.635220 0.340300 0.462910 0.499005
P3    P     P_3+3 0.116539 0.280022 0.551919 0.495730
O7    O     O_2   0.812980 0.329910 0.477500 -0.350177
O8    O     O_3   0.078660 0.374870 0.564770 -0.423220
O9    O     O_2   0.023946 0.255416 0.504315 -0.347954
O10   O     O_3   0.637344 0.313137 0.397823 -0.663948
O11   O     O_3   0.035615 0.232305 0.595750 -0.609928
C2    C     C_3   0.079921 0.254234 0.645905 1.233678
C3    C     C_3   0.082675 0.187021 0.673087 0.236601
H3    H     H_    0.967781 0.163506 0.666752 0.045488
C4    C     C_3   0.017733 0.310607 0.365353 1.177731
H4    H     H_    0.912731 0.336092 0.384400 -0.025429
C5    C     C_3   0.009891 0.306793 0.308050 -1.212961
H5    H     H_    0.128640 0.309829 0.292894 0.265000
H6    H     H_    0.965062 0.256072 0.290575 0.267296
H7    H     H_    0.929851 0.349807 0.295783 0.232546
Ba1   Ba    Ba6+2 0.854000 0.466860 0.523710 1.626032
C6    C     C_3   0.975360 0.684089 0.590349 0.789471
H8    H     H_    0.866041 0.656267 0.581411 -0.037595
C7    C     C_3   0.926689 0.760030 0.613589 0.189684
H9    H     H_    0.851075 0.756546 0.645950 0.096460
H10   H     H_    0.851919 0.788299 0.586909 0.052518
C8    C     C_3   0.615022 0.366315 0.364928 1.164050
H11   H     H_    0.721885 0.369753 0.343723 -0.254574
C9    C     C_3   0.496605 0.342636 0.324547 -0.868982
H12   H     H_    0.541095 0.291348 0.303607 0.170772
H13   H     H_    0.477276 0.382621 0.297816 0.250163
H14   H     H_    0.384402 0.334241 0.341056 0.254957
P4    P     P_3+3 0.107220 0.442270 0.389900 0.509774
O12   O     O_2   0.276450 0.462960 0.382230 -0.264379
O13   O     O_3   0.044470 0.462980 0.442430 -0.385694
O14   O     O_3   0.519740 0.589470 0.411120 -0.319238
O15   O     O_3   0.146032 0.348977 0.383925 -0.559841
P5    P     P_3+3 0.089004 0.718307 0.437074 0.572650
O16   O     O_3   0.632420 0.583650 0.524140 -0.353158
O17   O     O_3   0.111040 0.625070 0.435230 -0.396105
O18   O     O_2   0.228876 0.748974 0.467663 -0.292477
O19   O     O_3   0.118647 0.741246 0.377465 -0.445175
Ba2   Ba    Ba6+2 0.335820 0.533080 0.476290 1.636682
P6    P     P_3+3 0.652535 0.430683 0.654196 0.564542
C10   C     C_3   0.630001 0.293152 0.644510 0.386775
H15   H     H_    0.516503 0.295966 0.623876 -0.031055
O20   O     O_3   0.557280 0.416300 0.475860 -0.353095
C11   C     C_3   0.509859 0.654762 0.628453 0.808903
H16   H     H_    0.426074 0.619867 0.607579 0.058457
C12   C     C_3   0.421554 0.693139 0.673669 0.081045
H17   H     H_    0.317105 0.723784 0.659670 0.156331
H18   H     H_    0.381205 0.652476 0.696113 0.025360
P7    P     P_3+3 0.557245 0.673802 0.536315 0.485632
O21   O     O_2   0.376710 0.670070 0.522470 -0.301641
O22   O     O_3   0.560889 0.705389 0.599866 -0.633234
H19   H     H_    0.099142 0.201446 0.713877 0.048470
C13   C     C_3   0.007719 0.708661 0.345094 0.460100
H20   H     H_    0.035407 0.650092 0.339971 0.099275
H21   H     H_    0.887023 0.721588 0.359527 0.002534
C14   C     C_3   0.014530 0.736055 0.294629 -0.980629
H22   H     H_    0.124403 0.714476 0.275527 0.278308
H23   H     H_    0.913500 0.718608 0.271000 0.241816
H24   H     H_    0.009432 0.795231 0.299284 0.257799
P8    P     P_3+3 0.551692 0.583977 0.346544 0.538171
C15   C     C_3   0.497841 0.718854 0.334844 1.237278
H25   H     H_    0.628263 0.712733 0.336879 -0.194725
O23   O     O_2   0.474771 0.516369 0.322754 -0.309706
O24   O     O_3   0.432005 0.652462 0.323569 -0.533143
H26   H     H_    0.536381 0.804977 0.290187 0.219611
C16   C     C_3   0.452238 0.763342 0.291993 -1.124682
H27   H     H_    0.332516 0.789622 0.297422 0.281649
H28   H     H_    0.454419 0.729310 0.255597 0.250630
C17   C     C_R   0.115970 0.490812 0.186944 0.563449
O25   O     O_2   0.224534 0.489939 0.217074 -0.561512
N1    N     N_R   0.961695 0.503169 0.203287 -0.166365
C18   C     C_R   0.842453 0.505782 0.167359 0.647801
C19   C     C_2   0.808002 0.565510 0.274481 0.498535
C20   C     C_3   0.768438 0.578383 0.330093 -0.125249
C21   C     C_1   0.984912 0.487488 0.343393 0.185595
C22   C     C_2   0.016835 0.476406 0.294996 -0.298426
C23   C     C_2   0.923779 0.515449 0.257082 0.068047
C24   C     C_R   0.031161 0.495180 0.100356 -0.126557
C25   C     C_R   0.149864 0.480383 0.135171 -0.108711
C26   C     C_R   0.301501 0.458928 0.117763 -0.206121
C27   C     C_R   0.876872 0.512494 0.117108 -0.280585
C28   C     C_2   0.866431 0.531037 0.361838 -0.384633
H29   H     H_    0.109202 0.436508 0.282533 0.194836
H30   H     H_    0.395458 0.451147 0.144506 0.215025
C29   C     C_2   0.360545 0.495894 0.639564 0.140807
C30   C     C_R   0.239717 0.455120 0.977870 0.075001
C31   C     C_R   0.997088 0.529371 0.966313 0.087632
C32   C     C_R   0.136172 0.492518 0.946600 0.084164
C33   C     C_R   0.359412 0.408166 0.954524 -0.148120
C34   C     C_R   0.385078 0.403788 0.903314 -0.113308
C35   C     C_R   0.294762 0.447284 0.873237 -0.086286
C36   C     C_R   0.170965 0.492368 0.895057 -0.077333
C37   C     C_R   0.081098 0.536896 0.865399 -0.055676
C38   C     C_R   0.124372 0.539904 0.815284 0.543708
N2    N     N_R   0.245727 0.494591 0.793525 -0.148532
C39   C     C_R   0.323871 0.445602 0.821692 0.610285
C40   C     C_2   0.447341 0.500598 0.730074 0.461001
C41   C     C_3   0.495074 0.501089 0.675979 0.034334
C42   C     C_1   0.214583 0.514364 0.654665 0.147967
C43   C     C_2   0.172309 0.505147 0.700486 -0.390926
C44   C     C_2   0.292977 0.499045 0.741863 -0.037748
O26   O     O_2   0.418536 0.400077 0.801895 -0.544586
C45   C     C_R   0.215783 0.464354 0.030769 -0.141523
C46   C     C_R   0.067036 0.493621 0.048911 0.037385
C47   C     C_R   0.953916 0.521999 0.016005 0.008043
C48   C     C_R   0.334698 0.447291 0.066250 0.623934
H31   H     H_    0.478225 0.366693 0.887451 0.174185
H32   H     H_    0.429370 0.371038 0.974578 0.167769
O27   O     O_2   0.706368 0.501448 0.178944 -0.520198
C49   C     C_R   0.761917 0.536829 0.083424 0.736775
C50   C     C_R   0.907303 0.573032 0.935723 -0.207591
C51   C     C_R   0.951633 0.578451 0.886910 -0.088136
O28   O     O_2   0.054963 0.583624 0.791424 -0.610322
C52   C     C_R   0.801273 0.541980 0.033937 -0.351431
H33   H     H_    0.806043 0.606290 0.949642 0.124273
H34   H     H_    0.882416 0.614945 0.865853 0.144298
H35   H     H_    0.049694 0.503816 0.708796 0.249210
H36   H     H_    0.708047 0.559553 0.009616 0.162037
H37   H     H_    0.852039 0.542718 0.401785 0.155008
C53   C     C_R   0.388966 0.276987 0.498008 0.243012
C54   C     C_R   0.550822 0.275354 0.498179 0.122407
C55   C     C_R   0.633996 0.214952 0.514122 -0.376850
C56   C     C_R   0.550295 0.164238 0.535346 0.060218
C57   C     C_R   0.394602 0.184592 0.550902 -0.364018
C58   C     C_R   0.317550 0.246176 0.534771 0.156555
C59   C     C_R   0.604070 0.044808 0.568449 -0.377350
C60   C     C_R   0.650031 0.970724 0.560805 0.576024
C61   C     C_R   0.691378 0.938458 0.512406 -0.186565
C62   C     C_R   0.696026 0.981420 0.473153 0.571416
C63   C     C_R   0.654926 0.055319 0.482401 -0.379099
C64   C     C_R   0.609383 0.087592 0.529721 0.124357
C65   C     C_R   0.875939 0.831655 0.478681 0.436511
C66   C     C_R   0.901338 0.757717 0.464716 0.166330
C67   C     C_R   0.657350 0.737012 0.503100 0.284089
C68   C     C_R   0.626643 0.810884 0.515232 -0.283549
C69   C     C_R   0.732777 0.859478 0.502297 -0.044898
C70   C     C_R   0.789997 0.711477 0.475701 -0.576132
H38   H     H_    0.521758 0.830289 0.535769 0.194020
H39   H     H_    0.562522 0.069020 0.604353 0.153673
H40   H     H_    0.756011 0.203032 0.504714 0.207616
H41   H     H_    0.649753 0.087549 0.451861 0.143464
H42   H     H_    0.329341 0.149557 0.570016 0.217225
H43   H     H_    0.814219 0.654543 0.466961 0.163307
O29   O     O_3   0.060871 0.687476 0.547510 -0.749394
H44   H     H_    0.040545 0.644170 0.524742 0.331902
O30   O     O_3   0.059680 0.796472 0.631464 -0.596538
C71   C     C_3   0.098436 0.844972 0.598679 -0.137718
H45   H     H_    0.002104 0.887122 0.595980 0.119176
H46   H     H_    0.127258 0.817311 0.561128 0.195761
H47   H     H_    0.204184 0.871466 0.613583 0.154918
O31   O     O_3   0.570886 0.433950 0.388342 -0.639301
H48   H     H_    0.668639 0.454438 0.401989 0.279633
O32   O     O_3   0.505298 0.201292 0.680783 -0.745064
H49   H     H_    0.463965 0.176081 0.649673 0.327974
O33   O     O_3   0.639834 0.612898 0.643705 -0.766246
H50   H     H_    0.715788 0.645561 0.660373 0.325891
O34   O     O_3   0.520311 0.739256 0.702461 -0.590403
C72   C     C_3   0.435007 0.776477 0.742604 -0.155566
H51   H     H_    0.390404 0.739286 0.767026 0.127764
H52   H     H_    0.336455 0.811278 0.729120 0.151766
H53   H     H_    0.514715 0.811314 0.765488 0.150822
O35   O     O_3   0.741610 0.233684 0.712825 -0.669182
H54   H     H_    0.754525 0.186832 0.725998 0.301441
O36   O     O_3   0.436043 0.752294 0.380570 -0.573316
C73   C     C_3   0.508473 0.815964 0.396272 -0.135507
H55   H     H_    0.477959 0.857393 0.371206 0.149617
H56   H     H_    0.637931 0.806365 0.399664 0.114627
H57   H     H_    0.461812 0.837968 0.433192 0.191491
O37   O     O_3   0.962951 0.303748 0.666523 -0.802012
H58   H     H_    0.964656 0.345088 0.647398 0.350148
O38   O     O_3   0.560712 0.504545 0.767659 -0.564832
C74   C     C_3   0.634879 0.568705 0.768250 -0.104587
H59   H     H_    0.548160 0.615730 0.770329 0.101027
H60   H     H_    0.711988 0.567485 0.735631 0.182892
H61   H     H_    0.710404 0.575099 0.802019 0.163699
O39   O     O_3   0.488766 0.431790 0.050978 -0.595104
C75   C     C_3   0.557322 0.371227 0.071257 -0.295367
H62   H     H_    0.474013 0.328675 0.071816 0.115349
H63   H     H_    0.606216 0.386439 0.109090 0.187267
H64   H     H_    0.657113 0.348426 0.047537 0.172799
O40   O     O_3   0.743040 0.611561 0.242504 -0.755538
H65   H     H_    0.669490 0.646499 0.261325 0.310530
O41   O     O_3   0.609965 0.556624 0.098690 -0.562327
C76   C     C_3   0.595003 0.631198 0.111022 -0.155229
H66   H     H_    0.609245 0.659233 0.077680 0.093611
H67   H     H_    0.680130 0.649097 0.140915 0.153356
H68   H     H_    0.475221 0.646527 0.125408 0.175250
O42   O     O_3   0.229490 0.283734 0.650120 -0.693799
C77   C     C_3   0.257181 0.319565 0.698401 -0.182444
H69   H     H_    0.285023 0.281337 0.725903 0.205202
H70   H     H_    0.160322 0.358534 0.712214 0.154962
H71   H     H_    0.359107 0.351514 0.696835 0.196754
O43   O     O_3   0.400106 0.488338 0.589816 -0.591920
C78   C     C_3   0.358952 0.421258 0.567636 0.276805
H72   H     H_    0.277763 0.427372 0.535941 0.164604
H73   H     H_    0.329147 0.384088 0.594430 -0.010276
H74   H     H_    0.455339 0.392923 0.548130 0.061896
O44   O     O_3   0.645829 0.927353 0.598771 -0.616053
C79   C     C_3   0.710467 0.959365 0.643749 -0.233252
H75   H     H_    0.620347 0.995448 0.664731 0.145192
H76   H     H_    0.816351 0.988240 0.637767 0.115070
H77   H     H_    0.747766 0.916724 0.667190 0.187467
O45   O     O_3   0.725623 0.948142 0.425242 -0.623334
C80   C     C_3   0.827695 0.986011 0.399519 -0.183170
H78   H     H_    0.922746 0.008891 0.423983 0.135971
H79   H     H_    0.760327 0.028310 0.381192 0.113853
H80   H     H_    0.885218 0.948390 0.369694 0.177311
O46   O     O_3   0.994857 0.874286 0.470300 -0.730092
H81   H     H_    0.981490 0.919675 0.492507 0.300078
O47   O     O_3   0.309228 0.285858 0.454051 -0.567413
C81   C     C_3   0.341507 0.222728 0.420511 0.094052
H82   H     H_    0.261599 0.181429 0.427717 0.132798
H83   H     H_    0.464566 0.199067 0.421678 0.027952
H84   H     H_    0.325564 0.235012 0.381702 0.159754
O48   O     O_3   0.201899 0.136673 0.653595 -0.614524
C82   C     C_3   0.203346 0.075147 0.678294 -0.222525
H85   H     H_    0.090394 0.049264 0.672557 0.122097
H86   H     H_    0.229765 0.087675 0.718733 0.149831
H87   H     H_    0.297702 0.036329 0.662331 0.171378
O49   O     O_3   0.044242 0.240150 0.377838 -0.631285
C83   C     C_3   0.904970 0.204358 0.378462 -0.272880
H88   H     H_    0.817739 0.217840 0.349309 0.136262
H89   H     H_    0.852163 0.214784 0.415829 0.204355
H90   H     H_    0.935984 0.146193 0.371537 0.145523

loop_
_geom_bond_atom_site_label_1
_geom_bond_atom_site_label_2
_geom_bond_distance
_ccdc_geom_bond_type
C14   H23   1.107985 S    
O43   C78   1.404124 S    
C13   H21   1.110916 S    
O33   H50   0.992509 S    
C55   H40   1.079863 S    
C65   C69   1.429430 A    
C76   H67   1.113734 S    
C3    H3    1.108131 S    
C1    C10   1.541308 S    
O3    Ba1   2.745199 S    
N1    C18   1.393538 Am   
O2    Ba2   2.755829 S    
C61   C62   1.415133 A    
C35   C39   1.417822 A    
P4    O13   1.526909 S    
C38   O28   1.221398 D    
C39   O26   1.221957 D    
C21   C22   1.332036 D    
C66   C70   1.398263 A    
O17   Ba2   2.798433 S    
C35   C36   1.404843 A    
Ba2   O21   2.784909 S    
C40   O38   1.386751 S    
C19   O40   1.379680 S    
C6    H8    1.112810 S    
C9    H13   1.109051 S    
C16   H28   1.110406 S    
C2    C3    1.542443 S    
C81   H84   1.105003 S    
C15   C16   1.538949 S    
C8    C9    1.521413 S    
C80   H79   1.110432 S    
C72   H52   1.112868 S    
C14   H24   1.110769 S    
C3    H19   1.112665 S    
C29   O43   1.383059 S    
O12   Ba2   2.779653 S    
C30   C33   1.413964 A    
C31   C32   1.415335 A    
O14   P8    1.763453 S    
C79   H77   1.109415 S    
C12   H17   1.112473 S    
O11   C2    1.421446 S    
P1    O1    1.549195 D    
C5    H7    1.101929 S    
C1    O32   1.397524 S    
O36   C73   1.411255 S    
C65   O46   1.381226 S    
C75   H64   1.109259 S    
C31   C50   1.413409 A    
P1    C42   1.853898 S    
C4    O15   1.408612 S    
Ba2   O20   2.803451 S    
C72   H53   1.109205 S    
O5    C6    1.398846 S    
C19   C20   1.536157 S    
C12   H18   1.113393 S    
C55   C56   1.418699 A    
P3    C58   1.838436 S    
C30   C32   1.419870 A    
P3    O11   1.755749 S    
C2    O42   1.427723 S    
C77   H71   1.099943 S    
C5    H5    1.110438 S    
C78   H74   1.064313 S    
C26   H30   1.081671 S    
O1    Ba1   2.778961 S    
C26   C48   1.416275 A    
O8    Ba1   2.797785 S    
C31   C47   1.427005 A    
P8    C20   1.906335 S    
C1    H2    1.116683 S    
P2    O20   1.546056 S    
P5    O18   1.545733 D    
C43   H35   1.078773 S    
C52   H36   1.080162 S    
C45   C48   1.427473 A    
Ba1   O16   2.804227 S    
C7    O30   1.417399 S    
C76   H66   1.112690 S    
N2    C44   1.476797 S    
C13   C14   1.520390 S    
P7    O21   1.582783 D    
C71   H46   1.110282 S    
C4    H4    1.096402 S    
P6    C41   1.877257 S    
C78   H72   1.101531 S    
C62   O45   1.392084 S    
C36   C37   1.407941 A    
C18   O27   1.221632 D    
C67   C70   1.393039 A    
C70   H43   1.082155 S    
O13   Ba2   2.979431 S    
O47   C81   1.426416 S    
C21   C28   1.325818 D    
P5    O17   1.757369 S    
P2    Ba1   3.392850 S    
C68   C69   1.415355 A    
C73   H57   1.106707 S    
P8    O24   1.756094 S    
C79   H75   1.110534 S    
C11   C12   1.531123 S    
P7    O22   1.751706 S    
C17   C25   1.424017 A    
C13   H20   1.110342 S    
C10   H15   1.108304 S    
C9    H14   1.096159 S    
P5    O19   1.747244 S    
C16   H27   1.109346 S    
C73   H56   1.110857 S    
C83   H88   1.111270 S    
C29   C42   1.330222 D    
P4    O12   1.549405 D    
C17   N1    1.394183 Am   
C80   H78   1.114666 S    
O44   C79   1.412127 S    
O19   C13   1.400963 S    
P4    O15   1.763119 S    
O38   C74   1.408853 S    
C48   O39   1.388683 S    
C18   C27   1.419252 A    
C43   C44   1.512498 S    
C71   H45   1.111554 S    
O3    P6    1.769728 S    
P1    O2    1.526935 S    
C74   H61   1.105642 S    
C51   H34   1.081855 S    
C8    O31   1.390183 S    
H26   C16   1.110684 S    
C50   H33   1.079910 S    
C81   H82   1.111479 S    
C22   H29   1.082782 S    
O10   C8    1.421139 S    
P2    O10   1.774300 S    
Ba1   O13   2.755476 S    
C53   C54   1.380315 A    
C33   C34   1.398900 A    
H1    C10   1.109929 S    
C24   C27   1.406680 A    
O16   Ba2   2.985577 S    
C40   C41   1.528945 S    
C57   H42   1.080127 S    
P8    O23   1.546583 D    
O48   C82   1.409649 S    
O29   H44   0.988834 S    
C83   H89   1.106480 S    
N1    C23   1.485202 S    
C63   C64   1.401873 A    
C53   O47   1.377864 S    
C74   H59   1.113349 S    
C63   H41   1.082130 S    
C50   C51   1.399060 A    
O42   C77   1.421143 S    
O39   C75   1.413152 S    
C72   H51   1.112969 S    
P4    Ba2   3.398354 S    
C53   C58   1.385117 A    
C78   H73   1.114133 S    
C2    O37   1.397930 S    
O41   C76   1.409538 S    
P3    O9    1.537394 D    
C82   H86   1.112577 S    
C4    C5    1.542879 S    
C56   C57   1.416573 A    
C6    O29   1.393980 S    
O4    P6    1.542057 D    
P4    C21   1.863381 S    
C11   O33   1.400063 S    
C54   C55   1.408858 A    
O34   C72   1.409468 S    
C68   H38   1.082922 S    
O35   H54   0.992892 S    
P1    Ba1   3.397577 S    
C45   C46   1.422675 A    
N2    C39   1.393376 Am   
O40   H65   0.982912 S    
C59   H39   1.079589 S    
C11   H16   1.108476 S    
O30   C71   1.410970 S    
C47   C52   1.411363 A    
P1    O5    1.753275 S    
C22   C23   1.512358 S    
C40   C44   1.366654 D    
O6    P6    1.753097 S    
P3    O8    1.796059 S    
C59   C60   1.421651 A    
C80   H80   1.109365 S    
P2    C54   1.838957 S    
C19   C23   1.370370 D    
P7    C67   1.846816 S    
C15   O24   1.412096 S    
C62   C63   1.412397 A    
Ba1   O20   2.986395 S    
C46   C47   1.418763 A    
C57   C58   1.407337 A    
C34   H31   1.083400 S    
C11   O22   1.399855 S    
O37   H58   0.989529 S    
C71   H47   1.109353 S    
C82   H87   1.109587 S    
C60   C61   1.418211 A    
C56   C64   1.493497 S    
C49   O41   1.382968 S    
C15   O36   1.415803 S    
C67   C68   1.405744 A    
O2    Ba1   2.978562 S    
C28   H37   1.084664 S    
C3    O48   1.410254 S    
O6    C10   1.409006 S    
C15   H25   1.112244 S    
C81   H83   1.113548 S    
C73   H55   1.109905 S    
C32   C36   1.431542 A    
C42   C43   1.333256 D    
C33   H32   1.077275 S    
C7    H10   1.111795 S    
P2    O7    1.564160 D    
O46   H81   0.989491 S    
C7    H9    1.110524 S    
O31   H48   0.991166 S    
C61   C69   1.506172 S    
P5    C66   1.853178 S    
O45   C80   1.412657 S    
C4    O49   1.416411 S    
C12   O34   1.412571 S    
C6    C7    1.532169 S    
C34   C35   1.404843 A    
C79   H76   1.114669 S    
C59   C64   1.401778 A    
C8    H11   1.098949 S    
C14   H22   1.109551 S    
C83   H90   1.109086 S    
C5    H6    1.109026 S    
C24   C46   1.427892 A    
O49   C83   1.412479 S    
C30   C45   1.437948 A    
C74   H60   1.110034 S    
C75   H63   1.109876 S    
O32   H49   0.987760 S    
C29   C41   1.496831 S    
O14   Ba2   2.744571 S    
C17   O25   1.220624 D    
C76   H68   1.109349 S    
Ba1   Ba2   4.639407 S    
C77   H69   1.108574 S    
C24   C25   1.403629 A    
C75   H62   1.114689 S    
O16   P7    1.775953 S    
C82   H85   1.112865 S    
C37   C38   1.421671 A    
C77   H70   1.108594 S    
C27   C49   1.413871 A    
O7    Ba1   2.784709 S    
C1    O35   1.402936 S    
C65   C66   1.408978 A    
C9    H12   1.111122 S    
C20   C28   1.510889 S    
C25   C26   1.403703 A    
C37   C51   1.405464 A    
C49   C52   1.403605 A    
C38   N2    1.391550 Am   
C60   O44   1.391710 S    
