data_mof_unit_6908.cif
_audit_creation_date              2012-10-26T18:29:55-0400
_audit_creation_method            fapswitch 2.2
_symmetry_space_group_name_H-M    P1
_symmetry_Int_Tables_number       1
_space_group_crystal_system       triclinic
_cell_length_a                    10.920967
_cell_length_b                    12.991635
_cell_length_c                    11.846463
_cell_angle_alpha                 98.948486
_cell_angle_beta                  93.386249
_cell_angle_gamma                 93.997249
_cell_volume                      1652.12074295

loop_
_atom_site_label
_atom_site_type_symbol
_atom_type_description
_atom_site_fract_x
_atom_site_fract_y
_atom_site_fract_z
_atom_type_partial_charge
C1    C     C_R   0.501671 0.298918 0.477885 0.618096
C2    C     C_R   0.497827 0.029763 0.555772 0.037193
C3    C     C_R   0.463217 0.966356 0.449847 0.008759
C4    C     C_R   0.260802 0.499044 0.500368 0.538450
C5    C     C_R   0.449701 0.858596 0.442807 -0.068085
C6    C     C_R   0.521073 0.875703 0.642794 -0.077893
C7    C     C_R   0.522642 0.984025 0.653226 -0.078546
C8    C     C_R   0.393217 0.393476 0.023570 -0.100360
C9    C     C_R   0.392200 0.408889 0.143186 0.215880
C10   C     C_R   0.543663 0.551218 0.154683 0.182328
C11   C     C_R   0.539299 0.541313 0.032418 -0.033091
C12   C     C_3   0.881334 0.506951 0.503731 -0.076744
C13   C     C_R   0.468663 0.457496 0.966800 -0.047128
C14   C     C_R   0.466486 0.444091 0.845119 0.224682
C15   C     C_R   0.587066 0.604408 0.853893 0.077412
C16   C     C_R   0.496042 0.699929 0.521465 0.537800
C17   C     C_R   0.599232 0.615456 0.973637 -0.111121
C18   C     C_R   0.741002 0.503901 0.500469 0.570172
C19   C     C_3   0.069790 0.412528 0.561886 -0.204145
C20   C     C_3   0.931564 0.425249 0.585785 0.336301
C21   C     C_3   0.092606 0.609781 0.560936 -0.201577
C22   C     C_3   0.066580 0.483834 0.378428 -0.252824
C23   C     C_3   0.950040 0.622759 0.551245 0.143649
C24   C     C_3   0.124401 0.501197 0.501445 -0.119489
C25   C     C_2   0.865461 0.480029 0.263925 0.674821
C26   C     C_2   0.408241 0.343991 0.781583 0.603468
C27   C     C_2   0.281938 0.358926 0.187161 0.629251
C28   C     C_2   0.607300 0.648423 0.216890 0.590349
C29   C     C_2   0.908623 0.675536 0.666061 0.695477
C30   C     C_3   0.927073 0.464166 0.378372 -0.097012
C31   C     C_R   0.487967 0.812724 0.536145 0.039484
C32   C     C_R   0.500752 0.183566 0.462467 0.016239
C33   C     C_R   0.454814 0.010207 0.350244 -0.065311
C34   C     C_R   0.485828 0.116549 0.353495 0.269632
C35   C     C_R   0.510237 0.137523 0.561716 -0.134050
Cu1   Cu    Cu3+1 0.509350 0.507730 0.615930 1.105283
Cu2   Cu    Cu3+1 0.490650 0.492270 0.384070 1.114157
H1    H     H_    0.125720 0.410253 0.641941 0.240979
H2    H     H_    0.326338 0.335379 0.974933 0.186156
H3    H     H_    0.653291 0.684014 0.018682 0.159328
H4    H     H_    0.132654 0.621419 0.650188 0.221036
H5    H     H_    0.095241 0.551584 0.336678 0.229184
H6    H     H_    0.101259 0.414182 0.328330 0.171704
H7    H     H_    0.915269 0.378380 0.367527 0.178467
H8    H     H_    0.738226 0.422624 0.134863 0.352461
H9    H     H_    0.730490 0.687918 0.440050 0.350533
H10   H     H_    0.614575 0.069176 0.075985 0.376689
H11   H     H_    0.277744 0.267973 0.665478 0.337527
H12   H     H_    0.144765 0.670752 0.522502 0.162632
H13   H     H_    0.208727 0.264933 0.290736 0.327828
H14   H     H_    0.767140 0.737466 0.240213 0.397646
H15   H     H_    0.754861 0.228006 0.688568 0.375696
H16   H     H_    0.048524 0.549911 0.884243 0.396325
H17   H     H_    0.955089 0.761904 0.821866 0.358631
H18   H     H_    0.414059 0.810692 0.363349 0.183693
H19   H     H_    0.547990 0.841615 0.717405 0.147612
H20   H     H_    0.436982 0.959443 0.268217 0.184773
H21   H     H_    0.549317 0.031778 0.735592 0.151974
H22   H     H_    0.532686 0.185183 0.643782 0.202756
H23   H     H_    0.081067 0.336873 0.506603 0.146335
H24   H     H_    0.630287 0.663979 0.812027 0.177567
N1    N     N_R   0.523430 0.519360 0.790130 -0.243469
N2    N     N_R   0.476570 0.480640 0.209880 -0.274206
O1    O     O_R   0.506640 0.354460 0.582000 -0.473715
O2    O     O_R   0.762179 0.414696 0.216872 -0.594580
O3    O     O_2   0.001443 0.822551 0.523739 -0.205453
O4    O     O_2   0.969701 0.701353 0.346860 -0.247548
O5    O     O_3   0.779512 0.755490 0.458617 -0.463941
O6    O     O_2   0.413418 0.160060 0.146401 -0.267744
O7    O     O_2   0.611674 0.247067 0.232488 -0.177031
O8    O     O_3   0.600793 0.050610 0.152498 -0.498981
O9    O     O_2   0.440310 0.262069 0.807977 -0.542789
O10   O     O_R   0.310687 0.341744 0.700144 -0.680506
O11   O     O_2   0.181126 0.363119 0.137826 -0.514511
O12   O     O_R   0.490840 0.341410 0.386200 -0.400970
O13   O     O_R   0.290353 0.301121 0.276550 -0.635671
O14   O     O_2   0.548965 0.724783 0.238635 -0.529320
O15   O     O_R   0.735027 0.661198 0.221970 -0.643761
O16   O     O_2   0.776644 0.272938 0.439283 -0.263207
O17   O     O_2   0.929813 0.211498 0.565528 -0.259689
O18   O     O_3   0.738943 0.290251 0.652801 -0.463622
O19   O     O_2   0.816757 0.504567 0.783533 -0.231107
O20   O     O_2   0.947137 0.362521 0.795252 -0.205067
O21   O     O_3   0.053320 0.543185 0.800199 -0.548759
O22   O     O_2   0.799720 0.686806 0.677445 -0.498373
O23   O     O_R   0.325590 0.506510 0.597900 -0.472576
O24   O     O_R   0.994852 0.726254 0.752605 -0.639026
O25   O     O_R   0.309790 0.493450 0.402100 -0.510267
O26   O     O_R   0.509160 0.658590 0.613800 -0.525582
O27   O     O_R   0.493360 0.645540 0.418000 -0.508928
O28   O     O_R   0.690210 0.506550 0.597900 -0.408364
O29   O     O_R   0.674410 0.493490 0.402100 -0.474666
O30   O     O_2   0.917098 0.534672 0.202948 -0.411192
S1    S     S_3+6 0.926546 0.725398 0.464844 0.038257
S2    S     S_3+6 0.527195 0.149456 0.219805 0.077724
S3    S     S_3+6 0.844359 0.296164 0.555481 0.056863
S4    S     S_3+6 0.932665 0.460159 0.743698 0.062743

loop_
_geom_bond_atom_site_label_1
_geom_bond_atom_site_label_2
_ccdc_geom_bond_type
Cu1   O26   S    
C2    C35   A    
C25   O30   D    
C8    C13   A    
C26   O9    D    
Cu2   O25   S    
C10   N2    A    
C21   H12   S    
C16   C31   S    
C16   O27   A    
C12   C23   S    
Cu2   O27   S    
H16   O21   S    
C18   O28   A    
C23   C29   S    
Cu1   Cu2   S    
C2    C3    A    
H17   O24   S    
C4    C24   S    
O8    S2    S    
C3    C33   A    
C14   N1    A    
C26   O10   S    
C35   H22   S    
C20   S4    S    
C2    C7    A    
C8    C9    A    
O4    S1    D    
C8    H2    S    
O17   S3    D    
C27   O11   D    
C28   O15   S    
C7    H21   S    
C29   O22   D    
O3    S1    D    
C6    C31   A    
Cu2   O12   S    
C16   O26   A    
C13   C14   A    
C30   H7    S    
Cu1   N1    S    
Cu2   N2    S    
C1    O12   A    
C32   C35   A    
C25   O2    S    
C34   S2    S    
O18   S3    S    
Cu1   O23   S    
C1    C32   S    
O5    S1    S    
C17   H3    S    
C32   C34   A    
H9    O5    S    
C19   H1    S    
H13   O13   S    
C22   H6    S    
C12   C20   S    
C33   C34   A    
C15   H24   S    
C14   C26   S    
C28   O14   D    
H10   O8    S    
C21   H4    S    
Cu1   O28   S    
C21   C23   S    
H8    O2    S    
O19   S4    D    
C22   C24   S    
O21   S4    S    
C27   O13   S    
C1    O1    A    
C3    C5    A    
C9    C27   S    
C10   C28   S    
C25   C30   S    
C15   C17   A    
C11   C17   A    
C33   H20   S    
C22   C30   S    
Cu2   O29   S    
C12   C30   S    
C9    N2    A    
H11   O10   S    
C5    H18   S    
C6    H19   S    
O6    S2    D    
C6    C7    A    
C4    O25   A    
C19   H23   S    
C23   S1    S    
C18   O29   A    
C19   C20   S    
C19   C24   S    
H14   O15   S    
O16   S3    D    
C11   C13   A    
C22   H5    S    
C15   N1    A    
O7    S2    D    
C20   S3    S    
H15   O18   S    
C29   O24   S    
C10   C11   A    
C4    O23   A    
O20   S4    D    
C21   C24   S    
C12   C18   S    
Cu1   O1    S    
C5    C31   A    
