data_mof_unit_59742.cif
_audit_creation_date              2012-12-11T15:49:34-0500
_audit_creation_method            fapswitch 2.2
_symmetry_space_group_name_H-M    P1
_symmetry_Int_Tables_number       1
_space_group_crystal_system       triclinic
_cell_length_a                    8.457452
_cell_length_b                    19.050824
_cell_length_c                    26.767365
_cell_angle_alpha                 95.919234
_cell_angle_beta                  93.267986
_cell_angle_gamma                 84.113273
_cell_volume                      4262.47876287

loop_
_atom_site_label
_atom_site_type_symbol
_atom_type_description
_atom_site_fract_x
_atom_site_fract_y
_atom_site_fract_z
_atom_type_partial_charge
Ba1   Ba    Ba6+2 0.854000 0.466860 0.523710 1.600601
Ba2   Ba    Ba6+2 0.335820 0.533080 0.476290 1.623803
C1    C     C_3   0.725665 0.214044 0.660881 -0.238230
C2    C     C_R   0.814513 0.502879 0.163598 0.573583
C3    C     C_2   0.777550 0.559511 0.271647 -0.082347
C4    C     C_3   0.160517 0.313760 0.665418 0.335805
C5    C     C_3   0.757045 0.581696 0.327076 -0.097283
C6    C     C_1   0.975795 0.488831 0.343669 0.035085
C7    C     C_2   0.983080 0.466588 0.295025 -0.103858
C8    C     C_2   0.889656 0.506760 0.255440 0.202736
C9    C     C_R   0.015346 0.484122 0.100094 -0.096419
C10   C     C_R   0.131608 0.467264 0.138084 -0.039814
C11   C     C_R   0.286874 0.440278 0.123305 0.076102
C12   C     C_3   0.711522 0.286610 0.639676 0.331652
C13   C     C_R   0.855672 0.500467 0.112943 -0.023001
C14   C     C_2   0.874301 0.542164 0.361507 -0.236362
C15   C     C_2   0.356934 0.486789 0.639189 -0.277074
C16   C     C_3   0.153209 0.292014 0.720290 -0.067020
C17   C     C_R   0.251012 0.456594 0.982675 0.010153
C18   C     C_R   0.988209 0.518099 0.963330 0.002134
C19   C     C_R   0.139438 0.487417 0.947401 0.028797
C20   C     C_R   0.397516 0.424260 0.964926 -0.098527
C21   C     C_R   0.436605 0.422161 0.914584 0.064631
C22   C     C_R   0.326105 0.453179 0.879122 -0.024418
C23   C     C_3   0.562971 0.650479 0.631655 0.317218
C24   C     C_R   0.180759 0.488847 0.896367 -0.113163
C25   C     C_R   0.076634 0.525624 0.862446 -0.047467
C26   C     C_R   0.130682 0.533326 0.813959 0.583877
C27   C     C_R   0.354981 0.449336 0.826873 0.571127
C28   C     C_3   0.203922 0.318173 0.418206 0.316965
C29   C     C_2   0.459003 0.491133 0.729500 -0.090658
C30   C     C_3   0.500615 0.492608 0.675013 -0.048019
C31   C     C_1   0.214256 0.509572 0.654911 0.066851
C32   C     C_2   0.176998 0.501694 0.701336 -0.139792
C33   C     C_2   0.304692 0.494485 0.742718 0.196238
C34   C     C_3   0.661193 0.659227 0.681934 -0.167432
C35   C     C_R   0.213656 0.459915 0.034646 -0.001593
C36   C     C_R   0.057489 0.483868 0.048962 0.050879
C37   C     C_R   0.941553 0.506863 0.012296 0.028690
C38   C     C_R   0.325464 0.438019 0.072709 -0.091184
C39   C     C_R   0.738876 0.512182 0.074501 -0.076484
C40   C     C_3   0.267663 0.241408 0.401551 -0.213758
C41   C     C_R   0.890704 0.560022 0.930116 0.053082
C42   C     C_R   0.926018 0.557118 0.878824 0.074147
C43   C     C_R   0.780823 0.513950 0.025118 -0.123107
C44   C     C_R   0.404465 0.301824 0.524524 -0.286325
C45   C     C_3   0.029067 0.711672 0.330871 0.368439
C46   C     C_R   0.546407 0.279497 0.500650 0.102499
C47   C     C_R   0.599209 0.206719 0.495063 -0.137653
C48   C     C_R   0.509292 0.156231 0.512254 -0.030217
C49   C     C_R   0.365226 0.180024 0.535332 -0.132175
C50   C     C_R   0.311503 0.252240 0.540508 0.025797
C51   C     C_R   0.544629 0.034208 0.541934 -0.084813
C52   C     C_3   0.969200 0.692118 0.599515 0.303433
C53   C     C_R   0.587877 0.961126 0.534086 -0.078170
C54   C     C_R   0.647435 0.930147 0.488005 0.061071
C55   C     C_R   0.665160 0.974722 0.450305 -0.083879
C56   C     C_3   0.984418 0.773599 0.297604 -0.024558
C57   C     C_R   0.622501 0.048049 0.458281 -0.076225
C58   C     C_R   0.560700 0.078662 0.504121 0.061931
C59   C     C_R   0.830215 0.824555 0.454395 -0.140724
C60   C     C_R   0.876529 0.751346 0.449089 -0.003208
C61   C     C_R   0.649530 0.731329 0.496045 0.048465
C62   C     C_R   0.602066 0.804256 0.500327 -0.130701
C63   C     C_R   0.691562 0.851876 0.479648 -0.009361
C64   C     C_3   0.916423 0.761662 0.631337 -0.345010
C65   C     C_R   0.782930 0.705031 0.468860 -0.271560
C66   C     C_3   0.654761 0.341535 0.360794 0.379332
C67   C     C_3   0.527977 0.728766 0.360055 0.396636
C68   C     C_3   0.537600 0.332101 0.314892 -0.315365
C69   C     C_3   0.137325 0.193276 0.384864 -0.431488
C70   C     C_3   0.061714 0.711574 0.557304 -0.290035
C71   C     C_3   0.814497 0.302156 0.347139 -0.327419
C72   C     C_3   0.668779 0.420503 0.373376 -0.232697
C73   C     C_3   0.800466 0.155034 0.624155 -0.474973
C74   C     C_3   0.388838 0.657977 0.641615 -0.286441
C75   C     C_3   0.621484 0.730421 0.713016 -0.416708
C76   C     C_3   0.112076 0.647729 0.299974 -0.227388
C77   C     C_3   0.871596 0.752728 0.252573 -0.462959
C78   C     C_3   0.452897 0.802722 0.349102 -0.174407
C79   C     C_3   0.910241 0.839673 0.328703 -0.386178
C80   C     C_3   0.444352 0.813450 0.293264 -0.410533
C81   C     C_3   0.410339 0.407383 0.159400 -0.286679
C82   C     C_3   0.602014 0.390142 0.901169 -0.335418
C83   C     C_3   0.770028 0.619470 0.950117 -0.413132
C84   C     C_3   0.332648 0.323727 0.657459 -0.351450
C85   C     C_3   0.797806 0.584675 0.841604 -0.333100
C86   C     C_3   0.009298 0.329095 0.747783 -0.395216
C87   C     C_3   0.166803 0.211359 0.722456 -0.328734
C88   C     C_R   0.088439 0.478573 0.189363 0.578816
H1    H     H_    0.827445 0.296373 0.626377 0.117906
H2    H     H_    0.797201 0.215530 0.696761 0.122206
H3    H     H_    0.305154 0.346851 0.434273 0.019185
H4    H     H_    0.256182 0.310362 0.744114 0.125226
H5    H     H_    0.918396 0.695665 0.344695 -0.045684
H6    H     H_    0.094732 0.788384 0.282398 0.108056
H7    H     H_    0.332123 0.812941 0.363613 0.152195
H8    H     H_    0.088220 0.365160 0.661987 0.080370
H9    H     H_    0.053505 0.417245 0.283577 0.098362
H10   H     H_    0.555698 0.490925 0.757898 0.105016
H11   H     H_    0.446276 0.419335 0.064397 0.063613
H12   H     H_    0.714874 0.593950 0.245730 0.116792
H13   H     H_    0.348849 0.240571 0.370309 0.142142
H14   H     H_    0.053835 0.502270 0.709871 0.148019
H15   H     H_    0.685218 0.519774 0.996942 0.085408
H16   H     H_    0.868757 0.557179 0.401535 0.080310
H17   H     H_    0.498590 0.823871 0.521478 0.075406
H18   H     H_    0.576448 0.928997 0.564525 0.057959
H19   H     H_    0.706826 0.189318 0.475389 0.086569
H20   H     H_    0.709300 0.952708 0.414237 0.058447
H21   H     H_    0.634382 0.080576 0.428091 0.058955
H22   H     H_    0.907585 0.860375 0.441892 0.066221
H23   H     H_    0.291556 0.142355 0.547512 0.074649
H24   H     H_    0.890910 0.752039 0.669855 0.132162
H25   H     H_    0.360581 0.357399 0.527459 0.069527
H26   H     H_    0.115774 0.318947 0.447528 0.044617
H27   H     H_    0.336686 0.218535 0.433118 0.068197
H28   H     H_    0.045663 0.197866 0.413456 0.131220
H29   H     H_    0.082563 0.206595 0.347995 0.143079
H30   H     H_    0.190271 0.137336 0.380176 0.122425
H31   H     H_    0.865426 0.664999 0.584081 0.051523
H32   H     H_    0.084816 0.664627 0.529894 0.150606
H33   H     H_    0.993702 0.755312 0.539042 0.044800
H34   H     H_    0.173877 0.732431 0.572655 0.129757
H35   H     H_    0.810147 0.789668 0.613219 0.096716
H36   H     H_    0.799857 0.246558 0.331920 0.089765
H37   H     H_    0.872008 0.328507 0.318816 0.072783
H38   H     H_    0.890210 0.300154 0.381932 0.139205
H39   H     H_    0.766732 0.429800 0.401710 0.055715
H40   H     H_    0.689778 0.443303 0.338340 0.015025
H41   H     H_    0.557965 0.447783 0.388282 0.173056
H42   H     H_    0.926027 0.162612 0.618568 0.183954
H43   H     H_    0.797134 0.103041 0.639178 0.129067
H44   H     H_    0.734137 0.154019 0.587372 0.146321
H45   H     H_    0.522861 0.275047 0.304584 0.091262
H46   H     H_    0.012547 0.797838 0.636013 0.089668
H47   H     H_    0.580440 0.353887 0.281687 0.081186
H48   H     H_    0.342686 0.714674 0.648788 0.123436
H49   H     H_    0.331279 0.634590 0.606936 0.116205
H50   H     H_    0.363693 0.630146 0.674217 0.059599
H51   H     H_    0.619579 0.775303 0.689578 0.149905
H52   H     H_    0.503596 0.731900 0.729552 0.126956
H53   H     H_    0.712213 0.737116 0.744347 0.125697
H54   H     H_    0.640771 0.616330 0.705260 0.061676
H55   H     H_    0.789277 0.651246 0.674702 0.136684
H56   H     H_    0.156180 0.606132 0.324822 0.154574
H57   H     H_    0.418673 0.359575 0.323419 0.149447
H58   H     H_    0.030130 0.625096 0.270738 0.043736
H59   H     H_    0.211840 0.663447 0.279940 0.141475
H60   H     H_    0.822481 0.800106 0.233760 0.134101
H61   H     H_    0.936706 0.716333 0.223935 0.120133
H62   H     H_    0.771960 0.725970 0.264816 0.125613
H63   H     H_    0.997527 0.858995 0.358162 0.122033
H64   H     H_    0.876398 0.883274 0.304474 0.111600
H65   H     H_    0.802740 0.827677 0.346733 0.107882
H66   H     H_    0.654605 0.724116 0.350615 -0.085163
H67   H     H_    0.519756 0.725202 0.400869 0.027339
H68   H     H_    0.624353 0.285248 0.607121 0.011317
H69   H     H_    0.524344 0.843171 0.369785 0.049865
H70   H     H_    0.385358 0.770504 0.270657 0.153725
H71   H     H_    0.374863 0.864868 0.287392 0.111275
H72   H     H_    0.565231 0.815062 0.279959 0.126720
H73   H     H_    0.360004 0.364788 0.176971 0.100456
H74   H     H_    0.518798 0.383042 0.140341 0.089463
H75   H     H_    0.448432 0.447757 0.189127 0.219433
H76   H     H_    0.677980 0.377017 0.934823 0.081329
H77   H     H_    0.595046 0.340154 0.876239 0.158531
H78   H     H_    0.663161 0.428542 0.882509 0.135867
H79   H     H_    0.607186 0.199816 0.669423 0.107376
H80   H     H_    0.484400 0.398203 0.989475 0.066072
H81   H     H_    0.613971 0.521091 0.082543 0.119234
H82   H     H_    0.646968 0.604204 0.943029 0.111748
H83   H     H_    0.792587 0.635363 0.990733 0.125167
H84   H     H_    0.779900 0.668078 0.931323 0.121083
H85   H     H_    0.400020 0.271081 0.654238 0.107159
H86   H     H_    0.345589 0.349663 0.623197 0.049404
H87   H     H_    0.380793 0.357922 0.689377 0.121928
H88   H     H_    0.820300 0.638148 0.832353 0.150696
H89   H     H_    0.793932 0.547466 0.806860 0.131806
H90   H     H_    0.598251 0.595900 0.614433 0.047215
H91   H     H_    0.676958 0.588049 0.856268 0.088255
H92   H     H_    0.373690 0.469070 0.599813 0.088383
H93   H     H_    0.500095 0.056172 0.577967 0.062955
H94   H     H_    0.010167 0.387528 0.749449 0.122350
H95   H     H_    0.897750 0.313972 0.728899 0.178793
H96   H     H_    0.013337 0.314688 0.787048 0.118348
H97   H     H_    0.823316 0.649238 0.467886 0.055801
H98   H     H_    0.065057 0.187461 0.702011 0.141707
H99   H     H_    0.278322 0.186627 0.705394 0.112246
H100  H     H_    0.170627 0.198692 0.762127 0.101303
N1    N     N_R   0.930634 0.494937 0.202023 -0.421424
N2    N     N_R   0.263234 0.492310 0.795317 -0.419329
O1    O     O_2   0.913240 0.537010 0.617740 -0.473715
O2    O     O_2   0.202842 0.750649 0.465810 -0.480418
O3    O     O_3   0.136358 0.733755 0.370217 -0.589971
O4    O     O_3   0.145240 0.536960 0.557560 -0.492125
O5    O     O_3   0.557280 0.416300 0.475860 -0.482805
O6    O     O_2   0.376710 0.670070 0.522470 -0.463214
O7    O     O_3   0.588859 0.702642 0.600084 -0.659402
O8    O     O_2   0.441337 0.536998 0.318565 -0.454556
O9    O     O_3   0.448103 0.674849 0.332495 -0.584308
O10   O     O_2   0.192588 0.476900 0.222739 -0.596358
O11   O     O_2   0.459223 0.406461 0.809218 -0.613379
O12   O     O_3   0.596126 0.308336 0.399481 -0.652901
O13   O     O_2   0.674409 0.512472 0.173334 -0.622988
O14   O     O_2   0.063553 0.578896 0.789226 -0.612073
O15   O     O_3   0.669960 0.410470 0.588880 -0.482437
O16   O     O_2   0.828754 0.446796 0.673160 -0.507951
O17   O     O_3   0.067878 0.649293 0.630159 -0.637325
O18   O     O_3   0.661273 0.340755 0.677006 -0.622116
O19   O     O_2   0.812980 0.329910 0.477500 -0.471915
O20   O     O_3   0.078660 0.374870 0.564770 -0.477439
O21   O     O_2   0.980650 0.248052 0.535865 -0.497978
O22   O     O_3   0.104115 0.261334 0.629008 -0.622600
O23   O     O_2   0.276450 0.462960 0.382230 -0.466335
O24   O     O_3   0.044470 0.462980 0.442430 -0.491678
O25   O     O_3   0.519740 0.589470 0.411120 -0.470573
O26   O     O_3   0.133721 0.349988 0.376500 -0.652072
O27   O     O_3   0.632420 0.583650 0.524140 -0.472312
O28   O     O_3   0.111040 0.625070 0.435230 -0.472795
P1    P     P_3+3 0.082480 0.557670 0.610090 0.979877
P2    P     P_3+3 0.635220 0.340300 0.462910 0.975203
P3    P     P_3+3 0.116805 0.283341 0.566763 0.924571
P4    P     P_3+3 0.107220 0.442270 0.389900 0.975536
P5    P     P_3+3 0.078315 0.716104 0.429179 0.944331
P6    P     P_3+3 0.664490 0.423912 0.654197 0.944399
P7    P     P_3+3 0.561050 0.673038 0.535597 0.933666
P8    P     P_3+3 0.543685 0.592865 0.346922 0.959336

loop_
_geom_bond_atom_site_label_1
_geom_bond_atom_site_label_2
_ccdc_geom_bond_type
O9    P8    S    
C53   C54   A    
Ba2   O24   S    
C33   N2    S    
C27   O11   D    
C78   H7    S    
Ba1   O19   S    
Ba2   O5    S    
C26   O14   D    
Ba1   O5    S    
C88   O10   D    
C81   H74   S    
O23   P4    D    
O24   P4    S    
C73   H44   S    
C79   H63   S    
C2    O13   D    
C28   H26   S    
O6    P7    D    
C67   O9    S    
C81   H75   S    
C24   C25   A    
C49   H23   S    
C69   H30   S    
C12   H68   S    
C19   C24   A    
C23   O7    S    
C4    H8    S    
O2    P5    D    
C45   O3    S    
C17   C19   A    
C22   C24   A    
C32   C33   S    
C35   C38   A    
C34   C75   S    
C51   H93   S    
C36   C37   A    
C86   H94   S    
C66   O12   S    
C5    P8    S    
C66   C72   S    
C71   H36   S    
C44   C50   A    
O17   P1    S    
C54   C55   A    
Ba1   P1    S    
C84   H85   S    
O8    P8    D    
C56   H6    S    
C75   H52   S    
C11   C38   A    
C17   C35   A    
O16   P6    D    
C38   H11   S    
C22   C27   A    
C9    C13   A    
C15   H92   S    
C52   O17   S    
C29   C30   S    
C65   H97   S    
C6    C7    D    
Ba2   O25   S    
C83   H83   S    
C21   C22   A    
C42   C85   S    
C1    C73   S    
C7    C8    S    
C84   H86   S    
O4    P1    S    
C6    P4    S    
C14   H16   S    
C28   O26   S    
C70   H32   S    
C6    C14   D    
O1    P1    D    
Ba2   O23   S    
C7    H9    S    
C72   H41   S    
C70   H34   S    
Ba1   O20   S    
Ba2   O28   S    
O18   P6    S    
C2    N1    Am   
C15   C31   D    
C26   N2    Am   
C51   C58   A    
C43   H15   S    
C48   C49   A    
C44   C46   A    
C88   N1    Am   
C51   C53   A    
C4    C16   S    
C61   C65   A    
C23   H90   S    
C83   H82   S    
C21   C82   S    
O3    P5    S    
C49   C50   A    
C67   H66   S    
C17   C20   A    
C82   H76   S    
C13   C39   A    
C78   C80   S    
O5    P2    S    
C56   C79   S    
C3    C5    S    
C18   C37   A    
C12   O18   S    
C1    H79   S    
C78   H69   S    
C61   P7    S    
C80   H72   S    
C66   C71   S    
C71   H37   S    
O19   P2    D    
Ba1   P2    S    
C84   H87   S    
C32   H14   S    
C79   H64   S    
C1    H2    S    
C41   C83   S    
C9    C36   A    
Ba1   O1    S    
C41   C42   A    
C75   H53   S    
C35   C36   A    
C82   H78   S    
C80   H70   S    
O15   P6    S    
C57   H21   S    
C55   H20   S    
C4    O22   S    
C87   H100  S    
Ba1   O4    S    
Ba1   O24   S    
Ba2   P4    S    
C83   H84   S    
C27   N2    Am   
Ba1   O27   S    
C29   H10   S    
C18   C19   A    
C20   H80   S    
C1    C12   S    
C67   H67   S    
C50   P3    S    
C77   H60   S    
C64   H46   S    
C44   H25   S    
C86   H95   S    
C52   H31   S    
C30   P6    S    
C74   H48   S    
C69   H29   S    
C72   H40   S    
C70   H33   S    
C68   H45   S    
C16   H4    S    
C87   H98   S    
C29   C33   D    
C74   H50   S    
C71   H38   S    
C18   C41   A    
C73   H42   S    
C62   H17   S    
C77   H61   S    
C74   H49   S    
C10   C88   A    
C81   H73   S    
C3    H12   S    
C46   C47   A    
C39   C43   A    
C64   H24   S    
C69   H28   S    
O12   P2    S    
C23   C34   S    
Ba2   O6    S    
C16   C87   S    
C60   C65   A    
C5    C14   S    
C56   C77   S    
C4    C84   S    
C85   H91   S    
C9    C10   A    
C73   H43   S    
C40   H27   S    
O26   P4    S    
C52   C64   S    
C80   H71   S    
C76   H58   S    
C28   H3    S    
C60   P5    S    
C11   C81   S    
C8    N1    S    
C79   H65   S    
C64   H35   S    
C37   C43   A    
C53   H18   S    
C23   C74   S    
C48   C58   S    
C62   C63   A    
C2    C13   A    
C39   H81   S    
C34   H54   S    
C47   H19   S    
C3    C8    D    
C82   H77   S    
C85   H88   S    
O21   P3    D    
Ba2   O27   S    
C46   P2    S    
Ba1   Ba2   S    
C86   H96   S    
C40   C69   S    
C31   C32   D    
O28   P5    S    
Ba2   O4    S    
C40   H13   S    
C87   H99   S    
C59   C60   A    
Ba1   O15   S    
C16   C86   S    
C12   H1    S    
C55   C57   A    
O22   P3    S    
C76   H56   S    
O25   P8    S    
C85   H89   S    
C61   C62   A    
C59   C63   A    
C34   H55   S    
C57   C58   A    
C52   C70   S    
C10   C11   A    
C68   H47   S    
C66   C68   S    
C47   C48   A    
C72   H39   S    
C25   C26   A    
C15   C30   S    
C45   H5    S    
C20   C21   A    
C28   C40   S    
C67   C78   S    
C68   H57   S    
C45   C76   S    
O27   P7    S    
C25   C42   A    
C59   H22   S    
O7    P7    S    
C75   H51   S    
C54   C63   S    
C76   H59   S    
C77   H62   S    
C45   C56   S    
O20   P3    S    
C31   P1    S    
