data_mof_unit_31000.cif
_audit_creation_date              2013-03-05T16:32:08-0500
_audit_creation_method            fapswitch 2.2
_symmetry_space_group_name_H-M    P1
_symmetry_Int_Tables_number       1
_space_group_crystal_system       triclinic
_cell_length_a                    10.835829
_cell_length_b                    10.927967
_cell_length_c                    9.660098
_cell_angle_alpha                 90.000429
_cell_angle_beta                  92.609408
_cell_angle_gamma                 93.536101
_cell_volume                      1140.52062131

loop_
_atom_site_label
_atom_site_type_symbol
_atom_site_description
_atom_site_fract_x
_atom_site_fract_y
_atom_site_fract_z
_atom_type_partial_charge
O1    O     O_R   0.500000 0.319640 0.618810 -0.543604
O2    O     O_R   0.500010 0.319680 0.381230 -0.567152
C1    C     C_R   0.493182 0.262935 0.499740 0.891116
O3    O     O_R   0.317690 0.499960 0.618790 -0.590306
O4    O     O_R   0.317700 0.500000 0.381210 -0.547156
C2    C     C_R   0.260055 0.489032 0.498061 0.897116
Cu1   Cu    Cu3+1 0.499990 0.499980 0.640670 1.080483
Cu2   Cu    Cu3+1 0.500010 0.500020 0.359330 1.078155
O5    O     O_R   0.499990 0.680320 0.618770 -0.565043
O6    O     O_R   0.500000 0.680360 0.381190 -0.561872
O7    O     O_R   0.682300 0.500000 0.618790 -0.542945
O8    O     O_R   0.682310 0.500040 0.381210 -0.608770
C3    C     C_R   0.494823 0.737524 0.498699 0.868870
C4    C     C_R   0.739020 0.492121 0.502179 0.848377
C5    C     C_3   0.068035 0.389686 0.614119 0.072911
C6    C     C_3   0.924301 0.370196 0.588560 0.098980
C7    C     C_3   0.080805 0.609779 0.540710 0.075041
C8    C     C_3   0.057890 0.441797 0.352666 0.169889
C9    C     C_3   0.121056 0.479492 0.498118 -0.277700
C10   C     C_3   0.876537 0.483156 0.504537 -0.176999
C11   C     C_3   0.939505 0.605503 0.559469 -0.390783
C12   C     C_3   0.918697 0.466639 0.353666 -0.433136
C13   C     C_R   0.446704 0.061307 0.614329 0.049026
C14   C     C_R   0.473402 0.130171 0.496919 -0.131403
C15   C     C_R   0.474357 0.066869 0.370631 -0.132468
C16   C     C_R   0.470598 0.938017 0.366544 0.339772
C17   C     C_R   0.477055 0.870459 0.492776 -0.141892
C18   C     C_R   0.461162 0.937409 0.612665 -0.037487
C19   C     C_3   0.500170 0.932541 0.762062 0.428291
C20   C     C_3   0.482611 0.071154 0.766091 0.040926
C21   C     C_R   0.605120 0.530220 0.079692 0.138078
N1    N     N_R   0.500800 0.500930 0.147930 -0.242793
C22   C     C_R   0.399390 0.456971 0.066265 0.429724
C23   C     C_R   0.398621 0.461753 0.919181 0.020857
N2    N     N_R   0.500800 0.500890 0.852020 -0.244072
C24   C     C_R   0.608477 0.523138 0.933062 0.201642
C25   C     C_3   0.690669 0.639429 0.936627 0.146885
C26   C     C_3   0.677568 0.648855 0.091535 -0.391169
H1    H     H_    0.764859 0.643171 0.154655 0.219431
H2    H     H_    0.087068 0.437217 0.715492 0.167997
H3    H     H_    0.902106 0.550114 0.292249 0.231869
N3    N     N_R   0.120451 0.707830 0.445023 0.161278
O9    O     O_R   0.198011 0.795968 0.490092 -0.281041
O10   O     O_R   0.068610 0.717006 0.321650 -0.293577
H4    H     H_    0.897654 0.685070 0.507666 0.233930
H5    H     H_    0.480234 0.117060 0.274278 0.239807
N4    N     N_R   0.462559 0.880634 0.233444 0.138465
O11   O     O_R   0.368240 0.804903 0.201049 -0.221755
O12   O     O_R   0.525636 0.930931 0.134789 -0.291755
N5    N     N_R   0.413094 0.852384 0.839474 0.180973
O13   O     O_R   0.297549 0.836595 0.796398 -0.241558
O14   O     O_R   0.453922 0.776514 0.931304 -0.331134
N6    N     N_R   0.631230 0.909973 0.789047 0.082752
O15   O     O_R   0.684603 0.940972 0.908396 -0.237790
O16   O     O_R   0.699816 0.877815 0.689590 -0.351645
N7    N     N_R   0.382959 0.105055 0.853061 0.195784
O17   O     O_R   0.411374 0.163105 0.968579 -0.289518
O18   O     O_R   0.267485 0.072795 0.821651 -0.145520
H6    H     H_    0.569415 0.129311 0.786690 0.186283
N8    N     N_R   0.297307 0.392293 0.125054 0.137049
O19   O     O_R   0.318677 0.290497 0.188127 -0.241324
O20   O     O_R   0.187438 0.404899 0.068827 -0.301570
N9    N     N_R   0.126768 0.272016 0.627871 0.194040
O21   O     O_R   0.243758 0.270999 0.662595 -0.327732
O22   O     O_R   0.061092 0.168021 0.625512 -0.196604
H7    H     H_    0.316843 0.428529 0.859500 0.204175
N10   N     N_R   0.819659 0.624725 0.906675 0.123671
O23   O     O_R   0.875053 0.531052 0.956633 -0.290407
O24   O     O_R   0.887295 0.723188 0.877930 -0.244903
H8    H     H_    0.649936 0.709959 0.873130 0.203400
H9    H     H_    0.620928 0.724242 0.122218 0.254909
H10   H     H_    0.904772 0.288903 0.519627 0.176826
N11   N     N_R   0.860812 0.340147 0.716951 0.166131
O25   O     O_R   0.924633 0.327834 0.833087 -0.199206
O26   O     O_R   0.750971 0.284949 0.706537 -0.350216
H11   H     H_    0.125840 0.633566 0.644263 0.181108
H12   H     H_    0.922638 0.612010 0.670699 0.239468
H13   H     H_    0.099368 0.500415 0.271279 0.220617
N12   N     N_R   0.071252 0.312760 0.313252 0.168321
O27   O     O_R   0.009338 0.266864 0.204682 -0.203631
O28   O     O_R   0.158251 0.249683 0.368736 -0.247003
H14   H     H_    0.860639 0.391313 0.301255 0.230216

loop_
_geom_bond_atom_site_label_1
_geom_bond_atom_site_label_2
_geom_bond_distance
_ccdc_geom_bond_type
N9    O22   1.302785 A    
N11   O25   1.302246 A    
N2    C24   1.383901 A    
C6    H10   1.114162 S    
C23   H7    1.078529 S    
Cu1   Cu2   2.717781 S    
N4    O12   1.300189 A    
N6    O15   1.301382 A    
Cu1   O7    1.996288 S    
C2    C9    1.503371 S    
C16   C17   1.426723 A    
C19   C20   1.538968 S    
C12   H14   1.112114 S    
C18   C19   1.487116 S    
C23   N2    1.355255 A    
O4    C2    1.316689 A    
O7    C4    1.312888 A    
C12   H3    1.107688 S    
C5    C6    1.567194 S    
N7    O17   1.298887 A    
N8    O20   1.301036 A    
C8    C9    1.577992 S    
O5    C3    1.318211 A    
C7    N3    1.471891 S    
C21   N1    1.355724 A    
C8    N12   1.478019 S    
C7    H11   1.116363 S    
N5    O14   1.295991 A    
C13   C14   1.392636 A    
Cu2   O8    1.977041 S    
O1    Cu1   1.982036 S    
C25   H8    1.087398 S    
N11   O26   1.300426 A    
C1    C14   1.453519 S    
N3    O10   1.300762 A    
O3    Cu1   1.977043 S    
N5    O13   1.302461 A    
C11   H4    1.113597 S    
C19   N5    1.476173 S    
N6    O16   1.302347 A    
N10   O23   1.300193 A    
Cu2   N1    2.042575 S    
C13   C20   1.501697 S    
C4    C10   1.498480 S    
C14   C15   1.403195 A    
O3    C2    1.299580 A    
N12   O28   1.298169 A    
C15   C16   1.406667 A    
C20   N7    1.463223 S    
C7    C11   1.547806 S    
N9    O21   1.297184 A    
N8    O19   1.296642 A    
O1    C1    1.303491 A    
C5    C9    1.593115 S    
C25   C26   1.513664 S    
N4    O11   1.301494 A    
C6    C10   1.578314 S    
C20   H6    1.112404 S    
C6    N11   1.472823 S    
C22   C23   1.421467 A    
C13   C18   1.372739 A    
C16   N4    1.427250 S    
C8    H13   1.107763 S    
O8    C4    1.300705 A    
C22   N8    1.416481 S    
N3    O9    1.300148 A    
Cu1   O5    1.982075 S    
C26   H9    1.105508 S    
C24   C25   1.505647 S    
C8    C12   1.549354 S    
Cu1   N2    2.041303 S    
O2    Cu2   1.982073 S    
C10   C12   1.560834 S    
O6    C3    1.300789 A    
O4    Cu2   1.996287 S    
C21   C26   1.475268 S    
N1    C22   1.384400 A    
O2    C1    1.304864 A    
C26   H1    1.106825 S    
C19   N6    1.468019 S    
C25   N10   1.458649 S    
C7    C9    1.574670 S    
N7    O18   1.301159 A    
C5    H2    1.113418 S    
N12   O27   1.302319 A    
C10   C11   1.545714 S    
Cu2   O6    1.982036 S    
C11   H12   1.101125 S    
C17   C18   1.392803 A    
C5    N9    1.472911 S    
C21   C24   1.420809 A    
C3    C17   1.477911 S    
N10   O24   1.301264 A    
C15   H5    1.082753 S    
