data_mof_unit_7513.cif
_audit_creation_date              2012-12-10T18:11:08-0500
_audit_creation_method            fapswitch 2.2
_symmetry_space_group_name_H-M    P1
_symmetry_Int_Tables_number       1
_space_group_crystal_system       triclinic
_cell_length_a                    10.735517
_cell_length_b                    9.499684
_cell_length_c                    10.616645
_cell_angle_alpha                 89.968882
_cell_angle_beta                  87.486033
_cell_angle_gamma                 89.673642
_cell_volume                      1081.66847002

loop_
_atom_site_label
_atom_site_type_symbol
_atom_type_description
_atom_site_fract_x
_atom_site_fract_y
_atom_site_fract_z
_atom_type_partial_charge
C1    C     C_R   0.260006 0.500438 0.507035 0.819794
C2    C     C_3   0.936542 0.479746 0.371955 -0.362212
C3    C     C_3   0.589170 0.082694 0.592330 -0.194387
C4    C     C_3   0.589854 0.916092 0.591657 -0.197708
C5    C     C_3   0.375903 0.084019 0.539790 -0.253542
C6    C     C_3   0.376220 0.917627 0.540692 -0.250419
C7    C     C_3   0.535793 0.083499 0.375169 0.148320
C8    C     C_3   0.535427 0.915909 0.374977 0.148764
C9    C     C_R   0.500249 0.500174 0.259538 0.831015
C10   C     C_R   0.739755 0.499837 0.502702 0.809289
C11   C     C_R   0.499750 0.499846 0.740542 0.819299
C12   C     C_3   0.500904 0.500819 0.122504 0.000621
C13   C     C_3   0.491374 0.633570 0.041148 -0.133550
C14   C     C_3   0.403307 0.425292 0.046698 -0.154060
C15   C     C_3   0.393792 0.557885 0.963170 -0.141788
C16   C     C_3   0.500231 0.499312 0.877534 -0.001101
C17   C     C_3   0.597914 0.574886 0.953277 -0.167635
C18   C     C_3   0.509884 0.366547 0.958886 -0.118752
C19   C     C_3   0.607549 0.442327 0.036930 -0.138669
C20   C     C_3   0.066219 0.644554 0.561652 0.033440
C21   C     C_3   0.066743 0.372924 0.587400 0.039426
C22   C     C_3   0.923179 0.642277 0.560022 -0.384246
C23   C     C_3   0.923216 0.381011 0.594012 -0.394041
C24   C     C_3   0.080073 0.485138 0.373730 -0.495882
C25   C     C_3   0.121901 0.501245 0.511192 0.058374
C26   C     C_3   0.877762 0.500254 0.506746 0.066849
Cu1   Cu    Cu3+1 0.499860 0.642410 0.500060 0.940362
Cu2   Cu    Cu3+1 0.499860 0.357590 0.500060 0.939475
H1    H     H_    0.306066 0.605120 0.931345 0.190066
H2    H     H_    0.464654 0.117907 0.308275 0.101650
H3    H     H_    0.463362 0.883267 0.308804 0.093207
H4    H     H_    0.305340 0.120899 0.473450 0.153165
H5    H     H_    0.304776 0.880192 0.476056 0.157008
H6    H     H_    0.483480 0.743138 0.077018 0.158114
H7    H     H_    0.323603 0.364248 0.087954 0.148790
H8    H     H_    0.677508 0.636027 0.911907 0.149972
H9    H     H_    0.517435 0.257032 0.922788 0.146386
H10   H     H_    0.695844 0.396320 0.069158 0.170445
H11   H     H_    0.099255 0.729824 0.496566 0.137610
H12   H     H_    0.902565 0.562755 0.307773 0.201127
H13   H     H_    0.093642 0.275111 0.534879 0.141045
H14   H     H_    0.880802 0.658528 0.656453 0.186072
H15   H     H_    0.887860 0.401146 0.692442 0.190725
H16   H     H_    0.891975 0.731620 0.501131 0.190995
H17   H     H_    0.885804 0.277397 0.565330 0.177856
H18   H     H_    0.114896 0.574840 0.314762 0.183187
H19   H     H_    0.120327 0.387442 0.330121 0.180580
H20   H     H_    0.908763 0.376582 0.333671 0.208790
H21   H     H_    0.564912 0.120115 0.689580 0.149867
H22   H     H_    0.567222 0.877640 0.688850 0.155567
H23   H     H_    0.685020 0.120935 0.569553 0.175332
H24   H     H_    0.685831 0.878005 0.567270 0.175421
H25   H     H_    0.345024 0.123863 0.634622 0.198279
H26   H     H_    0.347451 0.879837 0.636543 0.201146
I1    I     I_    0.706501 0.174081 0.288797 -0.401169
I2    I     I_    0.705311 0.821374 0.285869 -0.389517
I3    I     I_    0.123791 0.716228 0.742700 -0.435921
I4    I     I_    0.138767 0.333030 0.770962 -0.413862
N1    N     N_3   0.500250 0.143650 0.502780 -0.152239
N2    N     N_3   0.500250 0.856350 0.502780 -0.152782
O1    O     O_R   0.317570 0.620260 0.500070 -0.589289
O2    O     O_R   0.317570 0.379740 0.500070 -0.593546
O3    O     O_R   0.499850 0.620240 0.316900 -0.574002
O4    O     O_R   0.499850 0.379760 0.316900 -0.572172
O5    O     O_R   0.682190 0.620260 0.500030 -0.572756
O6    O     O_R   0.682190 0.379740 0.500030 -0.570256
O7    O     O_R   0.499910 0.620280 0.683200 -0.585410
O8    O     O_R   0.499910 0.379720 0.683200 -0.586515

loop_
_geom_bond_atom_site_label_1
_geom_bond_atom_site_label_2
_ccdc_geom_bond_type
C20   C22   S    
Cu2   O6    S    
C24   C25   S    
C2    H12   S    
C23   H17   S    
C19   H10   S    
C7    I1    S    
C9    O4    A    
C3    N1    S    
C11   C16   S    
C14   C18   S    
C4    H22   S    
C6    H5    S    
C13   C17   S    
C5    H4    S    
C24   H18   S    
C1    O2    A    
C10   C26   S    
C10   O6    A    
C3    H21   S    
C23   H15   S    
C13   H6    S    
C2    C26   S    
C7    H2    S    
C17   H8    S    
C12   C13   S    
C1    C25   S    
C8    I2    S    
C24   H19   S    
C4    N2    S    
C22   H14   S    
Cu1   O3    S    
C4    H24   S    
Cu1   O5    S    
Cu2   O4    S    
C12   C19   S    
C7    N1    S    
C17   C19   S    
C18   H9    S    
C12   C14   S    
C22   H16   S    
C15   H1    S    
Cu1   N2    S    
C13   C15   S    
C21   C23   S    
C2    C24   S    
C5    C6    S    
C9    C12   S    
C21   H13   S    
C10   O5    A    
C7    C8    S    
C20   C25   S    
C5    N1    S    
C1    O1    A    
C3    C4    S    
C6    N2    S    
C21   I4    S    
Cu1   O7    S    
C11   O8    A    
C16   C18   S    
C18   C19   S    
C22   C26   S    
Cu2   N1    S    
C5    H25   S    
C14   H7    S    
C23   C26   S    
C20   H11   S    
C3    H23   S    
C14   C15   S    
C21   C25   S    
Cu1   O1    S    
C2    H20   S    
C20   I3    S    
C9    O3    A    
C8    H3    S    
C6    H26   S    
C8    N2    S    
C15   C16   S    
Cu2   O8    S    
C11   O7    A    
C16   C17   S    
Cu1   Cu2   S    
Cu2   O2    S    
