data_mof_unit_14810.cif
_audit_creation_date              2012-12-11T17:11:37-0500
_audit_creation_method            fapswitch 2.2
_symmetry_space_group_name_H-M    P1
_symmetry_Int_Tables_number       1
_space_group_crystal_system       triclinic
_cell_length_a                    8.53357
_cell_length_b                    16.805829
_cell_length_c                    16.320658
_cell_angle_alpha                 108.110773
_cell_angle_beta                  94.132567
_cell_angle_gamma                 82.634614
_cell_volume                      2205.00149941

loop_
_atom_site_label
_atom_site_type_symbol
_atom_type_description
_atom_site_fract_x
_atom_site_fract_y
_atom_site_fract_z
_atom_type_partial_charge
Ba1   Ba    Ba6+2 0.642070 0.542310 0.469620 1.753528
Ba2   Ba    Ba6+2 0.168110 0.457680 0.530320 1.753774
C1    C     C_3   0.712393 0.891787 0.272825 -0.266176
C2    C     C_R   0.120355 0.748042 0.498902 -0.210676
C3    C     C_2   0.534184 0.144238 0.417832 -0.090718
C4    C     C_3   0.373924 0.769586 0.354213 0.447036
C5    C     C_2   0.567000 0.223837 0.433389 0.034030
C6    C     C_2   0.836867 0.191323 0.495481 0.034548
C7    C     C_3   0.816053 0.097095 0.459812 -0.062448
C8    C     C_3   0.639982 0.082504 0.453304 0.001286
C9    C     C_2   0.926593 0.036314 0.497126 -0.002465
C10   C     C_2   0.887991 0.961244 0.500752 0.039942
C11   C     C_R   0.137271 0.918765 0.574703 0.214218
C12   C     C_3   0.775328 0.798920 0.265763 0.913785
C13   C     C_R   0.006841 0.894522 0.519703 -0.043901
C14   C     C_R   0.252764 0.860089 0.595014 -0.122715
C15   C     C_R   0.245710 0.773860 0.559493 0.031355
C16   C     C_3   0.378603 0.862104 0.361713 -0.290718
C17   C     C_R   0.994691 0.806812 0.482795 0.111745
C18   C     C_R   0.119638 0.525671 0.274199 -0.252086
C19   C     C_R   0.981952 0.487203 0.240162 0.017682
C20   C     C_R   0.927217 0.485331 0.156423 -0.027079
C21   C     C_R   0.007359 0.523189 0.107685 0.290748
C22   C     C_R   0.147124 0.558218 0.141870 -0.067622
C23   C     C_3   0.842412 0.724655 0.730815 0.201750
C24   C     C_R   0.205031 0.558978 0.224207 0.032174
C25   C     C_R   0.867567 0.524996 0.860749 -0.204123
C26   C     C_R   0.824428 0.512108 0.774413 -0.027678
C27   C     C_R   0.766967 0.508520 0.916645 0.269593
C28   C     C_3   0.332698 0.347281 0.261221 0.262798
C29   C     C_R   0.683117 0.478880 0.741220 -0.288216
C30   C     C_R   0.579009 0.460966 0.794209 0.012345
C31   C     C_R   0.617469 0.481089 0.884846 0.362125
C32   C     C_3   0.308717 0.322849 0.163319 -0.214717
C33   C     C_3   0.436213 0.653568 0.743279 0.336002
C34   C     C_3   0.804512 0.813990 0.792145 -0.247598
C35   C     C_3   0.441023 0.679896 0.841396 -0.309175
C36   C     C_3   0.852889 0.285319 0.314954 0.289166
C37   C     C_3   0.858660 0.191087 0.270067 -0.359335
C38   C     C_2   0.202433 0.254127 0.130556 0.958471
C39   C     C_2   0.771404 0.926360 0.207110 0.956958
C40   C     C_2   0.961459 0.723340 0.668648 0.775054
C41   C     C_2   0.762848 0.873580 0.740570 0.939750
C42   C     C_2   0.979680 0.287422 0.886645 1.063389
C43   C     C_3   0.422101 0.229673 0.729186 0.263248
C44   C     C_3   0.427328 0.162102 0.781421 0.797891
C45   C     C_3   0.976707 0.294440 0.724299 0.685064
C46   C     C_3   0.053258 0.310469 0.816316 -0.218765
C47   C     C_2   0.720888 0.247997 0.477494 -0.200247
H1    H     H_    0.255596 0.378978 0.145100 -0.041811
H2    H     H_    0.582286 0.899153 0.265788 0.069156
H3    H     H_    0.781851 0.179041 0.210556 0.160307
H4    H     H_    0.816712 0.159068 0.312770 0.083141
H5    H     H_    0.981965 0.164188 0.252591 0.154572
H6    H     H_    0.732197 0.702609 0.697145 0.057068
H7    H     H_    0.908369 0.832937 0.836059 0.150931
H8    H     H_    0.703505 0.816287 0.832405 0.107584
H9    H     H_    0.743731 0.932285 0.337736 0.026083
H10   H     H_    0.300144 0.902787 0.413306 0.081921
H11   H     H_    0.324857 0.223406 0.681695 0.047467
H12   H     H_    0.424858 0.301673 0.132235 0.131859
H13   H     H_    0.518586 0.214081 0.685695 0.087854
H14   H     H_    0.971348 0.355741 0.712403 -0.036547
H15   H     H_    0.075610 0.377374 0.842978 0.062563
H16   H     H_    0.467380 0.752651 0.397965 0.065957
H17   H     H_    0.167327 0.274286 0.806501 0.118377
H18   H     H_    0.423753 0.125000 0.385018 0.102066
H19   H     H_    0.346544 0.882018 0.640440 0.174769
H20   H     H_    0.737150 0.314316 0.497052 0.078111
H21   H     H_    0.117436 0.681732 0.465693 0.065596
H22   H     H_    0.048505 0.049361 0.510645 0.127815
H23   H     H_    0.552619 0.621104 0.719247 -0.090105
H24   H     H_    0.768801 0.945445 0.482497 0.062907
H25   H     H_    0.976751 0.551889 0.885045 0.164639
H26   H     H_    0.208795 0.587155 0.104938 0.152987
H27   H     H_    0.823228 0.454338 0.129515 0.143612
H28   H     H_    0.261081 0.764670 0.378571 0.046627
H29   H     H_    0.163021 0.527583 0.338654 0.053886
H30   H     H_    0.651937 0.468773 0.673540 0.096668
H31   H     H_    0.496375 0.882297 0.384119 0.082338
H32   H     H_    0.341756 0.874260 0.299727 0.184899
H33   H     H_    0.215806 0.365133 0.291401 -0.012979
H34   H     H_    0.344689 0.610149 0.719046 0.071661
H35   H     H_    0.402972 0.401932 0.282324 0.032696
H36   H     H_    0.490698 0.728476 0.084680 0.385955
H37   H     H_    0.993220 0.220111 0.074116 0.350699
H38   H     H_    0.065222 0.910921 0.308086 0.367430
H39   H     H_    0.904134 0.007233 0.183699 0.328225
H40   H     H_    0.040146 0.635663 0.563336 0.295737
H41   H     H_    0.617430 0.900769 0.647995 0.349758
H42   H     H_    0.381502 0.018000 0.607542 0.334974
H43   H     H_    0.850072 0.097060 0.821881 0.422682
H44   H     H_    0.274435 0.309890 0.989968 0.339810
H45   H     H_    0.544663 0.714825 0.867649 0.129967
H46   H     H_    0.733686 0.148765 0.622473 0.334674
H47   H     H_    0.837701 0.324064 0.987988 0.364162
H48   H     H_    0.246449 0.460982 0.977759 0.348311
H49   H     H_    0.449308 0.623956 0.864113 0.057463
H50   H     H_    0.331141 0.720821 0.866400 0.170226
H51   H     H_    0.729491 0.310849 0.332795 0.008984
H52   H     H_    0.932198 0.296100 0.373548 0.037231
N1    N     N_2   0.957363 0.523245 0.022477 -0.205885
N2    N     N_2   0.814200 0.515804 0.004554 -0.078026
O1    O     O_2   0.554430 0.712240 0.583340 -0.441829
O2    O     O_2   0.262089 0.453672 0.773478 -0.449834
O3    O     O_3   0.409263 0.314369 0.783562 -0.514886
O4    O     O_3   0.337760 0.603960 0.562660 -0.533869
O5    O     O_3   0.954190 0.455690 0.394480 -0.500190
O6    O     O_2   0.106750 0.542200 0.705290 -0.459557
O7    O     O_3   0.906613 0.672003 0.778340 -0.633673
O8    O     O_2   0.173101 0.199654 0.506284 -0.478384
O9    O     O_3   0.064853 0.228693 0.661812 -0.551849
O10   O     O_3   0.813110 0.658990 0.426440 -0.399780
O11   O     O_2   0.679697 0.806414 0.496727 -0.524563
O12   O     O_3   0.904256 0.322075 0.257343 -0.611162
O13   O     O_3   0.399954 0.725913 0.717504 -0.552046
O14   O     O_3   0.706393 0.773947 0.330754 -0.629981
O15   O     O_2   0.703570 0.457750 0.294670 -0.464773
O16   O     O_3   0.412810 0.615240 0.376810 -0.543258
O17   O     O_2   0.534296 0.558964 0.224635 -0.389496
O18   O     O_2   0.801206 0.731056 0.089442 -0.237349
O19   O     O_2   0.718045 0.643770 0.169128 -0.239963
O20   O     O_3   0.516008 0.763590 0.144055 -0.480343
O21   O     O_2   0.245791 0.183681 0.136044 -0.530859
O22   O     O_R   0.054648 0.270963 0.093105 -0.760241
O23   O     O_3   0.389829 0.715057 0.268599 -0.481909
O24   O     O_2   0.041515 0.710383 0.294719 -0.414057
O25   O     O_2   0.053857 0.777521 0.183172 -0.243626
O26   O     O_3   0.045915 0.873127 0.341222 -0.651947
O27   O     O_2   0.724534 0.902596 0.131836 -0.503086
O28   O     O_R   0.872512 0.989388 0.233510 -0.779419
O29   O     O_2   0.081618 0.756605 0.694718 -0.620130
O30   O     O_R   0.941583 0.675265 0.583587 -0.726481
O31   O     O_2   0.855181 0.922731 0.738231 -0.516487
O32   O     O_R   0.623739 0.867332 0.690100 -0.713577
O33   O     O_2   0.309612 0.011501 0.758080 -0.214230
O34   O     O_2   0.255890 0.287710 0.416620 -0.465558
O35   O     O_2   0.115010 0.125958 0.752647 -0.207106
O36   O     O_3   0.296078 0.065118 0.623571 -0.578691
O37   O     O_2   0.593038 0.031261 0.819785 -0.214925
O38   O     O_2   0.641230 0.046042 0.679455 -0.359285
O39   O     O_3   0.765939 0.142752 0.819342 -0.367974
O40   O     O_2   0.315721 0.148203 0.928172 -0.197398
O41   O     O_2   0.563548 0.208750 0.945280 -0.197059
O42   O     O_3   0.313520 0.303480 0.932523 -0.509859
O43   O     O_2   0.708146 0.293570 0.799341 -0.295810
O44   O     O_2   0.694922 0.304157 0.652646 -0.475351
O45   O     O_3   0.472550 0.396030 0.437270 -0.511638
O46   O     O_3   0.808734 0.160891 0.672358 -0.431519
O47   O     O_2   0.019990 0.219798 0.899169 -0.485406
O48   O     O_R   0.876150 0.346394 0.942937 -0.724544
O49   O     O_2   0.547887 0.403986 0.995867 -0.221276
O50   O     O_2   0.491822 0.556669 0.038080 -0.291303
O51   O     O_3   0.298730 0.470224 0.929976 -0.491260
O52   O     O_3   0.997190 0.341000 0.573500 -0.495976
O53   O     O_3   0.414391 0.278698 0.283118 -0.612642
O54   O     O_3   0.856110 0.544300 0.605450 -0.466338
O55   O     O_3   0.397490 0.384750 0.623120 -0.472295
P1    P     P_3+3 0.385820 0.698700 0.604730 1.065778
P2    P     P_3+3 0.884390 0.431600 0.301750 1.012794
P3    P     P_3+3 0.384582 0.610704 0.269945 1.125935
P4    P     P_3+3 0.424480 0.301290 0.395200 0.993037
P5    P     P_3+3 0.414106 0.398474 0.737796 1.151941
P6    P     P_3+3 0.806828 0.764897 0.428631 1.059890
P7    P     P_3+3 0.922110 0.565835 0.714399 0.980649
P8    P     P_3+3 0.019245 0.234031 0.556458 1.058229
S1    S     S_3+6 0.706011 0.731529 0.163627 0.034577
S2    S     S_3+6 0.985981 0.787056 0.268653 -0.119450
S3    S     S_3+6 0.281315 0.089994 0.731162 -0.010577
S4    S     S_3+6 0.609961 0.093076 0.772223 0.050856
S5    S     S_3+6 0.404791 0.205424 0.898732 0.066090
S6    S     S_3+6 0.787601 0.265881 0.714848 -0.132142
S7    S     S_3+6 0.487511 0.477207 0.963759 -0.021610

loop_
_geom_bond_atom_site_label_1
_geom_bond_atom_site_label_2
_ccdc_geom_bond_type
O42   S5    S    
C43   H11   S    
Ba2   O52   S    
C36   O12   S    
O43   S6    D    
C25   C27   A    
O46   S6    S    
C43   H13   S    
O15   P2    D    
C20   H27   S    
C3    H18   S    
Ba2   P4    S    
C2    H21   S    
C45   S6    S    
Ba2   O6    S    
C37   H4    S    
C43   C44   S    
C43   O3    S    
C13   C17   A    
O41   S5    D    
C40   O30   S    
C32   C38   S    
C33   C35   S    
C22   C24   A    
C36   H52   S    
Ba1   O15   S    
C45   H14   S    
C36   C37   S    
O7    P7    S    
C9    H22   S    
C46   H15   S    
C21   N1    S    
O52   P8    S    
Ba2   O45   S    
C45   O9    S    
C30   P5    S    
O50   S7    D    
Ba2   O4    S    
C16   H32   S    
C44   S5    S    
C27   N2    S    
Ba1   Ba2   S    
Ba1   O16   S    
C2    C17   A    
C4    H16   S    
C29   C30   A    
C27   C31   A    
C6    C7    S    
O37   S4    D    
C21   C22   A    
O2    P5    D    
H44   O42   S    
C14   H19   S    
O23   P3    S    
C31   S7    S    
C7    C8    S    
O26   S2    S    
O39   S4    S    
O20   S1    S    
C28   O53   S    
C37   H3    S    
O53   P4    S    
C47   H20   S    
C10   H24   S    
O35   S3    D    
O16   P3    S    
H36   O20   S    
Ba1   O10   S    
C4    C16   S    
C35   H49   S    
C26   C29   A    
O14   P6    S    
O18   S1    D    
C5    P4    S    
C32   H1    S    
C42   O48   S    
H40   O30   S    
C28   C32   S    
Ba1   P1    S    
C5    C47   S    
O13   P1    S    
C36   H51   S    
C34   H8    S    
O54   P7    S    
C39   O28   S    
C33   H34   S    
C14   C15   A    
C4    H28   S    
C23   C34   S    
O3    P5    S    
H47   O48   S    
C32   H12   S    
C42   O47   D    
C44   S4    S    
C28   H33   S    
C41   O31   D    
C34   H7    S    
O11   P6    D    
C45   C46   S    
C10   C13   S    
Ba2   O55   S    
C12   O14   S    
O9    P8    S    
C33   O13   S    
O8    P8    D    
H48   O51   S    
C18   C19   A    
C38   O21   D    
C41   O32   S    
C7    C9    S    
Ba1   O1    S    
C4    O23   S    
C1    C12   S    
O6    P7    D    
O17   P3    D    
Ba1   O4    S    
H42   O36   S    
C2    C15   A    
C26   P7    S    
C33   H23   S    
C11   C13   A    
C19   P2    S    
O49   S7    D    
O1    P1    D    
C12   S2    S    
C25   H25   S    
C35   H50   S    
H43   O39   S    
O44   S6    D    
C3    C5    D    
C1    C39   S    
C1    H2    S    
O19   S1    D    
O51   S7    S    
Ba2   O34   S    
Ba1   P2    S    
O55   P5    S    
C23   H6    S    
C34   C41   S    
C23   C40   S    
O4    P1    S    
C9    C10   D    
C22   H26   S    
C29   H30   S    
H46   O46   S    
O5    P2    S    
C24   P3    S    
C44   S3    S    
C18   H29   S    
O12   P2    S    
O45   P4    S    
C30   C31   A    
H38   O26   S    
Ba1   O54   S    
O40   S5    D    
C3    C8    S    
O34   P4    D    
O10   P6    S    
H41   O32   S    
O24   S2    D    
C18   C24   A    
Ba2   O54   S    
C38   O22   S    
C6    P8    S    
Ba2   O5    S    
O38   S4    D    
C35   H45   S    
O36   S3    S    
C17   P6    S    
C28   H35   S    
N1    N2    D    
C15   P1    S    
Ba1   O5    S    
C37   H5    S    
C1    H9    S    
C16   H10   S    
O33   S3    D    
C16   H31   S    
C11   C14   A    
C39   O27   D    
C25   C26   A    
O25   S2    D    
C20   C21   A    
Ba1   O45   S    
C40   O29   D    
H39   O28   S    
C46   H17   S    
C12   S1    S    
C19   C20   A    
C6    C47   D    
C42   C46   S    
H37   O22   S    
C23   O7    S    
