data_mof_unit_7650.cif
_audit_creation_date              2012-12-11T14:13:30-0500
_audit_creation_method            fapswitch 2.2
_symmetry_space_group_name_H-M    P1
_symmetry_Int_Tables_number       1
_space_group_crystal_system       triclinic
_cell_length_a                    11.755225
_cell_length_b                    18.650416
_cell_length_c                    10.212856
_cell_angle_alpha                 89.999561
_cell_angle_beta                  110.693834
_cell_angle_gamma                 90.000223
_cell_volume                      2094.60503719

loop_
_atom_site_label
_atom_site_type_symbol
_atom_type_description
_atom_site_fract_x
_atom_site_fract_y
_atom_site_fract_z
_atom_type_partial_charge
C1    C     C_R   0.081046 0.643767 0.142779 0.551850
C2    C     C_2   0.602724 0.069504 0.057285 0.401913
C3    C     C_2   0.638824 0.438840 0.991008 0.365081
C4    C     C_2   0.397283 0.569506 0.942700 0.401866
C5    C     C_2   0.465721 0.968718 0.014848 -0.011762
C6    C     C_2   0.491453 0.045551 0.040653 -0.065458
C7    C     C_2   0.534288 0.468720 0.985155 -0.011656
C8    C     C_2   0.508560 0.545554 0.959359 -0.065410
C9    C     C_2   0.991200 0.914224 0.099557 -0.071798
C10   C     C_2   0.964317 0.070175 0.876690 -0.031242
C11   C     C_2   0.008791 0.414227 0.900432 -0.071760
C12   C     C_R   0.931177 0.350868 0.862515 0.521786
C13   C     C_2   0.035706 0.570170 0.123318 -0.031235
C14   C     C_2   0.977314 0.951567 0.981861 0.395335
C15   C     C_2   0.949340 0.028282 0.976477 0.386885
C16   C     C_2   0.022693 0.451566 0.018134 0.395289
C17   C     C_2   0.050674 0.528281 0.023523 0.386887
C18   C     C_R   0.464618 0.645060 0.432297 0.621225
C19   C     C_R   0.565310 0.360226 0.632362 0.555205
C20   C     C_R   0.535387 0.145056 0.567718 0.621233
C21   C     C_R   0.434695 0.860227 0.367645 0.555190
C22   C     C_R   0.375019 0.644064 0.967324 0.585498
C23   C     C_R   0.918961 0.143769 0.857223 0.551834
C24   C     C_R   0.649282 0.360770 0.988342 0.566177
C25   C     C_R   0.624981 0.144064 0.032675 0.585499
C26   C     C_R   0.350719 0.860771 0.011653 0.566164
C27   C     C_R   0.548827 0.438376 0.613805 0.000681
C28   C     C_R   0.489147 0.574791 0.496475 0.024252
C29   C     C_R   0.451199 0.938372 0.386237 0.000732
C30   C     C_R   0.510863 0.074785 0.503558 0.024249
C31   C     C_R   0.357527 0.445643 0.676362 0.363327
C32   C     C_R   0.610502 0.538932 0.348305 0.371608
C33   C     C_R   0.642469 0.945656 0.323631 0.363268
C34   C     C_R   0.068807 0.850861 0.137479 0.521702
C35   C     C_R   0.389484 0.038938 0.651716 0.371558
C36   C     C_R   0.245972 0.478038 0.649073 0.222343
C37   C     C_R   0.721536 0.509725 0.353285 0.152761
C38   C     C_R   0.754004 0.978068 0.350874 0.222329
C39   C     C_R   0.278411 0.009764 0.646668 0.152818
C40   C     C_R   0.233106 0.550753 0.619789 0.152244
C41   C     C_R   0.786058 0.467763 0.468902 0.123681
C42   C     C_R   0.766853 0.050783 0.380157 0.152236
C43   C     C_R   0.213900 0.967821 0.531024 0.123665
C44   C     C_R   0.335382 0.588277 0.614740 0.078332
C45   C     C_R   0.446050 0.476092 0.627348 -0.040785
C46   C     C_R   0.742584 0.462615 0.581044 0.099638
C47   C     C_R   0.664574 0.088292 0.385230 0.078300
C48   C     C_R   0.257455 0.962620 0.418962 0.099616
C49   C     C_R   0.427207 0.548570 0.584036 -0.065314
C50   C     C_R   0.618613 0.472966 0.547771 -0.019155
C51   C     C_R   0.572784 0.048572 0.415974 -0.065288
C52   C     C_R   0.381429 0.972950 0.452300 -0.019140
C53   C     C_R   0.569639 0.529440 0.461193 0.000180
C54   C     C_R   0.553956 0.976094 0.372670 -0.040770
C55   C     C_R   0.430393 0.029427 0.538869 0.000149
C56   C     C_2   0.361176 0.938840 0.008967 0.364987
Cr1   Cr    Cr6+3 0.187610 0.750000 0.979860 1.130976
Cr2   Cr    Cr6+3 0.812390 0.250000 0.020140 1.130962
Cr3   Cr    Cr6+3 0.245810 0.750000 0.341640 1.041718
Cr4   Cr    Cr6+3 0.754190 0.250000 0.658360 1.041705
Cr5   Cr    Cr6+3 0.485760 0.750000 0.219910 1.117533
Cr6   Cr    Cr6+3 0.514240 0.250000 0.780090 1.117547
F1    F     F_    0.375076 0.387882 0.760163 -0.639471
F2    F     F_    0.004363 0.922310 0.873979 -0.595579
F3    F     F_    0.088717 0.556418 0.923016 -0.597969
F4    F     F_    0.995651 0.422306 0.126021 -0.595646
F5    F     F_    0.536177 0.567866 0.228928 -0.643843
F6    F     F_    0.624928 0.887886 0.239853 -0.639487
F7    F     F_    0.463770 0.067886 0.771092 -0.643873
F8    F     F_    0.693105 0.022305 0.065693 -0.596896
F9    F     F_    0.267726 0.979709 0.015427 -0.657841
F10   F     F_    0.306889 0.522305 0.934240 -0.596885
F11   F     F_    0.732259 0.479706 0.984493 -0.657886
F12   F     F_    0.911286 0.056416 0.076979 -0.597954
H1    H     H_    0.419193 0.083031 0.035190 0.121634
H2    H     H_    0.186428 0.416685 0.771934 0.303299
H3    H     H_    0.857260 0.555207 0.306331 0.210642
H4    H     H_    0.723378 0.567763 0.184522 0.271913
H5    H     H_    0.865654 0.893954 0.397049 0.239676
H6    H     H_    0.813523 0.916728 0.227978 0.303329
H7    H     H_    0.142796 0.055440 0.693505 0.210521
H8    H     H_    0.276630 0.067711 0.815567 0.272091
H9    H     H_    0.127385 0.618182 0.685275 0.297885
H10   H     H_    0.094993 0.616265 0.509689 0.231573
H11   H     H_    0.929842 0.403030 0.562751 0.263004
H12   H     H_    0.536180 0.934566 0.002494 0.206830
H13   H     H_    0.960492 0.478005 0.488349 0.273043
H14   H     H_    0.872557 0.118244 0.314707 0.297851
H15   H     H_    0.904964 0.116289 0.490284 0.231570
H16   H     H_    0.070109 0.903111 0.437127 0.262990
H17   H     H_    0.039466 0.978140 0.511396 0.273155
H18   H     H_    0.430840 0.667770 0.744010 0.202448
H19   H     H_    0.278729 0.685763 0.670364 0.245069
H20   H     H_    0.807341 0.472514 0.792330 0.281404
H21   H     H_    0.896204 0.515677 0.708877 0.276404
H22   H     H_    0.569073 0.167766 0.255938 0.202450
H23   H     H_    0.580827 0.583036 0.964851 0.121657
H24   H     H_    0.721174 0.185791 0.329589 0.245070
H25   H     H_    0.192759 0.972352 0.207664 0.281355
H26   H     H_    0.103921 0.015673 0.290934 0.276380
H27   H     H_    0.463836 0.434571 0.997530 0.206815
H28   H     H_    0.993490 0.047005 0.796343 0.129059
H29   H     H_    0.970258 0.939401 0.181895 0.124329
H30   H     H_    0.006551 0.546995 0.203673 0.128881
H31   H     H_    0.029748 0.439398 0.818094 0.124329
H32   H     H_    0.134340 0.393912 0.602860 0.239645
N1    N     N_3   0.151598 0.437828 0.670821 -0.583801
N2    N     N_3   0.809782 0.500654 0.705643 -0.625403
N3    N     N_3   0.646532 0.162791 0.345772 -0.570235
N4    N     N_3   0.190317 0.000577 0.294249 -0.625420
N5    N     N_3   0.775757 0.528789 0.252385 -0.494918
N6    N     N_3   0.848370 0.937871 0.329089 -0.583737
N7    N     N_3   0.224119 0.028863 0.747484 -0.494964
N8    N     N_3   0.119130 0.585048 0.600405 -0.595000
N9    N     N_3   0.898497 0.436273 0.475602 -0.555745
N10   N     N_3   0.880820 0.085091 0.399547 -0.594987
N11   N     N_3   0.101417 0.936380 0.524245 -0.555707
N12   N     N_3   0.353381 0.662779 0.654179 -0.570212
O1    O     O_R   0.267710 0.668200 0.902110 -0.498912
O2    O     O_R   0.883280 0.330790 0.732340 -0.548294
O3    O     O_R   0.883280 0.169210 0.732340 -0.542195
O4    O     O_R   0.116720 0.830790 0.267660 -0.548277
O5    O     O_R   0.366710 0.675440 0.427590 -0.462177
O6    O     O_R   0.633290 0.324560 0.572410 -0.488473
O7    O     O_R   0.633290 0.175440 0.572410 -0.462181
O8    O     O_R   0.366710 0.824560 0.427590 -0.488481
O9    O     O_R   0.534870 0.669390 0.371760 -0.457584
O10   O     O_R   0.465130 0.330610 0.628240 -0.435652
O11   O     O_R   0.465130 0.169390 0.628240 -0.457578
O12   O     O_R   0.732290 0.331800 0.097890 -0.459442
O13   O     O_R   0.534870 0.830610 0.371760 -0.435627
O14   O     O_R   0.453080 0.674480 0.075160 -0.465996
O15   O     O_R   0.546920 0.325520 0.924840 -0.494127
O16   O     O_R   0.546920 0.174480 0.924840 -0.465959
O17   O     O_R   0.453080 0.825520 0.075160 -0.494132
O18   O     O_3   0.306390 0.750000 0.180470 -0.344512
O19   O     O_3   0.693610 0.250000 0.819530 -0.344522
O20   O     O_R   0.732290 0.168200 0.097890 -0.498943
O21   O     O_R   0.267710 0.831800 0.902110 -0.459440
O22   O     O_R   0.099480 0.674460 0.038850 -0.421083
O23   O     O_R   0.900520 0.325540 0.961150 -0.427616
O24   O     O_R   0.900520 0.174460 0.961150 -0.421077
O25   O     O_R   0.099480 0.825540 0.038850 -0.427625
O26   O     O_R   0.116720 0.669210 0.267660 -0.542179

loop_
_geom_bond_atom_site_label_1
_geom_bond_atom_site_label_2
_ccdc_geom_bond_type
C24   O15   A    
C44   C49   A    
C48   N4    S    
C30   C51   A    
H26   N4    S    
Cr3   O18   S    
C5    C56   D    
H9    N8    S    
C20   O11   A    
C4    C8    D    
C6    H1    S    
C23   O3    A    
C20   C30   S    
Cr3   O8    S    
H20   N2    S    
H5    N6    S    
H32   N1    S    
Cr6   O15   S    
Cr4   O7    S    
C38   C42   A    
C3    C7    D    
C10   C15   D    
C5    C6    S    
C29   C54   A    
C19   O10   A    
C12   O23   A    
Cr1   O21   S    
H3    N5    S    
C11   C16   D    
Cr4   O6    S    
H18   N12   S    
C21   O13   A    
C36   C40   A    
C26   O17   A    
Cr5   O14   S    
C12   O2    A    
C40   N8    S    
C16   C17   S    
C39   N7    S    
C46   N2    S    
C11   H31   S    
C41   C46   A    
H17   N11   S    
Cr1   O18   S    
H4    N5    S    
C44   N12   S    
C19   C27   S    
C43   C48   A    
C40   C44   A    
H13   N9    S    
C27   C50   A    
Cr4   O19   S    
Cr1   O1    S    
Cr2   O20   S    
Cr3   O4    S    
H15   N10   S    
C34   O4    A    
H24   N3    S    
C36   N1    S    
Cr6   O11   S    
C3    C24   S    
C2    C6    D    
C41   N9    S    
Cr5   O18   S    
Cr3   O5    S    
C22   O1    A    
C34   O25   A    
C19   O6    A    
C50   C53   A    
Cr1   O25   S    
C35   C55   A    
H16   N11   S    
C31   F1    S    
H11   N9    S    
C18   C28   S    
Cr5   O9    S    
C26   O21   A    
C39   C43   A    
C47   N3    S    
H25   N4    S    
C21   C29   S    
Cr1   O22   S    
H14   N10   S    
C35   C39   A    
C9    C14   D    
C18   O9    A    
C4    C22   S    
C28   C49   A    
Cr2   O24   S    
C45   C49   A    
C9    H29   S    
C56   F9    S    
C14   F2    S    
H6    N6    S    
C28   C53   A    
C23   O24   A    
C32   C37   A    
C13   H30   S    
C25   O16   A    
C1    O22   A    
C43   N11   S    
C32   F5    S    
C5    H12   S    
Cr2   O19   S    
C42   N10   S    
Cr3   O26   S    
H2    N1    S    
C31   C45   A    
C9    C34   S    
C16   F4    S    
H19   N12   S    
C38   N6    S    
C32   C53   A    
C4    F10   S    
Cr5   O17   S    
H22   N3    S    
C33   C54   A    
C46   C50   A    
H10   N8    S    
C22   O14   A    
C31   C36   A    
H8    N7    S    
C26   C56   S    
C47   C51   A    
C11   C12   S    
C52   C55   A    
C10   C23   S    
C30   C55   A    
C18   O5    A    
C17   F3    S    
C33   C38   A    
C13   C17   D    
C51   C54   A    
Cr6   O16   S    
C25   O20   A    
C20   O7    A    
C1    O26   A    
Cr6   O10   S    
Cr2   O23   S    
C27   C45   A    
Cr2   O12   S    
C8    H23   S    
C10   H28   S    
Cr4   O2    S    
C2    C25   S    
C42   C47   A    
Cr6   O19   S    
C37   C41   A    
Cr4   O3    S    
C3    F11   S    
C37   N5    S    
C7    C8    S    
H21   N2    S    
Cr5   O13   S    
C24   O12   A    
C48   C52   A    
C15   F12   S    
C1    C13   S    
C35   F7    S    
C7    H27   S    
H7    N7    S    
C14   C15   S    
C21   O8    A    
C2    F8    S    
C33   F6    S    
C29   C52   A    
