data_mof_unit_20428.cif
_audit_creation_date              2012-12-11T16:24:10-0500
_audit_creation_method            fapswitch 2.2
_symmetry_space_group_name_H-M    P1
_symmetry_Int_Tables_number       1
_space_group_crystal_system       triclinic
_cell_length_a                    14.754703
_cell_length_b                    14.74545
_cell_length_c                    33.279375
_cell_angle_alpha                 95.991996
_cell_angle_beta                  96.195505
_cell_angle_gamma                 61.1589
_cell_volume                      6293.88614658

loop_
_atom_site_label
_atom_site_type_symbol
_atom_type_description
_atom_site_fract_x
_atom_site_fract_y
_atom_site_fract_z
_atom_type_partial_charge
C1    C     C_R   0.390721 0.700333 0.446277 0.577608
C2    C     C_R   0.330964 0.351685 0.308260 0.040475
C3    C     C_R   0.413273 0.268510 0.327661 -0.098947
C4    C     C_R   0.432980 0.276191 0.369479 -0.113040
C5    C     C_R   0.393734 0.254085 0.165769 -0.102911
C6    C     C_R   0.384643 0.234198 0.124067 -0.124224
C7    C     C_R   0.211820 0.381919 0.120985 -0.105422
C8    C     C_R   0.221121 0.401551 0.162765 -0.063348
C9    C     C_R   0.310770 0.335569 0.185277 0.045542
C10   C     C_1   0.314879 0.345138 0.228594 0.006855
C11   C     C_1   0.320364 0.349168 0.264950 0.005542
C12   C     C_R   0.405931 0.386528 0.433912 0.550716
C13   C     C_R   0.291986 0.295471 0.101503 0.007106
C14   C     C_R   0.753877 0.374709 0.409501 0.016315
C15   C     C_R   0.768619 0.444951 0.389216 -0.098445
C16   C     C_R   0.792325 0.423716 0.348889 -0.061650
C17   C     C_R   0.803808 0.331201 0.328478 0.030651
C18   C     C_R   0.799933 0.256007 0.349627 -0.104053
C19   C     C_R   0.774222 0.277992 0.389981 -0.115118
C20   C     C_R   0.825344 0.308014 0.203762 0.350751
C21   C     C_R   0.809020 0.319710 0.284536 0.324383
C22   C     C_R   0.841582 0.390781 0.143720 0.250016
C23   C     C_R   0.700645 0.410042 0.447458 0.552917
C24   C     C_R   0.871743 0.378192 0.104266 -0.104151
C25   C     C_R   0.903988 0.200353 0.098481 -0.136692
C26   C     C_R   0.871829 0.212134 0.137406 -0.151690
C27   C     C_R   0.843196 0.305616 0.160881 0.014716
C28   C     C_R   0.907668 0.282254 0.082191 -0.035036
C29   C     C_R   0.373388 0.752868 0.408653 -0.034818
C30   C     C_R   0.273509 0.817223 0.390747 0.246458
C31   C     C_R   0.264019 0.842509 0.350571 -0.126418
C32   C     C_R   0.351814 0.806519 0.328515 -0.026420
C33   C     C_R   0.451485 0.752680 0.347687 0.204162
C34   C     C_R   0.393449 0.701178 0.561251 0.543494
C35   C     C_R   0.461191 0.725942 0.387390 -0.173029
C36   C     C_R   0.321145 0.840814 0.204691 0.404541
C37   C     C_R   0.337920 0.819178 0.285043 0.376999
C38   C     C_R   0.262685 0.817703 0.132144 0.274820
C39   C     C_R   0.258553 0.837302 0.091127 0.266213
C40   C     C_R   0.353703 0.933702 0.110562 -0.182123
C41   C     C_R   0.364694 0.907772 0.150201 -0.165857
C42   C     C_R   0.316689 0.853585 0.161555 -0.009620
C43   C     C_R   0.295753 0.904269 0.081274 -0.030608
C44   C     C_R   0.373940 0.370921 0.586522 -0.027128
C45   C     C_R   0.406926 0.388665 0.548981 0.574943
C46   C     C_R   0.274252 0.436450 0.601171 0.247076
C47   C     C_R   0.260271 0.438076 0.642707 0.273518
C48   C     C_R   0.342030 0.367599 0.668170 -0.005548
C49   C     C_R   0.435254 0.295303 0.651673 -0.177933
C50   C     C_R   0.451134 0.297209 0.611657 -0.186471
C51   C     C_R   0.321566 0.367881 0.792804 0.337143
C52   C     C_R   0.333809 0.368885 0.712120 0.356666
C53   C     C_R   0.218199 0.411744 0.852985 -0.122045
C54   C     C_R   0.206169 0.387037 0.890579 -0.131892
C55   C     C_R   0.388142 0.259430 0.895740 -0.139746
C56   C     C_R   0.701511 0.413376 0.562803 0.578552
C57   C     C_R   0.400343 0.284535 0.858163 -0.121404
C58   C     C_R   0.314238 0.357363 0.835638 0.039949
C59   C     C_R   0.289866 0.307007 0.911294 0.021868
C60   C     C_R   0.750301 0.380643 0.603864 0.013366
C61   C     C_R   0.802325 0.428131 0.628673 0.252427
C62   C     C_R   0.823887 0.409509 0.670046 -0.084531
C63   C     C_R   0.797059 0.343209 0.686661 -0.009338
C64   C     C_R   0.753016 0.290776 0.661925 -0.128587
C65   C     C_R   0.730267 0.308879 0.620973 -0.169411
C66   C     C_R   0.874572 0.217352 0.824281 -0.109094
C67   C     C_R   0.370608 0.367586 0.392243 0.019804
C68   C     C_R   0.906404 0.204411 0.865297 -0.127627
C69   C     C_R   0.866814 0.384910 0.874588 -0.126880
C70   C     C_R   0.834887 0.397634 0.833632 -0.111165
C71   C     C_R   0.841731 0.313142 0.808256 0.042539
C72   C     C_1   0.824081 0.322689 0.765374 -0.013401
C73   C     C_1   0.811838 0.331380 0.729426 -0.012114
C74   C     C_R   0.906373 0.287193 0.890524 0.019708
C75   C     C_R   0.376264 0.753563 0.602102 0.016754
C76   C     C_R   0.279147 0.792873 0.618285 -0.109268
C77   C     C_R   0.268464 0.820960 0.659525 -0.120666
C78   C     C_R   0.283637 0.447871 0.372764 -0.108592
C79   C     C_R   0.354493 0.809707 0.685007 0.034174
C80   C     C_R   0.449911 0.776658 0.668862 -0.100045
C81   C     C_R   0.460726 0.749203 0.627540 -0.121783
C82   C     C_R   0.389545 0.894497 0.830746 0.285458
C83   C     C_R   0.368184 0.925065 0.871711 -0.123392
C84   C     C_R   0.237884 0.868119 0.865002 -0.146635
C85   C     C_R   0.257142 0.839297 0.824267 -0.168712
C86   C     C_R   0.329970 0.855624 0.806931 0.055122
C87   C     C_1   0.339116 0.838283 0.763967 0.028700
C88   C     C_1   0.346220 0.825767 0.727948 -0.009487
C89   C     C_R   0.264261 0.440012 0.330917 -0.092893
C90   C     C_R   0.291096 0.914055 0.888807 -0.022299
C91   C     C_R   0.963664 0.264193 0.045653 0.548802
C92   C     C_R   0.272845 0.259701 0.059973 0.537066
C93   C     C_R   0.259429 0.959173 0.043602 0.551167
C94   C     C_R   0.961962 0.267979 0.930904 0.542236
C95   C     C_R   0.270927 0.264622 0.945611 0.543027
C96   C     C_R   0.256148 0.965126 0.928951 0.539826
Cr1   Cr    Cr6+3 0.576280 0.580550 0.506370 1.068929
Cr2   Cr    Cr6+3 0.346780 0.572400 0.496520 1.167335
Cr3   Cr    Cr6+3 0.576960 0.347070 0.497150 1.033036
Cr4   Cr    Cr6+3 0.087320 0.083240 0.984860 1.034990
Cr5   Cr    Cr6+3 0.087720 0.316210 0.996740 1.022104
Cr6   Cr    Cr6+3 0.317350 0.090340 0.995890 1.013637
H1    H     H_    0.447796 0.167257 0.109975 0.136179
H2    H     H_    0.764079 0.222123 0.405024 0.137313
H3    H     H_    0.873665 0.441836 0.091584 0.190781
H4    H     H_    0.797316 0.481569 0.333051 0.208278
H5    H     H_    0.809385 0.183831 0.334220 0.144760
H6    H     H_    0.931243 0.125414 0.082090 0.163651
H7    H     H_    0.873325 0.146385 0.149881 0.161122
H8    H     H_    0.538292 0.678336 0.400872 0.173266
H9    H     H_    0.463572 0.202904 0.183049 0.125335
H10   H     H_    0.187711 0.886626 0.335763 0.190301
H11   H     H_    0.384508 0.983276 0.103560 0.158671
H12   H     H_    0.406648 0.934764 0.172650 0.161697
H13   H     H_    0.527194 0.244165 0.601197 0.154297
H14   H     H_    0.129603 0.425947 0.902054 0.131594
H15   H     H_    0.498340 0.238931 0.670182 0.156002
H16   H     H_    0.465034 0.199650 0.310252 0.131283
H17   H     H_    0.150920 0.469598 0.836622 0.129745
H18   H     H_    0.454304 0.198887 0.911543 0.124318
H19   H     H_    0.475726 0.242178 0.845758 0.130539
H20   H     H_    0.936781 0.128154 0.876617 0.128958
H21   H     H_    0.880043 0.151548 0.804760 0.113124
H22   H     H_    0.732842 0.238505 0.674543 0.128675
H23   H     H_    0.691389 0.270348 0.603211 0.144210
H24   H     H_    0.809356 0.472117 0.821415 0.111005
H25   H     H_    0.865656 0.450159 0.893237 0.127168
H26   H     H_    0.500484 0.213111 0.383547 0.142707
H27   H     H_    0.860073 0.448094 0.689632 0.158425
H28   H     H_    0.406952 0.963450 0.889530 0.128956
H29   H     H_    0.516865 0.768147 0.688428 0.135163
H30   H     H_    0.536603 0.718642 0.616064 0.176548
H31   H     H_    0.212665 0.797164 0.599499 0.166736
H32   H     H_    0.212054 0.808294 0.805833 0.113960
H33   H     H_    0.177818 0.859178 0.877310 0.136731
H34   H     H_    0.194148 0.847737 0.671792 0.110104
H35   H     H_    0.234203 0.519348 0.389402 0.166666
H36   H     H_    0.156678 0.465090 0.177701 0.154282
H37   H     H_    0.139580 0.430679 0.104435 0.150629
H38   H     H_    0.200152 0.504601 0.316069 0.142894
H39   H     H_    0.754498 0.519627 0.403496 0.175029
N1    N     N_R   0.752742 0.395196 0.222357 -0.102972
N2    N     N_R   0.240379 0.414399 0.728437 -0.162802
N3    N     N_R   0.420966 0.323692 0.737050 -0.245050
N4    N     N_R   0.415026 0.322750 0.776554 -0.236684
N5    N     N_R   0.745254 0.401253 0.262043 -0.139770
N6    N     N_R   0.878306 0.230260 0.265813 -0.200849
N7    N     N_R   0.886595 0.224751 0.226057 -0.208162
N8    N     N_R   0.367989 0.745009 0.219169 -0.119045
N9    N     N_R   0.376198 0.734449 0.258783 -0.136485
N10   N     N_R   0.290045 0.914980 0.270543 -0.190943
N11   N     N_R   0.282362 0.925568 0.230936 -0.192214
N12   N     N_R   0.234366 0.413864 0.767984 -0.240281
O1    O     O_R   0.679450 0.499830 0.463150 -0.513397
O2    O     O_R   0.356040 0.477400 0.534170 -0.428217
O3    O     O_R   0.495910 0.323070 0.537100 -0.528187
O4    O     O_R   0.663920 0.359620 0.542290 -0.516518
O5    O     O_3   0.500010 0.500010 0.500010 -0.283364
O6    O     O_R   0.170070 0.978950 0.027680 -0.469326
O7    O     O_R   0.001760 0.175230 0.026640 -0.495323
O8    O     O_R   0.984760 0.333570 0.037150 -0.514366
O9    O     O_R   0.183410 0.309240 0.041890 -0.500549
O10   O     O_R   0.340240 0.172500 0.045430 -0.517746
O11   O     O_R   0.309670 0.000990 0.032050 -0.509363
O12   O     O_R   0.480650 0.664000 0.464630 -0.518058
O13   O     O_R   0.168330 0.982130 0.939200 -0.519722
O14   O     O_R   0.000140 0.178170 0.944610 -0.502635
O15   O     O_R   0.983010 0.336750 0.948660 -0.519056
O16   O     O_R   0.181800 0.312190 0.959860 -0.503998
O17   O     O_R   0.338500 0.175680 0.956950 -0.519362
O18   O     O_R   0.308050 0.003930 0.950020 -0.504390
O19   O     O_3   0.164130 0.163270 0.992500 -0.240648
O20   O     O_R   0.323930 0.675950 0.455370 -0.432803
O21   O     O_R   0.354700 0.475360 0.451930 -0.487000
O22   O     O_R   0.494470 0.320860 0.448390 -0.515480
O23   O     O_R   0.662580 0.357570 0.460050 -0.499740
O24   O     O_R   0.680900 0.502040 0.551870 -0.442974
O25   O     O_R   0.481990 0.666040 0.546870 -0.502483
O26   O     O_R   0.325370 0.678160 0.544080 -0.468288
S1    S     S_3+6 0.814676 0.510030 0.171222 0.035298
O27   O     O_2   0.700992 0.569627 0.178235 -0.219701
O28   O     O_2   0.876761 0.489234 0.211276 -0.244817
O29   O     O_3   0.845684 0.582050 0.145231 -0.546887
H40   H     H_    0.828580 0.646085 0.162724 0.381734
S2    S     S_3+6 0.159067 0.867259 0.416875 0.039197
O30   O     O_2   0.123274 0.787003 0.414381 -0.260635
O31   O     O_2   0.179853 0.893915 0.460534 -0.254286
O32   O     O_3   0.065476 0.974594 0.395531 -0.520852
H41   H     H_    0.004198 0.996820 0.411311 0.370610
O33   O     O_3   0.208842 0.799592 0.061743 -0.500945
C97   C     C_3   0.279989 0.728487 0.033707 0.025328
H42   H     H_    0.342717 0.746726 0.028556 0.084603
H43   H     H_    0.237043 0.733389 0.003764 0.154419
C98   C     C_3   0.329728 0.616878 0.046879 -0.245885
H44   H     H_    0.394868 0.566420 0.027533 0.111877
H45   H     H_    0.362472 0.613350 0.078680 0.205874
C99   C     C_3   0.252917 0.574260 0.042697 -0.363617
H46   H     H_    0.185842 0.623064 0.061176 0.242620
H47   H     H_    0.291914 0.494288 0.053263 0.141411
H48   H     H_    0.224536 0.571646 0.010517 0.123975
S3    S     S_3+6 0.565701 0.714900 0.322743 0.037737
O34   O     O_2   0.591632 0.615310 0.297979 -0.202208
O35   O     O_2   0.549859 0.796584 0.295169 -0.238653
O36   O     O_3   0.665383 0.695812 0.356699 -0.538682
H49   H     H_    0.645041 0.764454 0.371109 0.348050
S4    S     S_3+6 0.194447 0.755450 0.146519 0.032351
O37   O     O_2   0.105613 0.770928 0.116267 -0.246255
O38   O     O_2   0.268017 0.641399 0.148687 -0.299812
O39   O     O_3   0.146374 0.804125 0.192077 -0.505764
H50   H     H_    0.121940 0.756948 0.199877 0.373509
S5    S     S_3+6 0.166466 0.514716 0.568353 0.055169
O40   O     O_2   0.165791 0.615859 0.564828 -0.313234
O41   O     O_2   0.174554 0.460083 0.527093 -0.256246
O42   O     O_3   0.054455 0.539241 0.586516 -0.410167
H51   H     H_    0.000133 0.598896 0.571800 0.364042
O43   O     O_3   0.165886 0.506438 0.658161 -0.474772
C100  C     C_3   0.166069 0.600518 0.671582 0.035640
H52   H     H_    0.166810 0.641206 0.645385 0.169039
H53   H     H_    0.234639 0.586975 0.692855 0.110004
C101  C     C_3   0.067850 0.669725 0.693796 -0.223438
H54   H     H_    0.998646 0.681296 0.673467 0.221025
H55   H     H_    0.068426 0.630939 0.720800 0.192423
C102  C     C_3   0.059872 0.775239 0.707362 -0.497538
H56   H     H_    0.129999 0.765823 0.726549 0.143782
H57   H     H_    0.990809 0.821089 0.725266 0.153816
H58   H     H_    0.050998 0.818437 0.680545 0.154810
S6    S     S_3+6 0.843172 0.509395 0.609795 0.037775
O44   O     O_2   0.752304 0.616264 0.606328 -0.317265
O45   O     O_2   0.926408 0.516111 0.638208 -0.222197
O46   O     O_3   0.890063 0.461008 0.564013 -0.466875
H59   H     H_    0.875108 0.522066 0.549171 0.371108
O47   O     O_3   0.456544 0.915011 0.811593 -0.561286
C103  C     C_3   0.551761 0.888607 0.834427 0.006805
H60   H     H_    0.615268 0.838794 0.814310 0.153966
H61   H     H_    0.565195 0.842228 0.860974 0.108566
C104  C     C_3   0.559831 0.987241 0.847501 -0.260488
H62   H     H_    0.556059 0.026709 0.820192 0.186744
H63   H     H_    0.493571 0.041178 0.865632 0.167268
C105  C     C_3   0.660748 0.963174 0.872633 -0.488246
H64   H     H_    0.664825 0.926093 0.900642 0.151523
H65   H     H_    0.664102 0.036337 0.881331 0.147856
H66   H     H_    0.728395 0.910581 0.854822 0.149454

loop_
_geom_bond_atom_site_label_1
_geom_bond_atom_site_label_2
_ccdc_geom_bond_type
Cr6   O17   S    
C99   H48   S    
C66   C68   A    
C87   C88   T    
C84   H33   S    
O33   C97   S    
C55   C59   A    
Cr5   O15   S    
S3    O34   D    
N1    N5    A    
C98   H45   S    
C105  H64   S    
S4    O39   S    
C37   N9    A    
O29   H40   S    
C101  H55   S    
Cr1   O25   S    
C102  H58   S    
C7    C8    A    
Cr1   O12   S    
C85   C86   A    
C44   C45   S    
C100  C101  S    
C1    O20   A    
C26   C27   A    
C52   N3    A    
C59   C95   S    
Cr4   O14   S    
C21   N6    A    
Cr4   O13   S    
Cr5   O9    S    
C38   C42   A    
C69   C70   A    
C5    C6    A    
Cr2   O21   S    
S4    O38   D    
C36   N8    A    
N2    N12   A    
C98   C99   S    
Cr4   O19   S    
C51   N4    A    
C68   C74   A    
C46   S5    S    
C23   O1    A    
C104  H62   S    
Cr5   O19   S    
C8    H36   S    
C50   H13   S    
C41   C42   A    
C33   S3    S    
C93   O6    A    
S6    O44   D    
C74   C94   S    
C18   H5    S    
C79   C88   S    
C82   O47   S    
C7    C13   A    
C43   C93   S    
C15   H39   S    
C36   C42   S    
C40   C43   A    
C49   H15   S    
Cr3   O23   S    
N6    N7    A    
C53   C54   A    
S1    O28   D    
Cr6   O10   S    
S4    O37   D    
C96   O18   A    
C54   H14   S    
N10   N11   A    
C20   N7    A    
Cr5   O16   S    
C70   C71   A    
C45   O2    A    
C77   H34   S    
C28   C91   S    
C103  H60   S    
C41   H12   S    
C54   C59   A    
S1    O29   S    
C16   H4    S    
C85   H32   S    
C56   O24   A    
C70   H24   S    
C98   H44   S    
C80   H29   S    
Cr3   O3    S    
S3    O35   D    
C62   H27   S    
C34   O26   A    
C61   C62   A    
C67   C78   A    
C84   C90   A    
C37   N10   A    
C2    C11   S    
C101  H54   S    
C103  C104  S    
C44   C46   A    
O39   H50   S    
C57   C58   A    
C55   H18   S    
C77   C79   A    
C78   C89   A    
Cr6   O19   S    
C38   C39   A    
C12   C67   S    
C52   N2    A    
C4    H26   S    
C97   H42   S    
C30   S2    S    
Cr2   O5    S    
C84   C85   A    
C102  H56   S    
C22   S1    S    
C68   H20   S    
C51   C58   S    
C39   O33   S    
O42   H51   S    
C18   C19   A    
C81   H30   S    
C39   C43   A    
C23   O23   A    
C63   C73   S    
C93   O11   A    
C100  H52   S    
C82   C86   A    
C40   H11   S    
C17   C21   S    
C79   C80   A    
Cr3   O4    S    
C60   C61   A    
C25   C28   A    
C65   H23   S    
C14   C23   S    
C2    C89   A    
C75   C76   A    
C97   H43   S    
S5    O40   D    
C5    C9    A    
C29   C30   A    
C3    H16   S    
C20   N1    A    
C56   O4    A    
C95   O16   A    
C19   H2    S    
Cr4   O7    S    
Cr1   O24   S    
C47   C48   A    
C14   C15   A    
C1    O12   A    
C30   C31   A    
C31   H10   S    
C89   H38   S    
C47   O43   S    
S6    O46   S    
C62   C63   A    
C1    C29   S    
C17   C18   A    
C8    C9    A    
Cr3   O22   S    
C69   C74   A    
C105  H65   S    
C45   O3    A    
C61   S6    S    
C32   C37   S    
C76   C77   A    
C103  H61   S    
C26   H7    S    
C91   O7    A    
C35   H8    S    
C66   C71   A    
C83   H28   S    
C12   O22   A    
C92   O10   A    
C40   C41   A    
S5    O41   D    
C60   C65   A    
C49   C50   A    
C22   C27   A    
C55   C57   A    
C13   C92   S    
S3    O36   S    
C22   C24   A    
C34   O25   A    
C94   O15   A    
C3    C4    A    
C78   H35   S    
C53   H17   S    
S1    O27   D    
C12   O21   A    
C9    C10   S    
C92   O9    A    
Cr6   O18   S    
Cr2   O20   S    
C83   C90   A    
C6    H1    S    
Cr2   O2    S    
C51   N12   A    
C38   S4    S    
S6    O45   D    
C86   C87   S    
C14   C19   A    
C31   C32   A    
C36   N11   A    
C24   C28   A    
C80   C81   A    
S2    O32   S    
C34   C75   S    
Cr1   O1    S    
C94   O14   A    
C4    C67   A    
C53   C58   A    
C102  H57   S    
C90   C96   S    
C20   C27   S    
C75   C81   A    
C100  H53   S    
C5    H9    S    
C29   C35   A    
C76   H31   S    
C104  C105  S    
N3    N4    A    
C32   C33   A    
C99   H47   S    
C2    C3    A    
C25   C26   A    
C97   C98   S    
O46   H59   S    
C64   H22   S    
N8    N9    A    
C21   N5    A    
Cr1   O5    S    
C7    H37   S    
Cr4   O6    S    
S2    O30   D    
C16   C17   A    
C91   O8    A    
C72   C73   T    
C48   C49   A    
C64   C65   A    
Cr5   O8    S    
O47   C103  S    
C33   C35   A    
C104  H63   S    
C105  H66   S    
C96   O13   A    
C99   H46   S    
C95   O17   A    
C46   C47   A    
S2    O31   D    
C10   C11   T    
C57   H19   S    
C63   C64   A    
O43   C100  S    
C48   C52   S    
S5    O42   S    
C56   C60   S    
O36   H49   S    
C69   H25   S    
C44   C50   A    
Cr6   O11   S    
C82   C83   A    
Cr3   O5    S    
C66   H21   S    
O32   H41   S    
C24   H3    S    
C71   C72   S    
Cr2   O26   S    
C101  C102  S    
C15   C16   A    
C25   H6    S    
C6    C13   A    
