data_mof_unit_62743.cif
_audit_creation_date              2013-03-05T16:13:40-0500
_audit_creation_method            fapswitch 2.2
_symmetry_space_group_name_H-M    P1
_symmetry_Int_Tables_number       1
_space_group_crystal_system       triclinic
_cell_length_a                    23.571863
_cell_length_b                    14.683934
_cell_length_c                    15.89224
_cell_angle_alpha                 90.057225
_cell_angle_beta                  90.120658
_cell_angle_gamma                 89.949164
_cell_volume                      5500.7270743

loop_
_atom_site_label
_atom_site_type_symbol
_atom_site_description
_atom_site_fract_x
_atom_site_fract_y
_atom_site_fract_z
_atom_type_partial_charge
O1    O     O_R   0.500060 0.424030 0.620640 -0.569207
O2    O     O_R   0.500060 0.575970 0.620640 -0.579336
C1    C     C_R   0.500121 0.500047 0.660234 0.815503
O3    O     O_R   0.582180 0.424050 0.500100 -0.579012
O4    O     O_R   0.582180 0.575950 0.500100 -0.548622
C2    C     C_R   0.609270 0.499824 0.498103 0.826786
Cu1   Cu    Cu3+1 0.500070 0.410080 0.500090 1.036717
Cu2   Cu    Cu3+1 0.500070 0.589920 0.500090 1.038854
O5    O     O_R   0.500060 0.424100 0.379510 -0.554351
O6    O     O_R   0.500060 0.575900 0.379510 -0.548156
O7    O     O_R   0.417940 0.424080 0.500050 -0.561106
O8    O     O_R   0.417940 0.575920 0.500050 -0.587701
C3    C     C_R   0.500121 0.499970 0.339977 0.842799
C4    C     C_R   0.390684 0.500030 0.502456 0.786864
C5    C     C_R   0.119511 0.482359 0.422019 0.548613
N1    N     N_R   0.147611 0.484960 0.497468 -0.482179
C6    C     C_R   0.119122 0.488048 0.572150 0.561252
C7    C     C_R   0.059796 0.489850 0.573213 -0.039500
C8    C     C_R   0.029714 0.484419 0.496816 -0.040806
C9    C     C_R   0.059570 0.478647 0.419449 -0.074387
C10   C     C_R   0.030327 0.496796 0.649326 -0.169982
C11   C     C_R   0.971258 0.499754 0.651411 0.197733
C12   C     C_R   0.939854 0.494465 0.575156 -0.073739
C13   C     C_R   0.969668 0.484972 0.498072 -0.041206
C14   C     C_R   0.939542 0.476183 0.421967 -0.043638
C15   C     C_R   0.969029 0.468152 0.345941 -0.170015
C16   C     C_R   0.028137 0.469815 0.343487 0.197549
C17   C     C_R   0.879965 0.498308 0.572045 0.546142
N2    N     N_R   0.851767 0.486281 0.497451 -0.478718
C18   C     C_R   0.880176 0.475108 0.423346 0.566439
O9    O     O_2   0.149980 0.484329 0.350527 -0.472494
O10   O     O_2   0.148340 0.489578 0.645305 -0.510368
H1    H     H_    0.053332 0.500487 0.708306 0.212688
O11   O     O_2   0.849609 0.514624 0.642099 -0.478921
O12   O     O_2   0.850884 0.462934 0.351122 -0.500856
H2    H     H_    0.946010 0.460879 0.287258 0.212862
C19   C     C_R   0.762844 0.559978 0.456514 -0.085112
H3    H     H_    0.787487 0.611992 0.425090 0.178742
C20   C     C_R   0.703789 0.564567 0.454504 0.138034
C21   C     C_R   0.671655 0.497888 0.496696 -0.137229
C22   C     C_R   0.699612 0.424762 0.535919 -0.188956
H4    H     H_    0.674875 0.372273 0.566637 0.206575
C23   C     C_R   0.758929 0.417938 0.535155 0.007471
C24   C     C_R   0.790749 0.487787 0.496681 0.213377
C25   C     C_R   0.235393 0.567480 0.526265 -0.032490
H5    H     H_    0.209193 0.624105 0.546419 0.192782
C26   C     C_R   0.294627 0.573232 0.532069 -0.069227
C27   C     C_R   0.327889 0.498577 0.503910 -0.166170
C28   C     C_R   0.300544 0.418847 0.475949 -0.136153
H6    H     H_    0.325678 0.361098 0.455562 0.215782
C29   C     C_R   0.241290 0.411866 0.474555 0.000897
C30   C     C_R   0.208603 0.487916 0.498505 0.210212
C31   C     C_3   0.505441 0.401553 0.950553 -0.385724
C32   C     C_3   0.444281 0.541280 0.950570 -0.392798
C33   C     C_3   0.444747 0.544222 0.047952 0.017822
C34   C     C_3   0.508483 0.401290 0.047857 0.021253
H7    H     H_    0.468320 0.361122 0.928662 0.217923
H8    H     H_    0.407901 0.499826 0.927612 0.213912
H9    H     H_    0.438437 0.611466 0.925433 0.187543
H10   H     H_    0.544133 0.368413 0.924460 0.188519
H11   H     H_    0.443091 0.616808 0.067158 0.172219
H12   H     H_    0.551138 0.375948 0.065885 0.170753
C35   C     C_1   0.500297 0.499949 0.250590 -0.066514
C36   C     C_3   0.500453 0.500318 0.917346 0.138282
C37   C     C_3   0.500737 0.500413 0.083177 0.058530
C38   C     C_3   0.551843 0.559106 0.049390 0.208649
C39   C     C_3   0.551083 0.557492 0.951166 -0.402185
C40   C     C_1   0.500475 0.500081 0.175198 0.035796
C41   C     C_1   0.500355 0.500276 0.825268 -0.018984
C42   C     C_1   0.500239 0.500174 0.749797 -0.135062
H13   H     H_    0.591368 0.528441 0.926563 0.203330
H14   H     H_    0.548068 0.627932 0.925867 0.204937
C43   C     C_3   0.506280 0.946260 0.405591 0.218832
C44   C     C_3   0.495485 0.054170 0.405214 0.207102
C45   C     C_3   0.550454 0.944907 0.558403 0.013360
C46   C     C_3   0.556425 0.054437 0.544880 0.007099
N3    N     N_1   0.498850 0.275030 0.498610 -0.137156
N4    N     N_1   0.498850 0.724970 0.498610 -0.135151
C47   C     C_3   0.499247 0.907519 0.499893 -0.242599
C48   C     C_3   0.499061 0.092872 0.500260 -0.247098
C49   C     C_3   0.445317 0.054936 0.552114 0.178212
C50   C     C_3   0.440589 0.946299 0.539067 0.166649
C51   C     C_1   0.498724 0.195524 0.498978 0.239849
C52   C     C_1   0.498887 0.804584 0.498786 0.255336
C53   C     C_2   0.319594 0.654953 0.573032 0.452459
H15   H     H_    0.361556 0.652899 0.600783 0.094459
O13   O     O_2   0.292525 0.725643 0.578705 -0.479991
C54   C     C_2   0.213991 0.324614 0.450109 0.488090
H16   H     H_    0.168436 0.316158 0.455178 0.074148
O14   O     O_2   0.242126 0.260532 0.424392 -0.482568
I1    I     I_    0.456090 0.295345 0.100932 -0.166910
I2    I     I_    0.365470 0.496403 0.099428 -0.198227
I3    I     I_    0.633692 0.511878 0.094684 -0.230547
I4    I     I_    0.549923 0.699084 0.093593 -0.198745
I5    I     I_    0.543424 0.131747 0.311392 -0.128179
I6    I     I_    0.585268 0.906804 0.345072 -0.091206
I7    I     I_    0.936980 0.508311 0.775377 -0.123005
C55   C     C_2   0.540702 0.911384 0.648603 0.471952
H17   H     H_    0.535108 0.838738 0.658719 0.082892
O15   O     O_2   0.540281 0.959810 0.710836 -0.458956
C56   C     C_2   0.572650 0.106917 0.624365 0.548757
H18   H     H_    0.552725 0.171365 0.639467 0.055100
O16   O     O_2   0.612733 0.083015 0.668155 -0.427163
I8    I     I_    0.631082 0.870770 0.548079 -0.147967
I9    I     I_    0.633517 0.095521 0.477477 -0.130658
I10   I     I_    0.365288 0.904456 0.469568 -0.091955
I11   I     I_    0.366197 0.131439 0.535435 -0.121494
I12   I     I_    0.410454 0.871317 0.649710 -0.186694
I13   I     I_    0.444720 0.099010 0.683605 -0.179071
I14   I     I_    0.460705 0.868584 0.308875 -0.123914
I15   I     I_    0.418571 0.093450 0.337958 -0.097159
I16   I     I_    0.062449 0.454411 0.220113 -0.116004
I17   I     I_    0.667556 0.667529 0.377642 -0.158986
C57   C     C_2   0.787128 0.336955 0.572426 0.489455
H19   H     H_    0.832571 0.327492 0.566493 0.072433
O17   O     O_2   0.759845 0.279106 0.609808 -0.488022

loop_
_geom_bond_atom_site_label_1
_geom_bond_atom_site_label_2
_geom_bond_distance
_ccdc_geom_bond_type
C49   I11   2.192087 S    
C56   H18   1.083056 S    
C7    C10   1.399729 A    
C43   C44   1.604643 S    
C8    C9    1.420410 A    
C45   C46   1.629091 S    
C57   H19   1.084311 S    
Cu1   Cu2   2.640757 S    
C25   H5    1.083858 S    
Cu1   O7    1.946661 S    
C15   C16   1.394161 A    
C19   H3    1.083035 S    
C18   O12   1.350048 S    
C26   C53   1.485986 S    
C17   N2    1.369232 A    
C7    C8    1.406964 A    
C48   C51   1.507520 S    
C23   C57   1.484963 S    
C47   C52   1.511616 S    
O7    C4    1.287150 A    
C10   H1    1.083222 S    
N3    C51   1.167480 T    
C34   C37   1.570102 S    
C55   H17   1.087124 S    
C14   C18   1.399705 A    
C39   H14   1.112260 S    
C22   H4    1.084032 S    
O5    C3    1.279558 A    
C35   C40   1.198163 T    
C34   I1    2.160402 S    
N1    C6    1.365599 A    
C20   I17   2.122336 S    
C12   C13   1.420263 A    
C50   I12   2.195272 S    
N2    C18   1.365673 A    
C39   H13   1.112250 S    
Cu1   N3    1.983415 S    
C25   C26   1.401703 A    
C38   C39   1.561229 S    
C17   O11   1.345872 S    
C56   O16   1.223635 D    
C11   I7    2.134466 S    
C44   C48   1.615392 S    
C10   C11   1.393468 A    
Cu2   N4    1.983411 S    
C22   C23   1.401786 A    
O3    Cu1   1.946504 S    
C33   C37   1.570092 S    
C31   H10   1.113991 S    
C49   C50   1.612362 S    
C32   H9    1.114026 S    
C53   O13   1.221309 D    
C5    C9    1.414513 A    
C29   C30   1.408691 A    
C36   C39   1.554407 S    
N1    C30   1.438447 S    
C43   I14   2.192984 S    
C1    C42   1.423350 S    
C13   C14   1.407110 A    
O3    C2    1.283821 A    
C20   C21   1.409520 A    
C31   H7    1.112812 S    
C4    C27   1.480604 S    
C25   C30   1.399109 A    
C28   C29   1.400701 A    
C14   C15   1.399971 A    
C53   H15   1.082565 S    
C45   C55   1.533961 S    
O1    C1    1.280830 A    
C23   C24   1.411712 A    
C33   I2    2.159690 S    
C47   C50   1.620235 S    
C26   C27   1.419758 A    
C3    C35   1.420579 S    
Cu2   O8    1.947024 S    
C37   C40   1.462462 S    
C6    C7    1.398774 A    
C43   C47   1.612459 S    
C36   C41   1.463313 S    
C38   I3    2.171207 S    
C15   H2    1.083214 S    
C21   C22   1.405061 A    
C54   O14   1.221299 D    
C16   I16   2.134246 S    
C37   C38   1.577264 S    
C55   O15   1.217585 D    
N2    C24   1.438475 S    
C45   I8    2.195759 S    
C34   H12   1.108996 S    
C12   C17   1.413545 A    
C44   I15   2.180225 S    
C32   H8    1.112745 S    
C31   C34   1.547888 S    
C46   C56   1.527203 S    
Cu1   O5    1.927517 S    
C32   C33   1.548202 S    
C27   C28   1.408072 A    
O1    Cu1   1.926526 S    
C44   I5    2.193283 S    
O2    Cu2   1.926933 S    
C46   C48   1.626404 S    
C49   I13   2.187057 S    
C48   C49   1.612704 S    
O6    C3    1.279239 A    
C29   C54   1.485228 S    
O4    Cu2   1.946142 S    
C57   O17   1.221346 D    
C5    O9    1.345770 S    
C9    C16   1.421000 A    
C38   I4    2.171955 S    
C19   C24   1.400789 A    
C8    C13   1.415599 A    
O8    C4    1.287440 A    
C19   C20   1.393910 A    
O4    C2    1.287279 A    
C32   C36   1.547453 S    
C33   H11   1.109072 S    
C31   C36   1.548091 S    
O2    C1    1.280709 A    
C2    C21   1.470992 S    
C50   I10   2.177231 S    
C41   C42   1.199403 T    
N4    C52   1.169047 T    
C54   H16   1.084246 S    
Cu2   O6    1.927108 S    
C28   H6    1.083697 S    
C6    O10   1.350211 S    
C11   C12   1.420827 A    
C43   I6    2.175274 S    
C45   C47   1.618140 S    
C46   I9    2.196590 S    
C5    N1    1.369147 A    
