data_mof_unit_40606.cif
_audit_creation_date              2012-12-10T17:48:39-0500
_audit_creation_method            fapswitch 2.2
_symmetry_space_group_name_H-M    P1
_symmetry_Int_Tables_number       1
_space_group_crystal_system       triclinic
_cell_length_a                    15.751614
_cell_length_b                    10.669333
_cell_length_c                    9.946336
_cell_angle_alpha                 91.40319
_cell_angle_beta                  89.945779
_cell_angle_gamma                 89.839471
_cell_volume                      1671.06474261

loop_
_atom_site_label
_atom_site_type_symbol
_atom_type_description
_atom_site_fract_x
_atom_site_fract_y
_atom_site_fract_z
_atom_type_partial_charge
C1    C     C_R   0.489484 0.261331 0.499046 0.933084
C2    C     C_R   0.433545 0.068448 0.861355 -0.120212
C3    C     C_R   0.484748 0.962971 0.873654 -0.166854
C4    C     C_R   0.338604 0.500278 0.500045 0.981179
C5    C     C_R   0.515017 0.900371 0.758461 -0.089768
C6    C     C_R   0.495908 0.945236 0.628991 0.066885
C7    C     C_R   0.461892 0.065891 0.620141 0.008194
C8    C     C_R   0.474700 0.128465 0.497980 -0.064628
C9    C     C_R   0.494136 0.061872 0.379504 -0.129178
C10   C     C_R   0.507647 0.935435 0.383379 -0.186267
C11   C     C_R   0.508336 0.875630 0.506994 -0.099538
C12   C     C_3   0.949742 0.370703 0.569446 0.626842
C13   C     C_R   0.350693 0.431161 0.119693 0.368823
C14   C     C_R   0.273687 0.463813 0.060588 -0.250765
C15   C     C_R   0.273313 0.543830 0.951819 0.339226
C16   C     C_R   0.505580 0.740503 0.502173 0.891982
C17   C     C_R   0.349906 0.569288 0.884689 0.348846
C18   C     C_R   0.425845 0.514546 0.931848 -0.032613
C19   C     C_R   0.426300 0.481649 0.068693 0.023902
C20   C     C_R   0.573445 0.502501 0.072711 -0.141681
C21   C     C_R   0.573929 0.492623 0.929642 0.147281
C22   C     C_R   0.661332 0.499414 0.499765 0.878978
C23   C     C_3   0.916610 0.496054 0.502684 -0.207046
C24   C     C_3   0.050989 0.371171 0.570856 0.236281
C25   C     C_3   0.048872 0.496782 0.354295 0.181077
C26   C     C_3   0.950842 0.502257 0.354194 0.126732
C27   C     C_1   0.749875 0.497583 0.499127 -0.108641
C28   C     C_3   0.083053 0.495823 0.502411 -0.246312
C29   C     C_3   0.949964 0.619796 0.581578 0.045116
C30   C     C_3   0.049765 0.613988 0.583604 0.220439
C31   C     C_1   0.824994 0.496316 0.499442 0.113596
C32   C     C_1   0.174809 0.497355 0.500285 0.171975
C33   C     C_1   0.249975 0.498844 0.499899 -0.014266
C34   C     C_R   0.420718 0.119821 0.735136 0.424971
Cl1   Cl    Cl    0.906833 0.233148 0.484653 -0.345100
Cl2   Cl    Cl    0.101756 0.758867 0.541812 -0.352199
Cl3   Cl    Cl    0.903856 0.349446 0.733895 -0.541742
Cl4   Cl    Cl    0.341604 0.236165 0.722715 -0.576967
Cl5   Cl    Cl    0.095513 0.236534 0.480095 -0.372995
Cl6   Cl    Cl    0.351507 0.293588 0.213455 -0.556986
Cl7   Cl    Cl    0.176873 0.612446 0.904582 -0.483574
Cl8   Cl    Cl    0.353006 0.704519 0.786953 -0.491853
Cl9   Cl    Cl    0.091910 0.619716 0.254534 -0.460531
Cl10  Cl    Cl    0.907330 0.391320 0.234057 -0.450946
H1    H     H_    0.501681 0.107660 0.284182 0.193172
H2    H     H_    0.071689 0.606145 0.687958 0.170580
H3    H     H_    0.061301 0.428647 0.775020 0.210213
H4    H     H_    0.150083 0.362594 0.710160 0.250963
H5    H     H_    0.855523 0.734155 0.500215 0.182344
H6    H     H_    0.951441 0.752461 0.425523 0.260223
H7    H     H_    0.691277 0.557069 0.890298 0.178867
H8    H     H_    0.683604 0.399257 0.896944 0.220126
H9    H     H_    0.951149 0.575279 0.788463 0.238247
H10   H     H_    0.853309 0.610954 0.726564 0.220353
H11   H     H_    0.403908 0.110347 0.949938 0.204672
H12   H     H_    0.497760 0.926201 0.972050 0.162927
H13   H     H_    0.554655 0.819056 0.772922 0.166946
H14   H     H_    0.519030 0.885093 0.289088 0.173671
H15   H     H_    0.632934 0.506022 0.126796 0.169948
H16   H     H_    0.214498 0.429486 0.100969 0.244393
H17   H     H_    0.069857 0.409788 0.300442 0.225623
H18   H     H_    0.929393 0.590570 0.309271 0.172781
N1    N     N_R   0.499210 0.498800 0.142780 -0.098402
N2    N     N_R   0.499180 0.498720 0.857170 -0.078140
N3    N     N_3   0.083783 0.359041 0.709000 -0.322460
N4    N     N_3   0.921047 0.735496 0.516427 -0.314087
N5    N     N_3   0.653677 0.480031 0.862704 -0.379485
N6    N     N_3   0.918149 0.630524 0.721043 -0.364971
O1    O     O_R   0.500000 0.316780 0.614690 -0.603142
O2    O     O_R   0.499990 0.316750 0.385360 -0.582755
O3    O     O_R   0.377150 0.500020 0.614720 -0.568048
O4    O     O_R   0.377140 0.499990 0.385380 -0.592455
O5    O     O_R   0.500010 0.683250 0.614640 -0.594872
O6    O     O_R   0.500000 0.683220 0.385310 -0.621707
O7    O     O_R   0.622860 0.500010 0.614620 -0.596390
O8    O     O_R   0.622850 0.499980 0.385280 -0.623430
Zn1   Zn    Zn3+2 0.500010 0.500020 0.653130 1.033956
Zn2   Zn    Zn3+2 0.499990 0.499980 0.346870 1.015596

loop_
_geom_bond_atom_site_label_1
_geom_bond_atom_site_label_2
_ccdc_geom_bond_type
C9    H1    S    
O2    Zn2   S    
C1    C8    S    
N2    Zn1   S    
O1    Zn1   S    
C22   O8    A    
C25   Cl9   S    
C26   Cl10  S    
C7    C8    A    
C25   C28   S    
C12   C23   S    
C16   O6    A    
C23   C29   S    
C10   H14   S    
O8    Zn2   S    
C2    H11   S    
C5    C6    A    
H10   N6    S    
C24   Cl5   S    
C18   C19   A    
C3    H12   S    
C23   C26   S    
C12   Cl3   S    
H9    N6    S    
C17   Cl8   S    
C21   N2    A    
O4    Zn2   S    
C19   N1    A    
C8    C9    A    
C13   Cl6   S    
H4    N3    S    
C9    C10   A    
C2    C34   A    
C13   C14   A    
C21   N5    S    
C22   O7    A    
H5    N4    S    
C13   C19   A    
C27   C31   T    
C16   O5    A    
C28   C32   S    
C15   Cl7   S    
C6    C11   A    
H7    N5    S    
C25   C26   S    
C1    O1    A    
C20   H15   S    
C23   C31   S    
C29   C30   S    
C29   N6    S    
H6    N4    S    
C11   C16   S    
C17   C18   A    
C25   H17   S    
C12   Cl1   S    
O7    Zn1   S    
H8    N5    S    
C24   N3    S    
C22   C27   S    
C7    C34   A    
C4    O4    A    
C15   C17   A    
C4    C33   S    
C34   Cl4   S    
C30   H2    S    
C24   C28   S    
C3    C5    A    
C6    C7    A    
C5    H13   S    
C14   H16   S    
C12   C24   S    
C1    O2    A    
C30   Cl2   S    
C32   C33   T    
C20   N1    A    
C28   C30   S    
C2    C3    A    
C26   H18   S    
C18   N2    A    
O3    Zn1   S    
C10   C11   A    
C29   N4    S    
C20   C21   A    
O6    Zn2   S    
O5    Zn1   S    
C14   C15   A    
H3    N3    S    
C4    O3    A    
N1    Zn2   S    
