data_mof_unit_12081.cif
_audit_creation_date              2012-12-10T17:07:46-0500
_audit_creation_method            fapswitch 2.2
_symmetry_space_group_name_H-M    P1
_symmetry_Int_Tables_number       1
_space_group_crystal_system       triclinic
_cell_length_a                    10.649351
_cell_length_b                    10.63237
_cell_length_c                    10.186208
_cell_angle_alpha                 92.043723
_cell_angle_beta                  89.623773
_cell_angle_gamma                 91.948608
_cell_volume                      1151.94559955

loop_
_atom_site_label
_atom_site_type_symbol
_atom_type_description
_atom_site_fract_x
_atom_site_fract_y
_atom_site_fract_z
_atom_type_partial_charge
C1    C     C_R   0.501086 0.262839 0.497623 0.951654
C2    C     C_3   0.878348 0.499623 0.495587 -0.089724
C3    C     C_3   0.929691 0.618955 0.574081 0.286965
C4    C     C_3   0.926944 0.499527 0.349580 0.296928
C5    C     C_2   0.563539 0.931060 0.399358 -0.283961
C6    C     C_2   0.536913 0.869239 0.508386 -0.398610
C7    C     C_2   0.577444 0.068350 0.405712 0.556674
C8    C     C_2   0.502308 0.129505 0.490918 -0.424901
C9    C     C_2   0.576731 0.570590 0.926500 0.683804
C10   C     C_2   0.555866 0.584940 0.075235 -0.061839
C11   C     C_R   0.258320 0.502258 0.499588 0.920078
C12   C     C_R   0.508081 0.737264 0.502173 0.968230
C13   C     C_R   0.741583 0.498781 0.499066 0.950587
C14   C     C_3   0.068633 0.381115 0.562863 0.299101
C15   C     C_3   0.923727 0.380593 0.562040 -0.539001
C16   C     C_3   0.074694 0.619515 0.574512 -0.589429
C17   C     C_3   0.072102 0.503237 0.350576 0.326969
C18   C     C_3   0.121378 0.502534 0.496255 -0.098932
H1    H     H_    0.100569 0.385403 0.667402 0.102437
H2    H     H_    0.116029 0.707378 0.534084 0.221899
H3    H     H_    0.437866 0.081715 0.557154 0.100797
H4    H     H_    0.589532 0.670741 0.125808 0.065856
H5    H     H_    0.107292 0.618195 0.678094 0.173591
H6    H     H_    0.099775 0.411191 0.305651 0.172701
N1    N     N_2   0.501360 0.501330 0.852150 0.062133
N2    N     N_2   0.501390 0.501360 0.147810 0.087318
O1    O     O_R   0.499980 0.319060 0.613040 -0.667265
O2    O     O_R   0.500020 0.319100 0.386900 -0.563918
O3    O     O_R   0.314770 0.499960 0.613070 -0.641867
O4    O     O_R   0.314820 0.500000 0.386930 -0.602585
O5    O     O_R   0.499980 0.680900 0.613100 -0.600543
O6    O     O_R   0.500020 0.680940 0.386960 -0.626902
O7    O     O_R   0.685180 0.500000 0.613070 -0.607492
O8    O     O_R   0.685230 0.500040 0.386930 -0.590400
Zn1   Zn    Zn3+2 0.499970 0.499970 0.650990 0.999056
Zn2   Zn    Zn3+2 0.500030 0.500030 0.349010 1.024732
H7    H     H_    0.887596 0.583658 0.305420 0.119445
O9    O     O_3   0.886392 0.728986 0.516210 -0.630035
C19   C     C_3   0.869244 0.825901 0.612105 -0.361091
H8    H     H_    0.952505 0.840363 0.677106 0.154117
H9    H     H_    0.783039 0.805611 0.670621 0.215455
H10   H     H_    0.855759 0.915169 0.561886 0.185509
H11   H     H_    0.569769 0.882326 0.304113 0.178980
H12   H     H_    0.540543 0.915799 0.605101 0.150916
O10   O     O_3   0.654829 0.135942 0.319906 -0.561225
C20   C     C_3   0.760164 0.067253 0.279025 -0.257987
H13   H     H_    0.733295 0.993834 0.203099 0.135293
H14   H     H_    0.807699 0.025385 0.363207 0.152621
H15   H     H_    0.829559 0.132487 0.233464 0.216921
O11   O     O_3   0.678067 0.629404 0.862282 -0.619925
C21   C     C_3   0.754871 0.707762 0.945226 -0.490881
H16   H     H_    0.793413 0.655528 0.027436 0.158329
H17   H     H_    0.703441 0.791565 0.981233 0.177921
H18   H     H_    0.836838 0.742512 0.887836 0.198898
O12   O     O_3   0.384286 0.478760 0.898908 -0.550350
C22   C     C_3   0.345103 0.356094 0.853089 -0.089684
H19   H     H_    0.415858 0.284927 0.874041 0.154326
H20   H     H_    0.323411 0.347006 0.749339 0.184582
H21   H     H_    0.254605 0.329727 0.900713 0.077752
O13   O     O_3   0.112396 0.272264 0.494077 -0.609760
C23   C     C_3   0.114652 0.169105 0.577424 -0.362755
H22   H     H_    0.021870 0.150799 0.625124 0.162481
H23   H     H_    0.188975 0.184066 0.652847 0.140543
H24   H     H_    0.137483 0.083667 0.517482 0.197228
O14   O     O_3   0.482477 0.384415 0.095046 -0.527193
C24   C     C_3   0.361672 0.340995 0.137047 0.009352
H25   H     H_    0.287834 0.408109 0.113542 0.163175
H26   H     H_    0.352212 0.323485 0.240931 0.178001
H27   H     H_    0.339377 0.248078 0.088411 0.073409
H28   H     H_    0.884559 0.294315 0.509892 0.254663
H29   H     H_    0.888563 0.377831 0.665130 0.150757
H30   H     H_    0.896183 0.611343 0.677988 0.151731
O15   O     O_3   0.136917 0.592673 0.269771 -0.606708
C25   C     C_3   0.077924 0.706933 0.249270 -0.340369
H31   H     H_    0.035913 0.748429 0.339101 0.213204
H32   H     H_    0.007828 0.694420 0.169253 0.148377
H33   H     H_    0.150354 0.776123 0.215575 0.196302
O16   O     O_3   0.882825 0.387316 0.281753 -0.594383
C26   C     C_3   0.871212 0.406938 0.146134 -0.279080
H34   H     H_    0.956742 0.453835 0.104356 0.146602
H35   H     H_    0.787004 0.462160 0.128115 0.187077
H36   H     H_    0.857606 0.314388 0.093674 0.183317

loop_
_geom_bond_atom_site_label_1
_geom_bond_atom_site_label_2
_ccdc_geom_bond_type
C24   H26   S    
O12   C22   S    
C11   C18   S    
C1    C8    S    
O15   C25   S    
C14   C18   S    
C9    N1    D    
C7    C8    D    
C19   H9    S    
O10   C20   S    
C10   H4    S    
C4    O16   S    
C20   H15   S    
C25   H32   S    
O6    Zn2   S    
C6    C12   S    
C5    C6    D    
C24   H27   S    
C22   H19   S    
C23   H23   S    
C2    C13   S    
C3    O9    S    
C25   H33   S    
C1    O2    A    
C9    C10   S    
C10   N2    D    
C24   H25   S    
C5    H11   S    
C6    H12   S    
C12   O6    A    
C17   O15   S    
O11   C21   S    
C19   H10   S    
C20   H14   S    
C17   H6    S    
C25   H31   S    
C21   H16   S    
C11   O4    A    
C19   H8    S    
C5    C7    S    
O16   C26   S    
O1    Zn1   S    
O13   C23   S    
C21   H17   S    
C23   H24   S    
C2    C4    S    
C13   O7    A    
C16   H2    S    
C17   C18   S    
C2    C15   S    
O2    Zn2   S    
N1    Zn1   S    
C4    C17   S    
N2    Zn2   S    
C16   H5    S    
C12   O5    A    
O5    Zn1   S    
C7    O10   S    
C15   H29   S    
C26   H35   S    
C15   H28   S    
C20   H13   S    
N2    O14   S    
C14   H1    S    
C9    O11   S    
N1    O12   S    
C8    H3    S    
C26   H36   S    
C14   O13   S    
O3    Zn1   S    
C22   H21   S    
O4    Zn2   S    
C21   H18   S    
C3    H30   S    
C13   O8    A    
O9    C19   S    
O7    Zn1   S    
C22   H20   S    
C2    C3    S    
O8    Zn2   S    
C23   H22   S    
C26   H34   S    
C4    H7    S    
C11   O3    A    
C16   C18   S    
O14   C24   S    
C1    O1    A    
C14   C15   S    
C3    C16   S    
