data_mof_unit_36484.cif
_audit_creation_date              2012-10-26T20:43:29-0400
_audit_creation_method            fapswitch 2.2
_symmetry_space_group_name_H-M    P1
_symmetry_Int_Tables_number       1
_space_group_crystal_system       triclinic
_cell_length_a                    10.826058
_cell_length_b                    9.665029
_cell_length_c                    23.561125
_cell_angle_alpha                 90.037099
_cell_angle_beta                  92.144454
_cell_angle_gamma                 90.093924
_cell_volume                      2463.56815817

loop_
_atom_site_label
_atom_site_type_symbol
_atom_type_description
_atom_site_fract_x
_atom_site_fract_y
_atom_site_fract_z
_atom_type_partial_charge
C1    C     C_R   0.262556 0.499928 0.500538 0.615754
C2    C     C_R   0.586024 0.427000 0.704065 0.012931
C3    C     C_R   0.409066 0.425616 0.237717 0.086905
C4    C     C_R   0.561449 0.400118 0.761515 0.081926
C5    C     C_R   0.499359 0.502945 0.209302 0.164680
C6    C     C_R   0.488706 0.497187 0.790488 0.150212
C7    C     C_R   0.063389 0.374745 0.497283 -0.096065
C8    C     C_R   0.936664 0.625535 0.503105 -0.086068
C9    C     C_R   0.935638 0.375065 0.495808 -0.103377
C10   C     C_R   0.064453 0.625265 0.504393 -0.093317
C11   C     C_R   0.871568 0.500290 0.499482 0.064384
C12   C     C_R   0.737491 0.500091 0.499892 0.626259
C13   C     C_R   0.128504 0.499914 0.500972 0.055128
C14   C     C_R   0.432997 0.073256 0.459677 0.120146
C15   C     C_R   0.566500 0.925863 0.540557 0.126004
C16   C     C_R   0.567583 0.073586 0.540113 0.123709
C17   C     C_R   0.433451 0.925483 0.459428 0.128142
C18   C     C_R   0.499083 0.500581 0.391359 0.617434
C19   C     C_R   0.498960 0.500700 0.608665 0.613350
C20   C     C_R   0.601723 0.509751 0.881737 0.454074
C21   C     C_R   0.391803 0.543070 0.117989 0.448693
C22   C     C_R   0.380862 0.508728 0.879614 0.429456
C23   C     C_R   0.587434 0.579070 0.241318 -0.068087
C24   C     C_R   0.606697 0.486416 0.120194 0.432352
C25   C     C_R   0.381269 0.522002 0.938937 0.034054
C26   C     C_R   0.608682 0.496655 0.060841 0.035372
C27   C     C_R   0.494662 0.515566 0.969940 -0.025837
C28   C     C_R   0.496719 0.517065 0.029810 -0.024656
C29   C     C_R   0.605920 0.506572 0.941265 0.040860
C30   C     C_R   0.386694 0.537872 0.058468 0.039123
C31   C     C_R   0.271309 0.539760 0.967961 -0.110943
C32   C     C_R   0.719251 0.484785 0.031814 -0.110209
C33   C     C_R   0.274382 0.551150 0.027076 -0.110052
C34   C     C_R   0.418987 0.594153 0.758794 -0.084055
C35   C     C_R   0.718218 0.493208 0.972655 -0.109221
C36   C     C_2   0.703642 0.633512 0.330776 0.610125
C37   C     C_2   0.317664 0.674629 0.669154 0.628323
C38   C     C_2   0.268826 0.448259 0.319967 0.599902
C39   C     C_2   0.714467 0.406648 0.683837 0.630460
C40   C     C_2   0.339966 0.310508 0.207750 0.653704
C41   C     C_2   0.598137 0.264883 0.788260 0.672895
C42   C     C_2   0.360257 0.142899 0.414360 0.649347
C43   C     C_2   0.636717 0.853830 0.586613 0.638866
C44   C     C_2   0.645964 0.143500 0.583484 0.647269
C45   C     C_R   0.594666 0.570039 0.300497 0.021269
C46   C     C_2   0.360355 0.852955 0.414262 0.636331
C47   C     C_R   0.412755 0.588762 0.699486 0.004238
C48   C     C_R   0.497842 0.503455 0.328837 -0.028822
C49   C     C_R   0.497755 0.503715 0.671250 -0.053260
C50   C     C_R   0.395336 0.449988 0.296433 -0.021486
Cu1   Cu    Cu3+1 0.500000 0.640660 0.500000 1.113555
Cu2   Cu    Cu3+1 0.500000 0.359340 0.500000 1.102758
H1    H     H_    0.182860 0.546608 0.945097 0.177102
H2    H     H_    0.363450 0.668833 0.780713 0.202111
H3    H     H_    0.835404 0.781548 0.331560 0.356070
H4    H     H_    0.217835 0.850803 0.667644 0.355899
H5    H     H_    0.085159 0.470967 0.304541 0.361399
H6    H     H_    0.891016 0.350552 0.702596 0.350059
H7    H     H_    0.327620 0.180891 0.140414 0.355077
H8    H     H_    0.593735 0.137685 0.856186 0.350397
H9    H     H_    0.341561 0.176093 0.330214 0.366003
H10   H     H_    0.645411 0.798476 0.669199 0.353052
H11   H     H_    0.819016 0.202851 0.607268 0.359277
H12   H     H_    0.806950 0.470606 0.054700 0.178676
H13   H     H_    0.198487 0.764582 0.389509 0.351186
H14   H     H_    0.188194 0.566271 0.048136 0.176000
H15   H     H_    0.805150 0.485216 0.951588 0.176412
H16   H     H_    0.110571 0.276456 0.495487 0.191588
H17   H     H_    0.889432 0.723832 0.504872 0.190699
H18   H     H_    0.887539 0.277259 0.491484 0.191744
H19   H     H_    0.112619 0.723189 0.508294 0.194718
H20   H     H_    0.655258 0.639672 0.219511 0.201482
N1    N     N_R   0.490237 0.504038 0.851854 -0.367505
N2    N     N_R   0.499307 0.510473 0.147940 -0.369754
N3    N     N_R   0.500000 0.852070 0.500000 -0.313195
N4    N     N_R   0.500000 0.147930 0.500000 -0.317361
O1    O     O_R   0.319640 0.618740 0.500000 -0.473732
O2    O     O_2   0.289712 0.578679 0.145703 -0.449030
O3    O     O_2   0.271954 0.498886 0.850109 -0.470998
O4    O     O_2   0.710949 0.450613 0.149735 -0.465963
O5    O     O_2   0.745538 0.583156 0.374953 -0.528972
O6    O     O_R   0.761524 0.748625 0.307463 -0.657313
O7    O     O_2   0.265575 0.632277 0.625608 -0.519134
O8    O     O_R   0.284155 0.802414 0.691765 -0.650891
O9    O     O_2   0.254444 0.435894 0.370838 -0.499795
O10   O     O_R   0.165498 0.471153 0.283747 -0.605230
O11   O     O_2   0.741652 0.444359 0.636377 -0.521371
O12   O     O_R   0.680360 0.381260 0.500000 -0.487207
O13   O     O_R   0.807786 0.355896 0.720831 -0.616037
O14   O     O_2   0.252776 0.253567 0.229593 -0.459054
O15   O     O_R   0.380360 0.260036 0.155968 -0.669453
O16   O     O_2   0.648350 0.175981 0.760285 -0.415542
O17   O     O_R   0.566096 0.233520 0.843750 -0.673506
O18   O     O_2   0.254693 0.179640 0.422665 -0.483123
O19   O     O_R   0.406465 0.147351 0.359836 -0.648999
O20   O     O_2   0.740138 0.809627 0.578622 -0.505645
O21   O     O_R   0.588206 0.847435 0.640717 -0.637397
O22   O     O_2   0.608069 0.157748 0.631303 -0.450609
O23   O     O_R   0.680360 0.618740 0.500000 -0.476133
O24   O     O_R   0.769088 0.171923 0.572317 -0.693911
O25   O     O_2   0.402006 0.841391 0.366952 -0.464223
O26   O     O_R   0.239825 0.810321 0.424009 -0.695318
O27   O     O_R   0.319640 0.381260 0.500000 -0.488882
O28   O     O_R   0.499960 0.618810 0.417880 -0.474598
O29   O     O_R   0.500040 0.381190 0.582120 -0.476891
O30   O     O_R   0.500040 0.618810 0.582120 -0.471394
O31   O     O_R   0.499960 0.381190 0.417880 -0.467606
O32   O     O_2   0.708329 0.516679 0.853947 -0.457720

loop_
_geom_bond_atom_site_label_1
_geom_bond_atom_site_label_2
_ccdc_geom_bond_type
C25   C31   A    
C15   N3    A    
Cu2   O27   S    
C26   C32   A    
C23   C45   A    
C27   C29   A    
C1    O1    A    
C39   O11   D    
C47   C49   A    
C46   O26   S    
C8    H17   S    
C38   O10   S    
Cu1   N3    S    
C22   O3    S    
C8    C11   A    
C4    C41   S    
C15   C16   A    
H5    O10   S    
C5    N2    S    
C18   O31   A    
C12   O23   A    
C7    H16   S    
C44   O22   D    
C2    C39   S    
C24   O4    S    
C41   O17   S    
Cu2   O31   S    
C36   O6    S    
C22   C25   A    
C21   O2    S    
C31   C33   A    
C37   O8    S    
C37   C47   S    
C16   C44   S    
C14   C42   S    
H8    O17   S    
C48   C50   A    
C16   N4    A    
C14   C17   A    
H13   O26   S    
C3    C50   A    
C33   H14   S    
H4    O8    S    
C20   C29   A    
Cu1   O23   S    
C46   O25   D    
C12   O12   A    
C38   O9    D    
Cu1   Cu2   S    
C32   C35   A    
Cu2   O12   S    
C17   C46   S    
C32   H12   S    
C4    C6    A    
C18   O28   A    
Cu2   N4    S    
Cu1   O28   S    
C21   N2    A    
C31   H1    S    
C42   O19   S    
C14   N4    A    
C2    C4    A    
Cu1   O1    S    
H11   O24   S    
C2    C49   A    
H10   O21   S    
C19   C49   S    
C5    C23   A    
C35   H15   S    
C36   O5    D    
C43   O20   D    
C36   C45   S    
H7    O15   S    
C9    H18   S    
H3    O6    S    
C9    C11   A    
C19   O29   A    
Cu2   O29   S    
C34   H2    S    
C1    C13   S    
C6    N1    S    
C45   C48   A    
C7    C9    A    
C1    O27   A    
C30   C33   A    
C42   O18   D    
C23   H20   S    
C43   O21   S    
C24   C26   A    
C3    C5    A    
C10   C13   A    
C18   C48   S    
C3    C40   S    
C11   C12   S    
H9    O19   S    
C38   C50   S    
C25   C27   A    
C21   C30   A    
C29   C35   A    
C26   C28   A    
C28   C30   A    
C15   C43   S    
C10   H19   S    
C44   O24   S    
C24   N2    A    
Cu1   O30   S    
C20   N1    A    
C40   O15   S    
H6    O13   S    
C19   O30   A    
C6    C34   A    
C7    C13   A    
C41   O16   D    
C8    C10   A    
C27   C28   A    
C17   N3    A    
C37   O7    D    
C34   C47   A    
C22   N1    A    
C40   O14   D    
C39   O13   S    
C20   O32   S    
