data_mof_unit_31844.cif
_audit_creation_date              2012-12-11T16:37:22-0500
_audit_creation_method            fapswitch 2.2
_symmetry_space_group_name_H-M    P1
_symmetry_Int_Tables_number       1
_space_group_crystal_system       triclinic
_cell_length_a                    19.450442
_cell_length_b                    6.933569
_cell_length_c                    17.759303
_cell_angle_alpha                 89.999566
_cell_angle_beta                  108.9064
_cell_angle_gamma                 89.999822
_cell_volume                      2265.82280295

loop_
_atom_site_label
_atom_site_type_symbol
_atom_type_description
_atom_site_fract_x
_atom_site_fract_y
_atom_site_fract_z
_atom_type_partial_charge
O1    O     O_R   0.561710 0.369960 0.440200 -0.542430
O2    O     O_R   0.061710 0.630040 0.940200 -0.542431
O3    O     O_R   0.412630 0.033330 0.406330 -0.539035
O4    O     O_R   0.912630 0.966670 0.906330 -0.539036
O5    O     O_R   0.438290 0.869790 0.559800 -0.533398
O6    O     O_R   0.938290 0.130210 0.059800 -0.533398
C1    C     C_R   0.384309 0.203247 0.383828 0.700811
C2    C     C_R   0.884309 0.796754 0.883828 0.700811
O7    O     O_R   0.559570 0.039810 0.430640 -0.546952
O8    O     O_R   0.059570 0.960190 0.930640 -0.546951
O9    O     O_R   0.586280 0.876320 0.584290 -0.535972
O10   O     O_R   0.086280 0.123680 0.084290 -0.535972
C3    C     C_R   0.581440 0.209065 0.415978 0.691718
C4    C     C_R   0.081439 0.790934 0.915978 0.691716
O11   O     O_R   0.413720 0.363440 0.415710 -0.543215
O12   O     O_R   0.913720 0.636560 0.915710 -0.543215
O13   O     O_3   0.508590 0.205630 0.550380 -0.362185
O14   O     O_3   0.008590 0.794370 0.050380 -0.362185
V1    V     V_3+5 0.498410 0.928130 0.490650 1.422865
V2    V     V_3+5 0.998410 0.071870 0.990650 1.422864
O15   O     O_R   0.587370 0.546990 0.593670 -0.544280
O16   O     O_R   0.087370 0.453010 0.093670 -0.544280
C5    C     C_R   0.615804 0.716850 0.616089 0.693770
C6    C     C_R   0.115804 0.283149 0.116089 0.693770
O17   O     O_R   0.440430 0.540520 0.569360 -0.542711
O18   O     O_R   0.940430 0.459480 0.069360 -0.542713
C7    C     C_R   0.419818 0.709394 0.585477 0.732885
C8    C     C_R   0.919818 0.290606 0.085477 0.732884
V3    V     V_3+5 0.501590 0.428960 0.509350 1.424463
V4    V     V_3+5 0.001590 0.571040 0.009350 1.424459
O19   O     O_3   0.491410 0.701330 0.449620 -0.376688
O20   O     O_3   0.991410 0.298670 0.949620 -0.376689
C9    C     C_R   0.320281 0.900380 0.722435 -0.168134
C10   C     C_R   0.820280 0.099617 0.222435 -0.168130
H1    H     H_    0.318817 0.032510 0.754419 0.127182
H2    H     H_    0.818816 0.967484 0.254417 0.127200
C11   C     C_R   0.366218 0.890362 0.675935 -0.144923
C12   C     C_R   0.866216 0.109635 0.175932 -0.144925
H3    H     H_    0.398387 0.015670 0.672663 0.134510
H4    H     H_    0.898382 0.984323 0.172657 0.134511
C13   C     C_R   0.371449 0.719765 0.635251 -0.033690
C14   C     C_R   0.871449 0.280235 0.135251 -0.033687
C15   C     C_R   0.328721 0.560578 0.641113 -0.146492
C16   C     C_R   0.828725 0.439427 0.141118 -0.146494
H5    H     H_    0.330539 0.428142 0.609459 0.123953
H6    H     H_    0.830546 0.571867 0.109467 0.123957
C17   C     C_R   0.281580 0.572062 0.686119 -0.086047
C18   C     C_R   0.781586 0.427945 0.186127 -0.086103
H7    H     H_    0.247769 0.448714 0.687103 0.131134
H8    H     H_    0.747779 0.551298 0.187116 0.131158
C19   C     C_R   0.277525 0.741048 0.728484 0.097623
C20   C     C_R   0.777528 0.258954 0.228488 0.097580
C21   C     C_R   0.222613 0.597796 0.828450 0.306925
C22   C     C_R   0.722623 0.402201 0.328462 0.306942
C23   C     C_R   0.173294 0.611395 0.871248 -0.227202
C24   C     C_R   0.673301 0.388598 0.371257 -0.227222
H9    H     H_    0.169165 0.491908 0.908886 0.121342
H10   H     H_    0.669172 0.508079 0.408897 0.121336
C25   C     C_R   0.131752 0.778849 0.868373 -0.080184
C26   C     C_R   0.631755 0.221150 0.368377 -0.080184
C27   C     C_R   0.139711 0.933504 0.820879 -0.181106
C28   C     C_R   0.639714 0.066501 0.320881 -0.181114
H11   H     H_    0.108534 0.064592 0.817336 0.129965
H12   H     H_    0.608535 0.935416 0.317335 0.129970
C29   C     C_R   0.186921 0.919481 0.776006 -0.207792
C30   C     C_R   0.686925 0.080524 0.276011 -0.207775
H13   H     H_    0.190010 0.039589 0.738247 0.131668
H14   H     H_    0.690013 0.960421 0.238249 0.131684
C31   C     C_R   0.228722 0.752141 0.778521 0.059852
C32   C     C_R   0.728728 0.247862 0.278529 0.059881
C33   C     C_R   0.766511 0.625054 0.812080 0.065301
C34   C     C_R   0.266510 0.374946 0.312079 0.065298
C35   C     C_R   0.813919 0.782258 0.818029 -0.103796
C36   C     C_R   0.313919 0.217744 0.318029 -0.103796
C37   C     C_R   0.791449 0.925910 0.759151 -0.176531
C38   C     C_R   0.291451 0.074091 0.259152 -0.176528
H15   H     H_    0.825470 0.050347 0.761169 0.119363
H16   H     H_    0.325472 0.949655 0.261171 0.119363
C39   C     C_R   0.727214 0.903819 0.693800 -0.155190
C40   C     C_R   0.227215 0.096181 0.193801 -0.155196
H17   H     H_    0.713385 0.014013 0.648191 0.116534
H18   H     H_    0.213386 0.985987 0.148193 0.116534
C41   C     C_R   0.683471 0.737046 0.684990 -0.103846
C42   C     C_R   0.183471 0.262952 0.184990 -0.103846
C43   C     C_R   0.703372 0.602977 0.746830 0.060406
C44   C     C_R   0.203371 0.397022 0.246829 0.060406
C45   C     C_3   0.712519 0.390504 0.743319 -0.283181
C46   C     C_3   0.212517 0.609495 0.243316 -0.283178
C47   C     C_3   0.781018 0.412613 0.816393 -0.264615
C48   C     C_3   0.281017 0.587387 0.316390 -0.264616
H19   H     H_    0.724200 0.345564 0.688647 0.113987
H20   H     H_    0.224196 0.654435 0.188643 0.113986
H21   H     H_    0.832285 0.375596 0.804854 0.125607
H22   H     H_    0.332282 0.624403 0.304849 0.125605
C49   C     C_1   0.650545 0.286516 0.754992 0.392580
N1    N     N_1   0.601903 0.204705 0.763927 -0.355453
C50   C     C_1   0.150542 0.713483 0.254989 0.392580
N2    N     N_1   0.101900 0.795294 0.263925 -0.355455
C51   C     C_1   0.776096 0.328354 0.890666 0.371110
N3    N     N_1   0.771345 0.261139 0.948380 -0.374956
C52   C     C_1   0.276095 0.671649 0.390662 0.371111
N4    N     N_1   0.271345 0.738865 0.448376 -0.374960
N5    N     N_2   0.266559 0.429569 0.837336 -0.550732
H23   H     H_    0.242968 0.306756 0.850821 0.253944
C53   C     C_3   0.340617 0.453694 0.889237 -0.546070
H24   H     H_    0.371621 0.319100 0.889410 0.201655
H25   H     H_    0.341492 0.484229 0.950991 0.190221
H26   H     H_    0.367740 0.573304 0.868212 0.215452
N6    N     N_2   0.766571 0.570427 0.337357 -0.550723
H27   H     H_    0.742995 0.693217 0.350886 0.253957
C54   C     C_3   0.840645 0.546252 0.389211 -0.546189
H28   H     H_    0.871621 0.680930 0.389479 0.201635
H29   H     H_    0.867774 0.426872 0.368073 0.215505
H30   H     H_    0.841555 0.515364 0.450944 0.190266

loop_
_geom_bond_atom_site_label_1
_geom_bond_atom_site_label_2
_ccdc_geom_bond_type
C30   H14   S    
C52   N4    T    
O11   V3    S    
C23   C25   A    
C35   C37   A    
C49   N1    T    
O4    C2    A    
V1    O19   S    
C50   N2    T    
C17   H7    S    
C3    C26   S    
C4    C25   S    
C53   H25   S    
O9    V1    S    
C36   C38   A    
C47   C51   S    
C12   H4    S    
C42   C44   A    
C12   C14   A    
O3    C1    A    
N6    C54   S    
C44   C46   S    
O12   V4    S    
O13   V3    S    
C26   C28   A    
C8    C14   S    
C27   H11   S    
O7    C3    A    
C28   H12   S    
O13   V1    S    
O5    C7    A    
O7    V1    S    
O6    C8    A    
C54   H29   S    
C46   H20   S    
O8    V2    S    
C29   H13   S    
C33   C47   S    
O3    V1    S    
O14   V4    S    
C10   H2    S    
C46   C50   S    
C40   C42   A    
C18   H8    S    
C21   C31   A    
C2    O12   A    
C33   C43   A    
C11   C13   A    
C13   C15   A    
C14   C16   A    
C16   H6    S    
C48   H22   S    
C1    C36   S    
C21   C23   A    
O17   V3    S    
C53   H26   S    
C22   C24   A    
C25   C27   A    
C45   H19   S    
C28   C30   A    
C43   C45   S    
C34   C36   A    
O8    C4    A    
C39   H17   S    
C17   C19   A    
C1    O11   A    
O15   V3    S    
C9    C11   A    
C9    C19   A    
C24   C26   A    
C22   N6    S    
C45   C49   S    
O4    V2    S    
C48   C52   S    
C34   C48   S    
C7    C13   S    
C51   N3    T    
C22   C32   A    
O10   V2    S    
O1    V3    S    
N5    C53   S    
C15   H5    S    
C5    C41   S    
C40   H18   S    
C41   C43   A    
C46   C48   S    
O18   V4    S    
C23   H9    S    
O16   C6    A    
O1    C3    A    
C33   C35   A    
V2    O20   S    
O16   V4    S    
C54   H28   S    
C10   C12   A    
C10   C20   A    
C38   C40   A    
C38   H16   S    
C34   C44   A    
O5    V1    S    
O17   C7    A    
O6    V2    S    
C53   H24   S    
O10   C6    A    
O18   C8    A    
O2    V4    S    
O15   C5    A    
C6    C42   S    
V3    O19   S    
N6    H27   S    
V4    O20   S    
C30   C32   A    
C37   C39   A    
C21   N5    S    
C29   C31   A    
O9    C5    A    
C2    C35   S    
C9    H1    S    
C24   H10   S    
C54   H30   S    
O14   V2    S    
C47   H21   S    
O2    C4    A    
C20   C32   S    
C39   C41   A    
C27   C29   A    
C18   C20   A    
C11   H3    S    
C37   H15   S    
N5    H23   S    
C45   C47   S    
C19   C31   S    
C15   C17   A    
C16   C18   A    
