data_mof_unit_12964.cif
_audit_creation_date              2012-12-11T14:30:48-0500
_audit_creation_method            fapswitch 2.2
_symmetry_space_group_name_H-M    P1
_symmetry_Int_Tables_number       1
_space_group_crystal_system       triclinic
_cell_length_a                    17.218611
_cell_length_b                    24.110107
_cell_length_c                    14.835359
_cell_angle_alpha                 90.890582
_cell_angle_beta                  124.448309
_cell_angle_gamma                 88.777
_cell_volume                      5077.56230069

loop_
_atom_site_label
_atom_site_type_symbol
_atom_type_description
_atom_site_fract_x
_atom_site_fract_y
_atom_site_fract_z
_atom_type_partial_charge
C1    C     C_R   0.865249 0.656817 0.911493 0.774661
C2    C     C_R   0.972229 0.499269 0.653514 -0.506752
C3    C     C_3   0.523547 0.428338 0.196025 -0.772910
C4    C     C_3   0.842373 0.220993 0.019048 -0.443303
C5    C     C_3   0.905352 0.211071 0.143543 -0.228804
C6    C     C_3   0.005038 0.192332 0.182777 -0.638955
C7    C     C_3   0.232872 0.325497 0.873145 -0.465859
C8    C     C_3   0.233756 0.386972 0.846797 -0.294310
C9    C     C_3   0.194529 0.394639 0.726152 -0.609236
C10   C     C_3   0.512279 0.739340 0.024650 -0.319081
C11   C     C_3   0.564746 0.701521 0.125323 -0.210041
C12   C     C_3   0.668249 0.694351 0.167234 -0.760121
C13   C     C_R   0.467169 0.001194 0.296289 -0.545930
C14   C     C_3   0.686750 0.765846 0.876546 -0.435181
C15   C     C_3   0.692945 0.793790 0.788461 -0.259325
C16   C     C_3   0.626273 0.767092 0.676590 -0.629646
C17   C     C_3   0.822347 0.421362 0.296483 -0.449217
C18   C     C_3   0.873680 0.372808 0.376216 -0.227239
C19   C     C_3   0.841250 0.317321 0.317251 -0.565374
C20   C     C_3   0.776680 0.491653 0.453090 -0.414133
C21   C     C_3   0.721581 0.544750 0.394060 -0.353258
C22   C     C_3   0.636895 0.553133 0.400405 -0.591812
C23   C     C_3   0.516683 0.938197 0.495973 -0.486699
C24   C     C_R   0.416551 0.003041 0.625360 -0.584812
C25   C     C_3   0.596402 0.979570 0.564395 -0.269306
C26   C     C_3   0.686806 0.950032 0.653339 -0.769041
C27   C     C_3   0.297015 0.913335 0.418988 -0.466216
C28   C     C_3   0.212065 0.919923 0.427217 -0.199682
C29   C     C_3   0.162066 0.864795 0.405161 -0.648439
C30   C     C_3   0.687902 0.584658 0.788660 -0.303389
C31   C     C_3   0.706952 0.561088 0.895618 -0.339021
C32   C     C_3   0.684622 0.603591 0.955339 -0.829729
C33   C     C_3   0.231444 0.598928 0.356248 -0.351350
C34   C     C_3   0.315007 0.639189 0.411739 -0.064651
C35   C     C_R   0.673788 0.499445 0.685219 -0.036612
C36   C     C_3   0.281882 0.699702 0.399019 -0.800358
C37   C     C_3   0.189796 0.104689 0.711656 -0.278494
C38   C     C_3   0.158439 0.129591 0.782366 -0.325824
C39   C     C_3   0.134261 0.191164 0.759001 -0.759508
C40   C     C_3   0.828457 0.072475 0.253443 -0.298646
C41   C     C_3   0.826817 0.036654 0.165103 -0.385099
C42   C     C_3   0.891893 0.058120 0.135052 -0.799475
C43   C     C_R   0.288958 0.498877 0.372984 -0.024949
C44   C     C_R   0.173098 0.998030 0.713630 0.043583
C45   C     C_R   0.806276 0.001302 0.355205 -0.034942
C46   C     C_3   0.520267 0.462900 0.502011 0.534603
C47   C     C_3   0.457672 0.513531 0.441746 0.460183
C48   C     C_3   0.012443 0.942154 0.567183 0.622198
C49   C     C_R   0.180748 0.636509 0.090261 0.843925
C50   C     C_3   0.979292 0.970415 0.459153 0.529008
C51   C     C_3   0.449605 0.443941 0.526854 0.608901
C52   C     C_3   0.508285 0.547989 0.546654 0.415675
C53   C     C_3   0.928933 0.969043 0.563797 0.610052
C54   C     C_3   0.038444 0.021008 0.519905 0.404986
C55   C     C_3   0.386495 0.495244 0.467033 -0.542119
C56   C     C_3   0.571715 0.497236 0.607997 -0.553044
C57   C     C_3   0.897346 0.998035 0.456709 -0.565280
C58   C     C_3   0.072714 0.993362 0.629871 -0.589473
C59   C     C_3   0.438477 0.529007 0.573393 0.484493
C60   C     C_R   0.369085 0.158222 0.916319 0.714796
C61   C     C_3   0.501903 0.477869 0.633827 0.548273
C62   C     C_3   0.957018 0.048447 0.519888 0.482944
C63   C     C_3   0.989507 0.019649 0.627826 0.497872
C64   C     C_2   0.252547 0.713804 0.925757 -0.208197
C65   C     C_2   0.894608 0.794927 0.029634 -0.266365
C66   C     C_2   0.645794 0.264464 0.916238 -0.160083
C67   C     C_2   0.408138 0.285617 0.078402 -0.275523
C68   C     C_2   0.251156 0.691090 0.008350 0.771421
C69   C     C_2   0.924099 0.748514 0.003145 0.744942
C70   C     C_2   0.650041 0.239991 0.999739 0.833256
C71   C     C_R   0.646645 0.153537 0.089117 0.764572
C72   C     C_2   0.427846 0.247707 0.026049 0.736255
C73   C     C_2   0.722883 0.301363 0.949075 0.760301
C74   C     C_2   0.316186 0.288038 0.065134 0.743732
C75   C     C_2   0.346936 0.713018 0.943106 0.789657
C76   C     C_2   0.824587 0.797379 0.059145 0.696609
C77   C     C_R   0.940323 0.350819 0.091325 0.743340
C78   C     C_R   0.081082 0.361430 0.905458 0.664862
C79   C     C_R   0.450192 0.847002 0.089324 0.851392
C80   C     C_R   0.582179 0.862601 0.904631 0.662647
C81   C     C_2   0.811582 0.281409 0.993086 -0.034523
C82   C     C_R   0.877324 0.320104 0.000285 -0.310654
C83   C     C_2   0.241883 0.316443 0.980873 -0.063077
C84   C     C_2   0.413102 0.753340 0.992185 0.083115
C85   C     C_2   0.729890 0.799701 0.981456 -0.013031
C86   C     C_2   0.859785 0.476437 0.353809 -0.082303
C87   C     C_2   0.865847 0.487596 0.455455 -0.009961
C88   C     C_2   0.422817 0.967683 0.417329 -0.103035
C89   C     C_2   0.351854 0.966190 0.442862 -0.001697
C90   C     C_2   0.897622 0.515311 0.326427 0.848381
C91   C     C_2   0.953331 0.495719 0.546263 0.892119
C92   C     C_2   0.405586 0.000315 0.334545 0.939815
C93   C     C_R   0.167837 0.341993 0.992044 -0.260708
C94   C     C_2   0.354179 0.007764 0.505132 0.869860
C95   C     C_R   0.980121 0.549233 0.246484 0.735360
C96   C     C_R   0.971209 0.546117 0.707267 0.669738
C97   C     C_R   0.490099 0.047022 0.261028 0.749346
C98   C     C_R   0.443707 0.047672 0.695134 0.749833
C99   C     C_R   0.733026 0.454664 0.722217 0.829151
C100  C     C_R   0.247566 0.454670 0.304984 0.884186
C101  C     C_R   0.233252 0.953798 0.745977 0.753835
C102  C     C_R   0.754136 0.955951 0.301402 0.859658
C103  C     C_R   0.982432 0.458015 0.252379 0.671564
C104  C     C_R   0.391702 0.813202 0.998509 -0.476018
C105  C     C_R   0.969041 0.454494 0.706463 0.670482
C106  C     C_R   0.492217 0.955531 0.260998 0.658837
C107  C     C_R   0.438749 0.956699 0.690661 0.694708
C108  C     C_R   0.726264 0.546014 0.739838 0.127420
C109  C     C_R   0.246589 0.546203 0.310385 0.171821
C110  C     C_R   0.227223 0.045958 0.743626 0.046026
C111  C     C_R   0.767840 0.046761 0.286367 0.184876
C112  C     C_R   0.853984 0.350516 0.911261 0.778626
C113  C     C_R   0.178909 0.365942 0.085253 0.735123
C114  C     C_R   0.360890 0.847873 0.910440 0.693881
C115  C     C_R   0.665310 0.838693 0.992244 -0.338207
C116  C     C_R   0.674818 0.862146 0.085644 0.725098
C117  C     C_R   0.948686 0.655676 0.089202 -0.058069
C118  C     C_R   0.088737 0.637472 0.909277 -0.171155
C119  C     C_R   0.444969 0.153233 0.093235 0.014509
C120  C     C_R   0.560930 0.150407 0.908161 -0.213417
C121  C     C_R   0.895690 0.690848 0.001229 -0.388703
C122  C     C_R   0.172932 0.658976 0.999627 -0.237020
C123  C     C_R   0.395344 0.189798 0.008458 -0.336778
C124  C     C_R   0.621466 0.183175 0.997077 -0.215877
C125  C     C_3   0.165319 0.715426 0.809624 -0.563807
C126  C     C_R   0.946727 0.505783 0.272724 -0.478718
C127  C     C_3   0.172172 0.755592 0.735498 -0.207971
C128  C     C_3   0.083431 0.754255 0.619208 -0.528400
C129  C     C_3   0.941750 0.849554 0.039772 -0.261219
C130  C     C_3   0.903948 0.874854 0.927598 -0.326657
C131  C     C_3   0.956217 0.927572 0.938631 -0.748985
C132  C     C_3   0.581255 0.248031 0.796390 -0.585547
C133  C     C_3   0.582693 0.287609 0.717010 -0.187588
C134  C     C_3   0.514655 0.268883 0.598662 -0.507662
C135  C     C_3   0.481585 0.327307 0.155910 -0.217809
C136  C     C_3   0.455982 0.386400 0.110835 -0.327247
F1    F     F_    0.842027 0.676270 0.813659 -0.668999
F2    F     F_    0.525988 0.458719 0.734033 -0.605460
F3    F     F_    0.929382 0.103665 0.498849 -0.628279
F4    F     F_    0.989137 0.040878 0.714558 -0.638189
F5    F     F_    0.333736 0.691416 0.109585 -0.639911
F6    F     F_    0.989353 0.753967 0.979446 -0.681674
F7    F     F_    0.703541 0.263765 0.100615 -0.695243
F8    F     F_    0.499991 0.257668 0.016712 -0.667752
F9    F     F_    0.701973 0.356596 0.929508 -0.689723
F10   F     F_    0.315658 0.273029 0.152713 -0.590044
F11   F     F_    0.371899 0.663225 0.921173 -0.689660
F12   F     F_    0.254521 0.643524 0.193761 -0.679275
F13   F     F_    0.858907 0.820071 0.159035 -0.614469
F14   F     F_    0.905461 0.567451 0.368052 -0.631972
F15   F     F_    0.030576 0.491446 0.542619 -0.684807
F16   F     F_    0.324340 0.030955 0.277306 -0.620570
F17   F     F_    0.346380 0.059997 0.466930 -0.579755
F18   F     F_    0.001437 0.328779 0.191564 -0.617254
F19   F     F_    0.033565 0.340990 0.802661 -0.609770
F20   F     F_    0.520738 0.825901 0.187011 -0.608994
F21   F     F_    0.539777 0.849857 0.797830 -0.648346
F22   F     F_    0.972211 0.603571 0.264708 -0.650105
F23   F     F_    0.363848 0.181959 0.830737 -0.698318
F24   F     F_    0.943825 0.597451 0.662950 -0.666415
F25   F     F_    0.475942 0.100496 0.277765 -0.646522
F26   F     F_    0.412885 0.100502 0.662575 -0.624049
F27   F     F_    0.709660 0.401814 0.686609 -0.590114
F28   F     F_    0.248204 0.403034 0.340169 -0.551584
F29   F     F_    0.209959 0.900103 0.719502 -0.627289
F30   F     F_    0.762082 0.905838 0.346230 -0.559344
F31   F     F_    0.986851 0.406672 0.289639 -0.642717
F32   F     F_    0.932664 0.405079 0.657226 -0.622448
F33   F     F_    0.470376 0.902511 0.264712 -0.666821
F34   F     F_    0.681201 0.175980 0.189245 -0.654200
F35   F     F_    0.400288 0.906296 0.652927 -0.640932
F36   F     F_    0.817441 0.328726 0.810560 -0.611639
F37   F     F_    0.256755 0.361833 0.188315 -0.580622
F38   F     F_    0.340370 0.827943 0.813400 -0.636004
F39   F     F_    0.735956 0.844954 0.189693 -0.559132
F40   F     F_    0.420273 0.390193 0.519365 -0.575330
F41   F     F_    0.535806 0.601659 0.547772 -0.667892
F42   F     F_    0.870162 0.942315 0.584220 -0.596754
F43   F     F_    0.092618 0.044785 0.489205 -0.650089
F44   F     F_    0.562780 0.429116 0.465240 -0.622410
F45   F     F_    0.433993 0.532058 0.341222 -0.640898
F46   F     F_    0.035623 0.886521 0.588372 -0.587695
F47   F     F_    0.973614 0.944976 0.371520 -0.636373
F48   F     F_    0.398264 0.559186 0.617378 -0.631117
H1    H     H_    0.003792 0.670602 0.169471 0.183588
H2    H     H_    0.153418 0.673015 0.774058 0.253469
H3    H     H_    0.359987 0.633651 0.380617 0.302831
H4    H     H_    0.167242 0.620424 0.288558 0.194287
H5    H     H_    0.215206 0.587650 0.416236 0.212692
H6    H     H_    0.195096 0.213946 0.772123 0.256177
H7    H     H_    0.073146 0.197209 0.673127 0.300073
H8    H     H_    0.115808 0.208497 0.814509 0.266111
H9    H     H_    0.094795 0.108921 0.763791 0.300376
H10   H     H_    0.212141 0.123059 0.870678 0.193605
H11   H     H_    0.242207 0.129712 0.711689 0.261064
H12   H     H_    0.128765 0.107304 0.626259 0.258474
H13   H     H_    0.104172 0.729347 0.811261 0.242741
H14   H     H_    0.860352 0.095645 0.083713 0.239607
H15   H     H_    0.962523 0.067398 0.209540 0.296720
H16   H     H_    0.900276 0.026121 0.086420 0.247869
H17   H     H_    0.849031 0.993474 0.195007 0.270214
H18   H     H_    0.754156 0.035256 0.089701 0.190017
H19   H     H_    0.805897 0.115084 0.224478 0.206379
H20   H     H_    0.902435 0.076121 0.323915 0.256000
H21   H     H_    0.947959 0.959026 0.988229 0.239191
H22   H     H_    0.032302 0.918193 0.978076 0.269334
H23   H     H_    0.926840 0.945070 0.856304 0.282630
H24   H     H_    0.911757 0.844772 0.875637 0.273470
H25   H     H_    0.828051 0.885438 0.886240 0.181301
H26   H     H_    0.929476 0.880183 0.087498 0.218223
H27   H     H_    0.019360 0.843004 0.086273 0.220359
H28   H     H_    0.532907 0.226095 0.587089 0.235283
H29   H     H_    0.058025 0.645198 0.824499 0.216922
H30   H     H_    0.441176 0.269942 0.576166 0.279293
H31   H     H_    0.519391 0.297082 0.543528 0.291101
H32   H     H_    0.562416 0.330301 0.726421 0.296596
H33   H     H_    0.654526 0.288317 0.734758 0.259898
H34   H     H_    0.603088 0.206229 0.785155 0.207684
H35   H     H_    0.507760 0.247956 0.773911 0.273351
H36   H     H_    0.517504 0.428652 0.266598 0.317137
H37   H     H_    0.596983 0.417679 0.224810 0.237682
H38   H     H_    0.505863 0.470473 0.159728 0.258336
H39   H     H_    0.459687 0.388776 0.038641 0.238024
H40   H     H_    0.497783 0.166619 0.175762 0.217209
H41   H     H_    0.383790 0.397683 0.086782 0.215464
H42   H     H_    0.487888 0.325893 0.234706 0.244467
H43   H     H_    0.552290 0.315967 0.174786 0.242266
H44   H     H_    0.047157 0.184770 0.272217 0.265330
H45   H     H_    0.003255 0.153373 0.140815 0.230651
H46   H     H_    0.039752 0.224820 0.165679 0.293633
H47   H     H_    0.910027 0.248808 0.189812 0.262937
H48   H     H_    0.873502 0.179207 0.165639 0.187356
H49   H     H_    0.879897 0.209255 0.980209 0.238430
H50   H     H_    0.781608 0.192730 0.981307 0.133161
H51   H     H_    0.514013 0.162288 0.824248 0.242624
H52   H     H_    0.235605 0.369064 0.703643 0.261013
H53   H     H_    0.119380 0.382513 0.674136 0.272413
H54   H     H_    0.199314 0.438905 0.710484 0.271131
H55   H     H_    0.191786 0.413521 0.866417 0.190098
H56   H     H_    0.306723 0.402251 0.895544 0.203204
H57   H     H_    0.165989 0.306836 0.806584 0.272349
H58   H     H_    0.288082 0.303182 0.869952 0.192260
H59   H     H_    0.703270 0.664645 0.236386 0.262802
H60   H     H_    0.674646 0.678064 0.101351 0.243316
H61   H     H_    0.704630 0.734714 0.196332 0.320459
H62   H     H_    0.072350 0.711774 0.584249 0.242039
H63   H     H_    0.560614 0.719531 0.191933 0.274960
H64   H     H_    0.531837 0.660023 0.104348 0.241531
H65   H     H_    0.552743 0.777907 0.043454 0.179434
H66   H     H_    0.509678 0.719208 0.955024 0.211758
H67   H     H_    0.643244 0.722167 0.679421 0.274553
H68   H     H_    0.552055 0.772317 0.650540 0.266385
H69   H     H_    0.633889 0.787332 0.615306 0.243079
H70   H     H_    0.675145 0.838628 0.783095 0.225387
H71   H     H_    0.765475 0.789578 0.809133 0.211129
H72   H     H_    0.612065 0.757553 0.844289 0.259904
H73   H     H_    0.020932 0.767430 0.618631 0.278012
H74   H     H_    0.720145 0.724212 0.894471 0.151916
H75   H     H_    0.765603 0.311655 0.283493 0.282642
H76   H     H_    0.851758 0.315820 0.250105 0.277985
H77   H     H_    0.882777 0.283116 0.375275 0.243253
H78   H     H_    0.858908 0.374058 0.440102 0.234356
H79   H     H_    0.951048 0.375919 0.418053 0.278359
H80   H     H_    0.746618 0.419950 0.264273 0.190682
H81   H     H_    0.825258 0.417283 0.223931 0.233403
H82   H     H_    0.589905 0.517021 0.363438 0.284719
H83   H     H_    0.660202 0.557873 0.486851 0.267721
H84   H     H_    0.091098 0.783009 0.567034 0.275561
H85   H     H_    0.597029 0.591092 0.354870 0.267293
H86   H     H_    0.696700 0.542407 0.306705 0.212333
H87   H     H_    0.768088 0.581237 0.432160 0.277205
H88   H     H_    0.732699 0.454774 0.410574 0.227660
H89   H     H_    0.792125 0.492008 0.536554 0.205970
H90   H     H_    0.675789 0.929667 0.711785 0.222743
H91   H     H_    0.709013 0.918376 0.616691 0.301675
H92   H     H_    0.743904 0.980674 0.698911 0.265654
H93   H     H_    0.575296 0.010254 0.603752 0.211608
H94   H     H_    0.611102 0.002396 0.511297 0.226506
H95   H     H_    0.180904 0.798368 0.768358 0.280009
H96   H     H_    0.510427 0.912216 0.552835 0.238439
H97   H     H_    0.535544 0.909236 0.452570 0.279422
H98   H     H_    0.134269 0.850012 0.320929 0.221924
H99   H     H_    0.211434 0.833032 0.464819 0.260831
H100  H     H_    0.102367 0.870168 0.413717 0.309036
H101  H     H_    0.161451 0.950945 0.366415 0.231836
H102  H     H_    0.234666 0.934876 0.509717 0.245607
H103  H     H_    0.269649 0.900638 0.333684 0.215155
H104  H     H_    0.344988 0.879359 0.472253 0.266197
H105  H     H_    0.733624 0.638845 0.983924 0.242153
H106  H     H_    0.233230 0.744000 0.732042 0.249751
H107  H     H_    0.610955 0.619260 0.900828 0.284099
H108  H     H_    0.693293 0.583896 0.027757 0.263008
H109  H     H_    0.661882 0.524411 0.875888 0.277462
H110  H     H_    0.780706 0.546259 0.951640 0.192356
H111  H     H_    0.708207 0.627737 0.793315 0.194516
H112  H     H_    0.610782 0.588797 0.734610 0.247728
H113  H     H_    0.236480 0.711616 0.311555 0.286654
H114  H     H_    0.241523 0.706078 0.436102 0.251029
H115  H     H_    0.343880 0.727242 0.441319 0.259977
H116  H     H_    0.360759 0.631400 0.500230 0.243621
N1    N     N_R   0.892320 0.603520 0.941090 -0.113223
N2    N     N_R   0.973240 0.529450 0.794410 -0.148752
N3    N     N_R   0.526760 0.029450 0.205590 -0.165053
N4    N     N_R   0.473240 0.029450 0.794410 -0.166973
N5    N     N_R   0.819350 0.473090 0.793940 -0.164624
N6    N     N_R   0.180650 0.473090 0.206060 -0.161006
N7    N     N_R   0.319350 0.973090 0.793940 -0.140027
N8    N     N_R   0.680650 0.973090 0.206060 -0.178419
N9    N     N_R   0.027860 0.473090 0.206590 -0.145098
N10   N     N_R   0.972140 0.473090 0.793410 -0.153920
N11   N     N_R   0.527860 0.973090 0.206590 -0.142434
N12   N     N_R   0.107680 0.603520 0.058910 -0.140818
N13   N     N_R   0.472140 0.973090 0.793410 -0.142404
N14   N     N_R   0.818250 0.529450 0.792940 -0.125207
N15   N     N_R   0.181750 0.529450 0.207060 -0.127331
N16   N     N_R   0.318250 0.029450 0.792940 -0.115427
N17   N     N_R   0.681750 0.029450 0.207060 -0.147390
N18   N     N_R   0.896320 0.399020 0.944720 -0.177530
N19   N     N_R   0.103680 0.399020 0.055280 -0.184210
N20   N     N_R   0.396320 0.899020 0.944720 -0.165757
N21   N     N_R   0.603680 0.899020 0.055280 -0.190786
N22   N     N_R   0.949790 0.603520 0.054810 -0.102746
N23   N     N_R   0.392320 0.103520 0.941090 -0.117124
N24   N     N_R   0.050210 0.603520 0.945190 -0.069355
N25   N     N_R   0.449790 0.103520 0.054810 -0.102906
N26   N     N_R   0.550210 0.103520 0.945190 -0.080919
N27   N     N_R   0.607680 0.103520 0.058910 -0.137625
N28   N     N_R   0.953790 0.399020 0.058440 -0.178379
N29   N     N_R   0.046210 0.399020 0.941560 -0.176125
N30   N     N_R   0.453790 0.899020 0.058440 -0.170304
N31   N     N_R   0.546210 0.899020 0.941560 -0.159086
N32   N     N_R   0.026760 0.529450 0.205590 -0.188952
Ni1   Ni    Ni4+2 0.934100 0.565890 0.869590 0.282588
Ni2   Ni    Ni4+2 0.065900 0.565890 0.130410 0.187845
Ni3   Ni    Ni4+2 0.434100 0.065890 0.869590 0.264923
Ni4   Ni    Ni4+2 0.565900 0.065890 0.130410 0.249550
Ni5   Ni    Ni4+2 0.068420 0.436630 0.132700 0.317546
Ni6   Ni    Ni4+2 0.931580 0.436630 0.867300 0.315136
Ni7   Ni    Ni4+2 0.568420 0.936630 0.132700 0.308224
Ni8   Ni    Ni4+2 0.431580 0.936630 0.867300 0.318298

loop_
_geom_bond_atom_site_label_1
_geom_bond_atom_site_label_2
_ccdc_geom_bond_type
C135  H42   S    
C55   C59   S    
C95   F22   S    
C74   C83   D    
C1    N1    A    
C16   H68   S    
C107  F35   S    
C45   C57   S    
N19   Ni5   S    
C24   C98   A    
C18   H78   S    
C87   C91   D    
C19   H75   S    
C5    C6    S    
C78   F19   S    
N21   Ni7   S    
C12   H61   S    
C83   C93   S    
N9    Ni5   S    
C89   C94   D    
C103  C126  A    
C95   N32   A    
C5    H47   S    
N26   N27   A    
C97   N3    A    
C62   F3    S    
C98   N4    A    
C26   H90   S    
C48   C50   S    
C21   C22   S    
C73   C81   D    
N27   Ni4   S    
C98   F26   S    
C21   H86   S    
C91   F15   S    
C80   N31   A    
C42   H14   S    
C86   C90   D    
C13   C106  A    
C36   H115  S    
C69   F6    S    
C134  H31   S    
N8    Ni7   S    
C37   C38   S    
C118  N24   A    
C16   H69   S    
C22   H82   S    
C7    H57   S    
C90   C126  S    
C71   F34   S    
N18   N28   A    
C67   C74   S    
C3    H38   S    
N9    N32   A    
N6    N15   A    
N3    N11   A    
C72   F8    S    
C42   H15   S    
C50   C57   S    
C4    H50   S    
C4    C5    S    
C44   C101  A    
C45   C111  A    
C47   C52   S    
C119  C123  A    
N21   N31   A    
C38   H9    S    
C2    C96   A    
C130  C131  S    
C66   C70   D    
C77   C82   A    
C99   N5    A    
C118  H29   S    
C132  H34   S    
C13   C97   A    
C51   F40   S    
C106  N11   A    
C130  H24   S    
C45   C102  A    
C70   C124  S    
C114  F38   S    
C14   H72   S    
C20   C21   S    
N4    N13   A    
C64   C125  S    
C125  C127  S    
N23   N25   A    
C41   H18   S    
N7    Ni8   S    
C7    C83   S    
C103  F31   S    
N30   Ni7   S    
C90   F14   S    
C131  H23   S    
C7    C8    S    
C15   H71   S    
C70   F7    S    
C135  H43   S    
C64   C68   D    
C33   H5    S    
C26   H91   S    
C77   F18   S    
C75   C84   D    
C112  N18   A    
C115  C116  A    
C20   C87   S    
C3    C136  S    
C118  C122  A    
C52   F41   S    
N20   Ni8   S    
C40   H20   S    
C3    H36   S    
C12   H60   S    
C129  H27   S    
C132  C133  S    
C51   C55   S    
C31   H110  S    
C32   H105  S    
C28   H102  S    
C27   H104  S    
C102  F30   S    
C112  F36   S    
C96   N2    A    
C116  N21   A    
C111  N17   A    
C8    H56   S    
C48   C53   S    
C59   C61   S    
C117  N22   A    
C25   C26   S    
C103  N9    A    
C46   C51   S    
C49   F12   S    
C73   F9    S    
C10   H66   S    
N5    Ni6   S    
C60   C123  A    
C107  N13   A    
C36   H114  S    
C31   C32   S    
C17   C18   S    
C34   H116  S    
C88   C89   S    
C99   F27   S    
C22   H85   S    
C43   C55   S    
C97   F25   S    
C23   C88   S    
C6    H46   S    
C9    H53   S    
C84   C104  S    
N11   Ni7   S    
C131  H21   S    
C1    F1    S    
C129  C130  S    
C40   C41   S    
C116  F39   S    
C35   C56   S    
C25   H94   S    
N2    Ni1   S    
C101  N7    A    
C102  N8    A    
C105  F32   S    
C79   N30   A    
C128  H73   S    
C17   H80   S    
C18   H79   S    
C53   C63   S    
C95   C126  A    
C94   F17   S    
C76   C85   D    
C108  N14   A    
C64   C75   S    
C27   C89   S    
C33   H4    S    
C34   C36   S    
C34   H3    S    
C1    C121  A    
C10   C11   S    
C27   H103  S    
C32   H107  S    
C46   C56   S    
N1    N22   A    
C14   C15   S    
C130  H25   S    
C43   C109  A    
C127  H95   S    
C136  H41   S    
N16   Ni3   S    
C71   N27   A    
C41   C42   S    
C60   F23   S    
C30   H112  S    
C135  C136  S    
C50   C54   S    
C65   C76   S    
C11   H64   S    
C47   C55   S    
C28   C29   S    
N8    N17   A    
C120  H51   S    
C30   C31   S    
N17   Ni4   S    
N12   Ni2   S    
C54   F43   S    
C18   C19   S    
C63   F4    S    
C20   H89   S    
C22   H83   S    
C4    C81   S    
C44   C58   S    
C6    H44   S    
C30   H111  S    
C49   N12   A    
C47   F45   S    
C3    H37   S    
N3    Ni4   S    
C16   H67   S    
C127  H106  S    
C23   H97   S    
C17   C86   S    
C46   F44   S    
C85   C115  S    
N23   Ni3   S    
C43   C100  A    
C14   H74   S    
C68   C122  S    
C19   H76   S    
C53   C57   S    
C86   C87   S    
C54   C62   S    
C75   F11   S    
N12   N24   A    
C38   H10   S    
C82   C112  A    
C67   C135  S    
C62   C63   S    
C80   C115  A    
C11   C12   S    
C128  H84   S    
C5    H48   S    
C100  F28   S    
C93   C113  A    
C101  F29   S    
C37   C110  S    
C72   C123  S    
C133  C134  S    
C113  N19   A    
C77   N28   A    
C114  N20   A    
C41   H17   S    
C127  C128  S    
C37   H11   S    
C21   H87   S    
N24   Ni1   S    
C46   C47   S    
C30   C108  S    
N26   Ni3   S    
C133  H32   S    
C74   F10   S    
C60   N23   A    
C65   C129  S    
C48   C58   S    
C134  H30   S    
C78   N29   A    
C128  H62   S    
C132  H35   S    
C117  H1    S    
C26   H92   S    
C39   H8    S    
C38   C39   S    
C65   C69   D    
C7    H58   S    
C119  H40   S    
C61   F2    S    
N5    N14   A    
C56   C61   S    
C129  H26   S    
C31   H109  S    
N6    Ni5   S    
C120  N26   A    
C4    H49   S    
C50   F47   S    
C51   C61   S    
C53   F42   S    
C81   C82   S    
C80   F21   S    
C57   C62   S    
N4    Ni3   S    
N32   Ni2   S    
C67   C72   D    
C29   H100  S    
N31   Ni8   S    
C78   C93   A    
C15   C16   S    
C39   H7    S    
C117  C121  A    
C17   H81   S    
C35   C108  A    
N14   Ni1   S    
C79   F20   S    
C88   C92   D    
C8    C9    S    
C92   F16   S    
C20   H88   S    
N28   Ni5   S    
C100  N6    A    
N18   Ni6   S    
C125  H13   S    
C109  N15   A    
C9    H52   S    
C110  N16   A    
C2    C91   S    
C35   C99   A    
N15   Ni2   S    
C40   C111  S    
C66   C132  S    
N22   Ni2   S    
C134  H28   S    
C37   H12   S    
C71   C124  A    
C25   H93   S    
C24   C107  A    
C39   H6    S    
C29   H98   S    
N19   N29   A    
C119  N25   A    
C66   C73   S    
C133  H33   S    
C125  H2    S    
C9    H54   S    
C52   C59   S    
C24   C94   S    
C105  N10   A    
C19   H77   S    
C40   H19   S    
C69   C121  S    
C29   H99   S    
C12   H59   S    
N2    N10   A    
C33   C34   S    
N13   Ni8   S    
C68   F5    S    
C104  C114  A    
C32   H108  S    
C28   H101  S    
C96   F24   S    
C106  F33   S    
C79   C104  A    
C33   C109  S    
N29   Ni6   S    
N10   Ni6   S    
C113  F37   S    
C54   C58   S    
C8    H55   S    
C58   C63   S    
C14   C85   S    
N25   Ni4   S    
C23   H96   S    
C2    C105  A    
C10   H65   S    
C11   H63   S    
C42   H16   S    
C13   C92   S    
C48   F46   S    
C36   H113  S    
C136  H39   S    
C76   F13   S    
C49   C122  A    
C10   C84   S    
C23   C25   S    
C59   F48   S    
C120  C124  A    
C6    H45   S    
C27   C28   S    
N20   N30   A    
N1    Ni1   S    
N7    N16   A    
C131  H22   S    
C52   C56   S    
C15   H70   S    
C44   C110  A    
