data_mof_unit_39413.cif
_audit_creation_date              2012-10-26T19:52:45-0400
_audit_creation_method            fapswitch 2.2
_symmetry_space_group_name_H-M    P1
_symmetry_Int_Tables_number       1
_space_group_crystal_system       triclinic
_cell_length_a                    15.047028
_cell_length_b                    10.852939
_cell_length_c                    9.585367
_cell_angle_alpha                 90.620263
_cell_angle_beta                  89.243259
_cell_angle_gamma                 91.61151
_cell_volume                      1564.49218167

loop_
_atom_site_label
_atom_site_type_symbol
_atom_type_description
_atom_site_fract_x
_atom_site_fract_y
_atom_site_fract_z
_atom_type_partial_charge
C1    C     C_R   0.497349 0.262550 0.499190 0.542571
C2    C     C_R   0.186012 0.453649 0.384999 -0.139642
C3    C     C_R   0.232169 0.504737 0.498935 -0.013015
C4    C     C_R   0.328838 0.501482 0.500320 0.542777
C5    C     C_R   0.186009 0.561030 0.608866 -0.141907
C6    C     C_R   0.477660 0.065642 0.621997 0.012823
C7    C     C_R   0.486812 0.129507 0.497320 0.006854
C8    C     C_R   0.482951 0.062691 0.371030 -0.162529
C9    C     C_R   0.483601 0.934041 0.372278 -0.159803
C10   C     C_R   0.488304 0.871045 0.499726 0.008116
C11   C     C_R   0.478061 0.938692 0.623624 0.022783
C12   C     C_R   0.907041 0.555361 0.611851 0.011329
C13   C     C_3   0.530384 0.939924 0.754963 -0.278415
C14   C     C_3   0.529915 0.079194 0.752305 -0.262845
C15   C     C_R   0.571775 0.545131 0.072462 0.153877
C16   C     C_R   0.498089 0.737807 0.500454 0.547933
C17   C     C_R   0.436792 0.436943 0.077681 0.003889
C18   C     C_R   0.436215 0.434264 0.929322 0.097363
C19   C     C_R   0.572160 0.544336 0.925735 0.151442
C20   C     C_3   0.613320 0.670156 0.921316 -0.285230
C21   C     C_3   0.612682 0.671234 0.079813 -0.273626
C22   C     C_R   0.671253 0.500712 0.499199 0.550008
C23   C     C_R   0.954211 0.406592 0.267242 -0.135758
C24   C     C_R   0.814430 0.552037 0.612218 -0.138028
C25   C     C_R   0.768147 0.502841 0.497582 -0.012569
C26   C     C_R   0.814501 0.456026 0.381747 -0.141511
C27   C     C_R   0.907210 0.456134 0.380954 0.010737
C28   C     C_R   0.953680 0.506269 0.496327 0.060640
C29   C     C_3   0.366069 0.347710 0.867246 -0.225901
C30   C     C_3   0.271572 0.391615 0.898208 -0.308208
C31   C     C_3   0.201875 0.310855 0.823824 -0.446852
C32   C     C_R   0.046888 0.405647 0.268226 -0.136356
C33   C     C_R   0.093505 0.455382 0.382330 0.011363
C34   C     C_R   0.046863 0.507079 0.496346 0.059900
C35   C     C_R   0.093358 0.559822 0.610253 0.009739
C36   C     C_R   0.046458 0.609956 0.723634 -0.138500
C37   C     C_R   0.953735 0.606922 0.724899 -0.136800
Cu1   Cu    Cu3+1 0.500000 0.499980 0.640670 0.923992
Cu2   Cu    Cu3+1 0.500000 0.500020 0.359330 0.927810
H1    H     H_    0.778384 0.589255 0.700882 0.113421
H2    H     H_    0.680386 0.671485 0.124837 0.128811
H3    H     H_    0.778399 0.417596 0.293494 0.122700
H4    H     H_    0.567282 0.739991 0.125980 0.143732
H5    H     H_    0.919287 0.367910 0.178084 0.108284
H6    H     H_    0.082100 0.366187 0.179835 0.105755
H7    H     H_    0.222094 0.411669 0.298938 0.111100
H8    H     H_    0.222215 0.606706 0.692360 0.115472
H9    H     H_    0.081474 0.650283 0.811822 0.108346
H10   H     H_    0.918539 0.645127 0.814001 0.106332
H11   H     H_    0.484384 0.109205 0.271582 0.131115
H12   H     H_    0.484936 0.885013 0.273413 0.127848
H13   H     H_    0.214359 0.310269 0.709424 0.164673
H14   H     H_    0.203476 0.214856 0.862516 0.147745
H15   H     H_    0.134725 0.347332 0.844753 0.150662
H16   H     H_    0.256884 0.388333 0.011984 0.135275
H17   H     H_    0.266111 0.488504 0.865533 0.174409
H18   H     H_    0.374767 0.330750 0.755601 0.216464
H19   H     H_    0.372682 0.255593 0.915100 0.090751
H20   H     H_    0.490465 0.902442 0.843999 0.129208
H21   H     H_    0.598060 0.903010 0.739517 0.132396
H22   H     H_    0.490750 0.119774 0.839480 0.129609
H23   H     H_    0.596939 0.122473 0.734527 0.148145
H24   H     H_    0.386742 0.386020 0.137227 0.115877
H25   H     H_    0.681247 0.671564 0.874718 0.114476
H26   H     H_    0.567174 0.735216 0.877121 0.146483
N1    N     N_R   0.500570 0.500930 0.147930 -0.244131
N2    N     N_R   0.500570 0.500890 0.852020 -0.229192
O1    O     O_R   0.500000 0.319640 0.618810 -0.521735
O2    O     O_R   0.500010 0.319680 0.381230 -0.509236
O3    O     O_R   0.370250 0.499950 0.618800 -0.518581
O4    O     O_R   0.370260 0.499990 0.381220 -0.508871
O5    O     O_R   0.499990 0.680320 0.618770 -0.499190
O6    O     O_R   0.500000 0.680360 0.381190 -0.506204
O7    O     O_R   0.629740 0.500010 0.618780 -0.500064
O8    O     O_R   0.629750 0.500050 0.381200 -0.500340

loop_
_geom_bond_atom_site_label_1
_geom_bond_atom_site_label_2
_ccdc_geom_bond_type
C24   C25   A    
Cu1   O3    S    
C32   H6    S    
C35   C36   A    
C9    H12   S    
C31   H13   S    
C4    O3    A    
C7    C8    A    
C13   H21   S    
C2    H7    S    
C15   C19   A    
C5    H8    S    
C17   N1    A    
C12   C28   A    
C36   C37   A    
C30   C31   S    
C31   H14   S    
C14   H23   S    
C1    O1    A    
C34   C35   A    
C12   C37   A    
C21   H4    S    
C19   C20   S    
C8    C9    A    
C22   C25   S    
C16   O5    A    
C19   N2    A    
Cu2   O8    S    
C9    C10   A    
C28   C34   A    
C13   C14   S    
C15   N1    A    
C22   O8    A    
C33   C34   A    
Cu1   O5    S    
C16   O6    A    
C20   H26   S    
Cu1   N2    S    
C6    C11   A    
C18   N2    A    
C14   H22   S    
C30   H17   S    
C1    O2    A    
C23   H5    S    
C20   H25   S    
C29   C30   S    
C6    C14   S    
C37   H10   S    
C17   C18   A    
Cu2   O2    S    
C18   C29   S    
C29   H19   S    
C21   H2    S    
C2    C33   A    
C29   H18   S    
C23   C27   A    
C26   C27   A    
Cu2   N1    S    
C22   O7    A    
C3    C4    S    
C8    H11   S    
C26   H3    S    
Cu1   O7    S    
C1    C7    S    
C23   C32   A    
Cu1   O1    S    
C3    C5    A    
C6    C7    A    
C13   H20   S    
C30   H16   S    
C12   C24   A    
C32   C33   A    
C2    C3    A    
C25   C26   A    
C10   C16   S    
C17   H24   S    
C11   C13   S    
Cu1   Cu2   S    
C5    C35   A    
C24   H1    S    
C36   H9    S    
Cu2   O6    S    
C31   H15   S    
C10   C11   A    
C15   C21   S    
C20   C21   S    
C27   C28   A    
Cu2   O4    S    
C4    O4    A    
