data_mof_unit_9197.cif
_audit_creation_date              2012-12-10T18:02:54-0500
_audit_creation_method            fapswitch 2.2
_symmetry_space_group_name_H-M    P1
_symmetry_Int_Tables_number       1
_space_group_crystal_system       triclinic
_cell_length_a                    10.803477
_cell_length_b                    9.497274
_cell_length_c                    27.852205
_cell_angle_alpha                 89.592073
_cell_angle_beta                  90.116917
_cell_angle_gamma                 89.948381
_cell_volume                      2857.65640221

loop_
_atom_site_label
_atom_site_type_symbol
_atom_type_description
_atom_site_fract_x
_atom_site_fract_y
_atom_site_fract_z
_atom_type_partial_charge
C1    C     C_R   0.262237 0.500041 0.500185 0.950664
C2    C     C_R   0.737763 0.499959 0.499814 0.950626
C3    C     C_R   0.498424 0.493167 0.101926 -0.112899
C4    C     C_R   0.502757 0.510805 0.898165 -0.113129
C5    C     C_R   0.385786 0.479943 0.127310 -0.142513
C6    C     C_R   0.615843 0.510440 0.872683 -0.143875
C7    C     C_R   0.273885 0.471741 0.101453 0.513579
C8    C     C_R   0.728195 0.507711 0.898439 0.518543
C9    C     C_R   0.610449 0.502715 0.127746 -0.015085
C10   C     C_R   0.390219 0.514299 0.872446 -0.017680
C11   C     C_R   0.500856 0.501448 0.354202 -0.224033
C12   C     C_R   0.499024 0.498580 0.645813 -0.224689
C13   C     C_R   0.386960 0.503398 0.974165 0.089911
C14   C     C_R   0.614023 0.507451 0.025977 0.090331
C15   C     C_R   0.615182 0.505784 0.974918 -0.028088
C16   C     C_R   0.386201 0.492095 0.025119 -0.028215
C17   C     C_R   0.501712 0.507028 0.949261 0.075490
C18   C     C_R   0.499468 0.497617 0.050831 0.074882
C19   C     C_R   0.276336 0.512645 0.947037 -0.199392
C20   C     C_R   0.723964 0.520251 0.053286 -0.198236
C21   C     C_R   0.278225 0.516996 0.897282 -0.138705
C22   C     C_R   0.721909 0.517111 0.103034 -0.136730
C23   C     C_R   0.500265 0.500672 0.407326 0.890410
C24   C     C_R   0.499693 0.499330 0.592679 0.889843
C25   C     C_R   0.275458 0.474015 0.051345 -0.289919
C26   C     C_R   0.726640 0.501352 0.948524 -0.290520
C27   C     C_R   0.064969 0.404167 0.529905 0.244219
C28   C     C_R   0.935032 0.595830 0.470092 0.244092
C29   C     C_R   0.934818 0.406500 0.530524 0.246198
C30   C     C_R   0.065184 0.593496 0.469473 0.246133
C31   C     C_R   0.871701 0.499546 0.499628 -0.188590
C32   C     C_R   0.128301 0.500453 0.500370 -0.188554
C33   C     C_R   0.423685 0.075171 0.469879 -0.027863
C34   C     C_R   0.576293 0.924828 0.530130 -0.027030
C35   C     C_R   0.576320 0.073808 0.530118 0.006502
C36   C     C_R   0.423632 0.926193 0.469902 0.004703
C37   C     C_R   0.388923 0.476663 0.178007 0.629428
C38   C     C_R   0.612583 0.511736 0.821989 0.632480
C39   C     C_R   0.608564 0.500287 0.178043 0.629000
C40   C     C_R   0.391922 0.514865 0.822147 0.627705
C41   C     C_R   0.472308 0.619540 0.276529 0.305867
C42   C     C_R   0.524634 0.379727 0.723527 0.314897
C43   C     C_R   0.477974 0.625990 0.327251 0.363984
C44   C     C_R   0.519088 0.373441 0.672792 0.359862
C45   C     C_R   0.525250 0.375123 0.330051 -0.384568
C46   C     C_R   0.477521 0.625600 0.669950 -0.382460
C47   C     C_R   0.523794 0.369780 0.279902 0.475311
C48   C     C_R   0.479131 0.630949 0.720068 0.474351
C49   C     C_R   0.499021 0.492464 0.253371 0.183469
C50   C     C_R   0.501058 0.507675 0.746680 0.176366
Cu1   Cu    Cu3+1 0.500000 0.640660 0.500000 0.996651
Cu2   Cu    Cu3+1 0.500000 0.359340 0.500000 0.996730
H1    H     H_    0.547241 0.280104 0.350062 0.200048
H2    H     H_    0.458129 0.721429 0.649980 0.200764
H3    H     H_    0.362657 0.132002 0.445749 0.134034
H4    H     H_    0.637313 0.867996 0.554262 0.133499
H5    H     H_    0.637315 0.129557 0.554247 0.185103
H6    H     H_    0.362596 0.870444 0.445789 0.185830
H7    H     H_    0.190747 0.522372 0.878289 0.184854
H8    H     H_    0.808743 0.526895 0.122139 0.175821
H9    H     H_    0.185935 0.519253 0.963058 0.134888
H10   H     H_    0.813760 0.536140 0.037481 0.132011
H11   H     H_    0.187281 0.458412 0.034141 0.155285
H12   H     H_    0.815580 0.489251 0.965531 0.153528
N1    N     N_R   0.498959 0.488007 0.201920 -0.419706
N2    N     N_R   0.501881 0.512660 0.798154 -0.422447
N3    N     N_R   0.500000 0.852070 0.500000 -0.170329
N4    N     N_R   0.500000 0.147930 0.500000 -0.170404
O1    O     O_R   0.319640 0.618740 0.500000 -0.560227
O2    O     O_R   0.680360 0.381260 0.500000 -0.560407
O3    O     O_R   0.680360 0.618740 0.500000 -0.565281
O4    O     O_R   0.319640 0.381260 0.500000 -0.565258
O5    O     O_R   0.500020 0.618770 0.430260 -0.534749
O6    O     O_R   0.499980 0.381230 0.569740 -0.534227
O7    O     O_R   0.499980 0.618770 0.569740 -0.614946
O8    O     O_R   0.500020 0.381230 0.430260 -0.614777
O9    O     O_2   0.283468 0.463035 0.203469 -0.485083
O10   O     O_2   0.718559 0.511775 0.796452 -0.477831
O11   O     O_2   0.284514 0.516248 0.797290 -0.516948
O12   O     O_2   0.715309 0.511213 0.203019 -0.523509
O13   O     O_3   0.554463 0.247130 0.256211 -0.549681
C51   C     C_3   0.456219 0.150381 0.260889 -0.274136
H13   H     H_    0.366968 0.196441 0.248238 0.188775
H14   H     H_    0.447490 0.111613 0.298492 0.152753
H15   H     H_    0.476384 0.058047 0.238029 0.209173
O14   O     O_3   0.452083 0.754883 0.743609 -0.549507
C52   C     C_3   0.555045 0.845504 0.740295 -0.286732
H16   H     H_    0.568536 0.883866 0.702848 0.159512
H17   H     H_    0.640970 0.794002 0.753982 0.177170
H18   H     H_    0.537386 0.938715 0.763045 0.210057
O15   O     O_3   0.162131 0.453381 0.124835 -0.533952
C53   C     C_3   0.097712 0.582690 0.124498 -0.211986
H19   H     H_    0.061360 0.607487 0.088022 0.120307
H20   H     H_    0.156236 0.670844 0.137817 0.167931
H21   H     H_    0.017644 0.573541 0.149143 0.207351
O16   O     O_3   0.840660 0.500023 0.874877 -0.528600
C54   C     C_3   0.900153 0.631858 0.877944 -0.230715
H22   H     H_    0.931758 0.652928 0.915229 0.125977
H23   H     H_    0.839528 0.718950 0.864749 0.159655
H24   H     H_    0.983304 0.630085 0.854673 0.207519
O17   O     O_3   0.539718 0.246940 0.649755 -0.577807
C55   C     C_3   0.427623 0.170652 0.648741 -0.274091
H25   H     H_    0.353723 0.229886 0.629312 0.202342
H26   H     H_    0.395722 0.142572 0.685527 0.177397
H27   H     H_    0.443385 0.070873 0.629197 0.177418
O18   O     O_3   0.455033 0.751936 0.350309 -0.577093
C56   C     C_3   0.565522 0.831255 0.351008 -0.277992
H28   H     H_    0.596385 0.859841 0.314131 0.175783
H29   H     H_    0.640887 0.774213 0.370345 0.202610
H30   H     H_    0.547966 0.930776 0.370470 0.175198
O19   O     O_3   0.552114 0.263340 0.751676 -0.707402
H31   H     H_    0.583537 0.186624 0.731149 0.350212
O20   O     O_3   0.441717 0.734935 0.248385 -0.720074
H32   H     H_    0.408736 0.810755 0.268937 0.349936
O21   O     O_3   0.132518 0.310491 0.557737 -0.728073
H33   H     H_    0.083885 0.222910 0.561895 0.337717
O22   O     O_3   0.867484 0.689508 0.442260 -0.727028
H34   H     H_    0.916121 0.777087 0.438102 0.337787
O23   O     O_3   0.866900 0.325071 0.562299 -0.722539
H35   H     H_    0.917041 0.307162 0.591510 0.344007
O24   O     O_3   0.133103 0.674922 0.437696 -0.722009
H36   H     H_    0.082963 0.692829 0.408486 0.343849

loop_
_geom_bond_atom_site_label_1
_geom_bond_atom_site_label_2
_ccdc_geom_bond_type
C33   H3    S    
C52   H16   S    
C34   H4    S    
O17   C55   S    
C5    C37   A    
C27   C29   A    
C8    C26   A    
C14   C18   A    
O19   H31   S    
C8    O16   S    
C23   O8    A    
O13   C51   S    
C36   N3    A    
C47   C49   A    
C29   O23   S    
C47   O13   S    
C49   N1    S    
C55   H27   S    
C3    C9    A    
C19   C21   A    
Cu1   O7    S    
C21   H7    S    
Cu2   O6    S    
C28   O22   S    
C22   H8    S    
C9    C22   A    
O18   C56   S    
O21   H33   S    
C9    C39   A    
C33   C36   A    
C3    C18   A    
C10   C40   A    
C34   C35   A    
C25   H11   S    
C26   H12   S    
C52   H18   S    
C38   N2    A    
C37   N1    A    
C56   H28   S    
C6    C38   A    
C11   C43   A    
C41   C43   A    
Cu2   N4    S    
C48   C50   A    
C45   H1    S    
C40   N2    A    
C39   N1    A    
C42   C44   A    
C23   O5    A    
C41   C49   A    
C54   H23   S    
C54   H22   S    
C45   C47   A    
C10   C21   A    
C46   C48   A    
C1    O4    A    
C13   C19   A    
Cu1   Cu2   S    
C14   C20   A    
C12   C46   A    
O15   C53   S    
C5    C7    A    
O14   C52   S    
C15   C26   A    
C6    C8    A    
C38   O10   S    
C3    C5    A    
C37   O9    S    
C53   H21   S    
C1    O1    A    
C2    C31   S    
C43   O18   S    
C42   O19   S    
Cu2   O4    S    
C30   O24   S    
C44   O17   S    
C7    O15   S    
O16   C54   S    
C46   H2    S    
C53   H20   S    
C40   O11   S    
Cu1   N3    S    
C55   H26   S    
C50   N2    S    
O24   H36   S    
C42   C50   A    
C4    C17   A    
C4    C6    A    
C20   C22   A    
C51   H14   S    
C52   H17   S    
C56   H30   S    
C48   O14   S    
C11   C45   A    
C4    C10   A    
C2    O3    A    
C54   H24   S    
O20   H32   S    
C16   C25   A    
C15   C17   A    
C27   C32   A    
C28   C31   A    
Cu1   O5    S    
C41   O20   S    
Cu2   O8    S    
C34   N3    A    
O23   H35   S    
Cu1   O3    S    
C24   O7    A    
C51   H15   S    
C12   C24   S    
C36   H6    S    
C7    C25   A    
C13   C17   A    
C35   H5    S    
C39   O12   S    
C28   C30   A    
C29   C31   A    
O22   H34   S    
C30   C32   A    
C24   O6    A    
C56   H29   S    
C35   N4    A    
C19   H9    S    
C11   C23   S    
C53   H19   S    
C1    C32   S    
C20   H10   S    
C55   H25   S    
Cu2   O2    S    
C16   C18   A    
C51   H13   S    
C13   C16   A    
C14   C15   A    
C12   C44   A    
Cu1   O1    S    
C2    O2    A    
C33   N4    A    
C27   O21   S    
