data_mof_unit_16037.cif
_audit_creation_date              2012-12-10T18:26:55-0500
_audit_creation_method            fapswitch 2.2
_symmetry_space_group_name_H-M    P1
_symmetry_Int_Tables_number       1
_space_group_crystal_system       triclinic
_cell_length_a                    24.263801
_cell_length_b                    24.407656
_cell_length_c                    16.199303
_cell_angle_alpha                 89.598623
_cell_angle_beta                  102.150102
_cell_angle_gamma                 90.100807
_cell_volume                      9378.46067544

loop_
_atom_site_label
_atom_site_type_symbol
_atom_type_description
_atom_site_fract_x
_atom_site_fract_y
_atom_site_fract_z
_atom_type_partial_charge
C1    C     C_R   0.424711 0.075272 0.487606 0.775884
C2    C     C_R   0.575862 0.925500 0.512422 0.779230
C3    C     C_R   0.575130 0.075115 0.511907 0.771540
C4    C     C_R   0.424028 0.925631 0.487926 0.779105
C5    C     C_R   0.924711 0.575272 0.487606 0.775884
C6    C     C_R   0.075862 0.425501 0.512422 0.779230
C7    C     C_R   0.075130 0.575115 0.511907 0.771539
C8    C     C_R   0.924028 0.425631 0.487926 0.779105
C9    C     C_R   0.470744 0.018234 0.834364 0.301486
C10   C     C_R   0.529190 0.019433 0.165619 0.298991
C11   C     C_R   0.970744 0.518234 0.834364 0.301486
C12   C     C_R   0.029190 0.519433 0.165619 0.298992
C13   C     C_R   0.519528 0.995907 0.888615 -0.185987
C14   C     C_R   0.481321 0.995578 0.111764 -0.186205
C15   C     C_R   0.019528 0.495907 0.888615 -0.185988
C16   C     C_R   0.981321 0.495578 0.111764 -0.186205
C17   C     C_R   0.566520 0.985445 0.852102 0.299875
C18   C     C_R   0.434276 0.984250 0.148041 0.300105
C19   C     C_R   0.066520 0.485445 0.852102 0.299875
C20   C     C_R   0.934276 0.484250 0.148041 0.300105
C21   C     C_R   0.560433 0.986232 0.764463 0.493449
C22   C     C_R   0.439845 0.985654 0.235584 0.480519
C23   C     C_R   0.060433 0.486232 0.764463 0.493449
C24   C     C_R   0.939845 0.485654 0.235584 0.480519
C25   C     C_2   0.523789 0.985548 0.982505 0.451291
C26   C     C_2   0.477877 0.984489 0.018453 0.449080
C27   C     C_2   0.023789 0.485548 0.982505 0.451291
C28   C     C_2   0.977877 0.484489 0.018453 0.449081
C29   C     C_R   0.377583 0.887003 0.478678 -0.003774
C30   C     C_R   0.614724 0.120273 0.519593 -0.002388
C31   C     C_R   0.621851 0.886343 0.522235 -0.007451
C32   C     C_R   0.384082 0.120132 0.478035 -0.016781
C33   C     C_R   0.877583 0.387003 0.478678 -0.003773
C34   C     C_R   0.114724 0.620273 0.519593 -0.002388
C35   C     C_R   0.121851 0.386344 0.522235 -0.007449
C36   C     C_R   0.884082 0.620131 0.478034 -0.016779
C37   C     C_R   0.334020 0.896648 0.521245 -0.188440
C38   C     C_R   0.599057 0.168135 0.472723 -0.185218
C39   C     C_R   0.618441 0.842436 0.466554 -0.211360
C40   C     C_R   0.351194 0.127720 0.538340 -0.208902
C41   C     C_R   0.834020 0.396648 0.521244 -0.188440
C42   C     C_R   0.099057 0.668135 0.472723 -0.185218
C43   C     C_R   0.118440 0.342435 0.466555 -0.211360
C44   C     C_R   0.851194 0.627720 0.538339 -0.208905
C45   C     C_R   0.288571 0.860890 0.511360 -0.141833
C46   C     C_R   0.636641 0.211629 0.478807 -0.137161
C47   C     C_R   0.664219 0.807523 0.471663 -0.147830
C48   C     C_R   0.314616 0.172059 0.531352 -0.141163
C49   C     C_R   0.788571 0.360890 0.511359 -0.141833
C50   C     C_R   0.136640 0.711629 0.478808 -0.137160
C51   C     C_R   0.164219 0.307523 0.471665 -0.147830
C52   C     C_R   0.814616 0.672058 0.531351 -0.141160
C53   C     C_R   0.287349 0.814063 0.461361 0.118147
C54   C     C_R   0.691180 0.206662 0.528706 0.106218
C55   C     C_R   0.715134 0.817980 0.529487 0.120560
C56   C     C_R   0.312095 0.210740 0.465801 0.126542
C57   C     C_R   0.787349 0.314062 0.461361 0.118147
C58   C     C_R   0.191180 0.706662 0.528706 0.106218
C59   C     C_R   0.215134 0.317980 0.529486 0.120559
C60   C     C_R   0.812095 0.710740 0.465800 0.126548
C61   C     C_R   0.331053 0.804402 0.418808 -0.171922
C62   C     C_R   0.706215 0.159072 0.577325 -0.155598
C63   C     C_R   0.717305 0.860658 0.587669 -0.154065
C64   C     C_R   0.343340 0.201716 0.403596 -0.158480
C65   C     C_R   0.831053 0.304402 0.418809 -0.171921
C66   C     C_R   0.206215 0.659072 0.577324 -0.155599
C67   C     C_R   0.217306 0.360659 0.587667 -0.154063
C68   C     C_R   0.843341 0.701716 0.403597 -0.158481
C69   C     C_R   0.375608 0.841385 0.426197 -0.167752
C70   C     C_R   0.667768 0.116198 0.573617 -0.219978
C71   C     C_R   0.670776 0.894524 0.584320 -0.186447
C72   C     C_R   0.379054 0.156632 0.409555 -0.214082
C73   C     C_R   0.875608 0.341385 0.426197 -0.167752
C74   C     C_R   0.167769 0.616197 0.573617 -0.219978
C75   C     C_R   0.170776 0.394525 0.584318 -0.186447
C76   C     C_R   0.879054 0.656632 0.409555 -0.214082
C77   C     C_2   0.241311 0.773602 0.456872 0.315567
C78   C     C_2   0.733164 0.250933 0.530068 0.287010
C79   C     C_2   0.765888 0.783991 0.531402 0.256395
C80   C     C_2   0.275602 0.259682 0.460135 0.253240
C81   C     C_2   0.741311 0.273602 0.456872 0.315567
C82   C     C_2   0.233164 0.750933 0.530068 0.287010
C83   C     C_2   0.265888 0.283991 0.531402 0.256398
C84   C     C_2   0.775602 0.759682 0.460135 0.253240
C85   C     C_R   0.466282 0.016995 0.745994 -0.148415
C86   C     C_R   0.533465 0.018022 0.253926 -0.149894
C87   C     C_R   0.966282 0.516995 0.745994 -0.148416
C88   C     C_R   0.033465 0.518022 0.253926 -0.149893
Cu1   Cu    Cu3+1 0.495980 1.000000 0.415120 0.942815
Cu2   Cu    Cu3+1 0.504020 1.000000 0.584880 0.948336
Cu3   Cu    Cu3+1 0.995980 0.500000 0.415120 0.942815
Cu4   Cu    Cu3+1 0.004020 0.500000 0.584880 0.948336
H1    H     H_    0.334763 0.932333 0.560895 0.130684
H2    H     H_    0.557507 0.172017 0.432374 0.129828
H3    H     H_    0.580331 0.835142 0.419396 0.142008
H4    H     H_    0.353521 0.099209 0.590522 0.136888
H5    H     H_    0.834763 0.432333 0.560895 0.130683
H6    H     H_    0.057507 0.672018 0.432375 0.129828
H7    H     H_    0.080330 0.335141 0.419398 0.142008
H8    H     H_    0.853520 0.599208 0.590521 0.136887
H9    H     H_    0.679851 0.079386 0.610751 0.127085
H10   H     H_    0.409085 0.833817 0.392793 0.144174
H11   H     H_    0.403930 0.151217 0.361967 0.148474
H12   H     H_    0.673827 0.928458 0.627770 0.164464
H13   H     H_    0.179852 0.579386 0.610751 0.127085
H14   H     H_    0.909086 0.333817 0.392793 0.144173
H15   H     H_    0.903932 0.651218 0.361968 0.148474
H16   H     H_    0.173828 0.428460 0.627767 0.164461
H17   H     H_    0.330626 0.768220 0.380339 0.146505
H18   H     H_    0.747911 0.154849 0.617025 0.157917
H19   H     H_    0.755325 0.868761 0.634432 0.153624
H20   H     H_    0.341064 0.229985 0.351238 0.146379
H21   H     H_    0.830627 0.268219 0.380339 0.146504
H22   H     H_    0.247911 0.654849 0.617025 0.157917
H23   H     H_    0.255326 0.368763 0.634429 0.153625
H24   H     H_    0.841065 0.729985 0.351239 0.146378
H25   H     H_    0.623293 0.248935 0.444147 0.134457
H26   H     H_    0.254665 0.869286 0.543495 0.117290
H27   H     H_    0.288403 0.175962 0.577398 0.171062
H28   H     H_    0.659639 0.772686 0.429875 0.175897
H29   H     H_    0.123293 0.748936 0.444148 0.134457
H30   H     H_    0.754665 0.369286 0.543495 0.117290
H31   H     H_    0.788402 0.675961 0.577396 0.171061
H32   H     H_    0.159639 0.272685 0.429877 0.175896
H33   H     H_    0.428059 0.030998 0.704276 0.153164
H34   H     H_    0.571230 0.032905 0.295483 0.166814
H35   H     H_    0.928059 0.530998 0.704276 0.153164
H36   H     H_    0.071231 0.532905 0.295483 0.166813
N1    N     N_R   0.510090 0.000000 0.712400 -0.250462
N2    N     N_R   0.489910 0.000000 0.287600 -0.254632
N3    N     N_R   0.010090 0.500000 0.712400 -0.250462
N4    N     N_R   0.989910 0.500000 0.287600 -0.254632
O1    O     O_R   0.439420 0.056820 0.420010 -0.610598
O2    O     O_R   0.560580 0.943180 0.579990 -0.551219
O3    O     O_R   0.560580 0.056820 0.579990 -0.604939
O4    O     O_R   0.439420 0.943180 0.420010 -0.554045
O5    O     O_R   0.939420 0.556820 0.420010 -0.610598
O6    O     O_R   0.060580 0.443180 0.579990 -0.551219
O7    O     O_R   0.060580 0.556820 0.579990 -0.604939
O8    O     O_R   0.939420 0.443180 0.420010 -0.554045
O9    O     O_R   0.446220 0.056810 0.563370 -0.584639
O10   O     O_R   0.553780 0.943190 0.436630 -0.574452
O11   O     O_R   0.553780 0.056810 0.436630 -0.582222
O12   O     O_R   0.446220 0.943190 0.563370 -0.572064
O13   O     O_R   0.946220 0.556810 0.563370 -0.584639
O14   O     O_R   0.053780 0.443190 0.436630 -0.574452
O15   O     O_R   0.053780 0.556810 0.436630 -0.582223
O16   O     O_R   0.946220 0.443190 0.563370 -0.572064
O17   O     O_3   0.568999 0.047191 0.131809 -0.691430
H37   H     H_    0.598805 0.061548 0.178143 0.319643
O18   O     O_3   0.430037 0.044333 0.867823 -0.694888
H38   H     H_    0.399666 0.057845 0.821294 0.314375
O19   O     O_3   0.068999 0.547190 0.131809 -0.691431
H39   H     H_    0.098805 0.561547 0.178143 0.319642
O20   O     O_3   0.930037 0.544333 0.867823 -0.694889
H40   H     H_    0.899666 0.557845 0.821295 0.314375
O21   O     O_3   0.270383 0.763562 0.605301 -0.622958
C89   C     C_3   0.240141 0.780906 0.666043 0.028145
H41   H     H_    0.220363 0.745182 0.691497 0.156699
H42   H     H_    0.206808 0.811244 0.638609 0.122361
C90   C     C_3   0.281240 0.808091 0.738688 -0.302698
H43   H     H_    0.313997 0.777923 0.767706 0.227547
H44   H     H_    0.302398 0.843122 0.713889 0.225794
C91   C     C_3   0.251169 0.828867 0.806140 -0.937981
H45   H     H_    0.218542 0.859511 0.778601 0.256625
H46   H     H_    0.282149 0.848708 0.857507 0.259409
H47   H     H_    0.230955 0.794267 0.833441 0.258678
O22   O     O_3   0.711553 0.253099 0.379849 -0.631918
C92   C     C_3   0.699250 0.293825 0.315681 0.057923
H48   H     H_    0.682291 0.272476 0.255323 0.173154
H49   H     H_    0.737404 0.315740 0.305544 0.152053
C93   C     C_3   0.654133 0.334272 0.331308 -0.396311
H50   H     H_    0.614233 0.311847 0.331042 0.215189
H51   H     H_    0.667944 0.354228 0.393668 0.203863
C94   C     C_3   0.642916 0.378677 0.263086 -0.886159
H52   H     H_    0.681910 0.402648 0.263274 0.261758
H53   H     H_    0.609836 0.406958 0.275499 0.253207
H54   H     H_    0.628111 0.360037 0.199928 0.253567
O23   O     O_3   0.747151 0.776022 0.380184 -0.627567
C95   C     C_3   0.767615 0.827556 0.359689 0.029718
H55   H     H_    0.812308 0.823971 0.353561 0.130168
H56   H     H_    0.764913 0.858917 0.408273 0.136950
C96   C     C_3   0.731777 0.847069 0.275584 -0.300511
H57   H     H_    0.734331 0.816651 0.225776 0.222718
H58   H     H_    0.687106 0.850313 0.281577 0.230580
C97   C     C_3   0.751304 0.902770 0.249375 -0.931971
H59   H     H_    0.747585 0.934139 0.297258 0.257981
H60   H     H_    0.724525 0.915381 0.187871 0.261476
H61   H     H_    0.795802 0.900493 0.242349 0.255578
O24   O     O_3   0.301113 0.274520 0.609646 -0.624803
C98   C     C_3   0.352860 0.302101 0.613244 0.024049
H62   H     H_    0.345789 0.346601 0.598905 0.124394
H63   H     H_    0.376269 0.284276 0.567679 0.144646
C99   C     C_3   0.389043 0.295813 0.702109 -0.288722
H64   H     H_    0.366546 0.313936 0.748475 0.220694
H65   H     H_    0.396055 0.251543 0.717291 0.227171
C100  C     C_3   0.446003 0.324125 0.709745 -0.937716
H66   H     H_    0.469688 0.305872 0.665023 0.255869
H67   H     H_    0.471164 0.318844 0.774981 0.259467
H68   H     H_    0.440041 0.368638 0.696079 0.254388
O25   O     O_3   0.770383 0.263562 0.605301 -0.622958
C101  C     C_3   0.740141 0.280907 0.666043 0.028145
H69   H     H_    0.720362 0.245182 0.691496 0.156699
H70   H     H_    0.706808 0.311244 0.638609 0.122361
C102  C     C_3   0.781240 0.308092 0.738688 -0.302698
H71   H     H_    0.813996 0.277924 0.767706 0.227547
H72   H     H_    0.802397 0.343122 0.713889 0.225795
C103  C     C_3   0.751168 0.328868 0.806140 -0.937979
H73   H     H_    0.718541 0.359511 0.778601 0.256624
H74   H     H_    0.782148 0.348709 0.857507 0.259408
H75   H     H_    0.730954 0.294268 0.833441 0.258678
O26   O     O_3   0.211552 0.753100 0.379849 -0.631918
C104  C     C_3   0.199250 0.793826 0.315681 0.057923
H76   H     H_    0.182290 0.772477 0.255323 0.173154
H77   H     H_    0.237403 0.815741 0.305544 0.152053
C105  C     C_3   0.154132 0.834272 0.331309 -0.396312
H78   H     H_    0.114233 0.811847 0.331043 0.215189
H79   H     H_    0.167944 0.854228 0.393669 0.203863
C106  C     C_3   0.142916 0.878678 0.263087 -0.886159
H80   H     H_    0.181910 0.902648 0.263275 0.261758
H81   H     H_    0.109836 0.906958 0.275500 0.253208
H82   H     H_    0.128110 0.860038 0.199929 0.253566
O27   O     O_3   0.247150 0.276021 0.380184 -0.627566
C107  C     C_3   0.267613 0.327555 0.359688 0.029720
H83   H     H_    0.312307 0.323971 0.353563 0.130165
H84   H     H_    0.264909 0.358917 0.408270 0.136952
C108  C     C_3   0.231777 0.347066 0.275580 -0.300509
H85   H     H_    0.234334 0.316647 0.225773 0.222715
H86   H     H_    0.187105 0.350308 0.281570 0.230580
C109  C     C_3   0.251303 0.402767 0.249370 -0.931961
H87   H     H_    0.247579 0.434137 0.297251 0.257980
H88   H     H_    0.224525 0.415376 0.187864 0.261474
H89   H     H_    0.295802 0.400492 0.242349 0.255575
O28   O     O_3   0.801112 0.774518 0.609646 -0.624803
C110  C     C_3   0.852859 0.802100 0.613247 0.024057
H90   H     H_    0.845789 0.846601 0.598927 0.124401
H91   H     H_    0.876264 0.784284 0.567670 0.144630
C111  C     C_3   0.889048 0.795797 0.702106 -0.288716
H92   H     H_    0.866554 0.813909 0.748485 0.220698
H93   H     H_    0.896061 0.751524 0.717268 0.227166
C112  C     C_3   0.946007 0.824111 0.709746 -0.937712
H94   H     H_    0.969687 0.805870 0.665008 0.255868
H95   H     H_    0.971174 0.818817 0.774976 0.259467
H96   H     H_    0.940043 0.868627 0.696104 0.254387
O29   O     O_3   0.392815 0.973537 0.266723 -0.703982
H97   H     H_    0.390693 0.001088 0.310135 0.344849
O30   O     O_3   0.607207 0.973739 0.733226 -0.715071
H98   H     H_    0.609382 0.001101 0.689055 0.335109
O31   O     O_3   0.892815 0.473537 0.266723 -0.703982
H99   H     H_    0.890693 0.501088 0.310135 0.344849
O32   O     O_3   0.107207 0.473739 0.733226 -0.715070
H100  H     H_    0.109382 0.501101 0.689055 0.335109
O33   O     O_3   0.427029 0.966747 0.969281 -0.579018
C113  C     C_3   0.423707 0.908663 0.970821 0.076612
H101  H     H_    0.382257 0.897350 0.984868 0.198657
H102  H     H_    0.456286 0.888652 0.020830 0.109559
C114  C     C_3   0.426196 0.885384 0.884185 -0.369745
H103  H     H_    0.390755 0.902287 0.835856 0.233933
H104  H     H_    0.466353 0.897297 0.866653 0.209912
C115  C     C_3   0.422459 0.822989 0.884348 -0.924247
H105  H     H_    0.459191 0.805348 0.929338 0.257094
H106  H     H_    0.422613 0.807423 0.820154 0.265668
H107  H     H_    0.383013 0.809417 0.902786 0.257489
O34   O     O_3   0.575674 0.971005 0.032368 -0.579749
C116  C     C_3   0.582115 0.913160 0.035659 0.082686
H108  H     H_    0.624351 0.903615 0.023179 0.201690
H109  H     H_    0.550986 0.890776 0.986892 0.111509
C117  C     C_3   0.580229 0.891376 0.123892 -0.379617
H110  H     H_    0.612410 0.912883 0.171730 0.240370
H111  H     H_    0.538197 0.899167 0.138041 0.205340
C118  C     C_3   0.591430 0.829852 0.130627 -0.924628
H112  H     H_    0.558840 0.807580 0.084514 0.258364
H113  H     H_    0.589930 0.815306 0.195223 0.259325
H114  H     H_    0.633729 0.820567 0.118206 0.258076
O35   O     O_3   0.927029 0.466747 0.969281 -0.579018
C119  C     C_3   0.923707 0.408664 0.970821 0.076611
H115  H     H_    0.882257 0.397350 0.984868 0.198657
H116  H     H_    0.956286 0.388652 0.020829 0.109560
C120  C     C_3   0.926195 0.385384 0.884185 -0.369745
H117  H     H_    0.890754 0.402288 0.835856 0.233933
H118  H     H_    0.966353 0.397297 0.866652 0.209912
C121  C     C_3   0.922459 0.322989 0.884347 -0.924246
H119  H     H_    0.959191 0.305349 0.929337 0.257093
H120  H     H_    0.922613 0.307423 0.820153 0.265668
H121  H     H_    0.883013 0.309418 0.902786 0.257489
O36   O     O_3   0.075674 0.471005 0.032368 -0.579749
C122  C     C_3   0.082115 0.413160 0.035658 0.082687
H122  H     H_    0.124350 0.403614 0.023179 0.201689
H123  H     H_    0.050986 0.390776 0.986891 0.111509
C123  C     C_3   0.080228 0.391375 0.123891 -0.379617
H124  H     H_    0.112409 0.412882 0.171730 0.240370
H125  H     H_    0.038197 0.399166 0.138040 0.205340
C124  C     C_3   0.091429 0.329851 0.130625 -0.924629
H126  H     H_    0.058838 0.307580 0.084512 0.258364
H127  H     H_    0.089928 0.315304 0.195221 0.259325
H128  H     H_    0.133728 0.320566 0.118205 0.258076
O37   O     O_3   0.619722 0.974965 0.900504 -0.574628
C125  C     C_3   0.646109 0.024826 0.931676 0.152557
H129  H     H_    0.676379 0.015067 0.991561 0.179713
H130  H     H_    0.616120 0.055554 0.947919 0.151466
C126  C     C_3   0.678899 0.049972 0.869478 -0.383158
H131  H     H_    0.706695 0.018397 0.850518 0.250135
H132  H     H_    0.648922 0.064792 0.812205 0.213454
C127  C     C_3   0.714833 0.098337 0.908514 -0.930787
H133  H     H_    0.687777 0.130616 0.927342 0.260421
H134  H     H_    0.737380 0.116033 0.861588 0.260184
H135  H     H_    0.746495 0.084731 0.964813 0.259818
O38   O     O_3   0.381508 0.972448 0.099463 -0.574264
C128  C     C_3   0.354500 0.021476 0.064806 0.150026
H136  H     H_    0.324958 0.010469 0.005022 0.180752
H137  H     H_    0.384180 0.052391 0.047527 0.152006
C129  C     C_3   0.320503 0.046997 0.124522 -0.378570
H138  H     H_    0.292868 0.015347 0.144391 0.253358
H139  H     H_    0.349702 0.062839 0.181535 0.213890
C130  C     C_3   0.284166 0.094429 0.082038 -0.922882
H140  H     H_    0.311052 0.126789 0.062293 0.259684
H141  H     H_    0.260659 0.112412 0.127160 0.266219
H142  H     H_    0.253314 0.079759 0.025847 0.258509
O39   O     O_3   0.119722 0.474965 0.900504 -0.574628
C131  C     C_3   0.146109 0.524826 0.931676 0.152557
H143  H     H_    0.176379 0.515067 0.991561 0.179713
H144  H     H_    0.116121 0.555554 0.947919 0.151466
C132  C     C_3   0.178899 0.549972 0.869478 -0.383158
H145  H     H_    0.206695 0.518397 0.850518 0.250135
H146  H     H_    0.148922 0.564792 0.812205 0.213454
C133  C     C_3   0.214833 0.598337 0.908515 -0.930787
H147  H     H_    0.187777 0.630615 0.927342 0.260421
H148  H     H_    0.237380 0.616033 0.861588 0.260184
H149  H     H_    0.246495 0.584731 0.964813 0.259818
O40   O     O_3   0.881508 0.472449 0.099463 -0.574264
C134  C     C_3   0.854500 0.521477 0.064806 0.150026
H150  H     H_    0.824959 0.510469 0.005022 0.180752
H151  H     H_    0.884180 0.552391 0.047527 0.152005
C135  C     C_3   0.820503 0.546998 0.124522 -0.378568
H152  H     H_    0.792868 0.515347 0.144391 0.253358
H153  H     H_    0.849702 0.562840 0.181535 0.213890
C136  C     C_3   0.784166 0.594429 0.082038 -0.922882
H154  H     H_    0.811052 0.626789 0.062293 0.259684
H155  H     H_    0.760659 0.612412 0.127160 0.266219
H156  H     H_    0.753314 0.579759 0.025847 0.258509

loop_
_geom_bond_atom_site_label_1
_geom_bond_atom_site_label_2
_ccdc_geom_bond_type
C45   H26   S    
C99   H65   S    
C71   H12   S    
O21   C89   S    
C123  C124  S    
O27   C107  S    
C34   C42   A    
C105  C106  S    
C136  H154  S    
C21   O30   S    
C126  H131  S    
C121  H119  S    
C2    O2    A    
C24   O31   S    
C43   H7    S    
C58   C82   S    
C6    O14   A    
C64   H20   S    
C99   C100  S    
C118  H112  S    
C5    C36   S    
C6    C35   S    
C30   C38   A    
C100  H67   S    
C9    C13   A    
C113  H102  S    
C85   N1    A    
C11   C15   A    
C127  H135  S    
C12   C16   A    
C122  H123  S    
C133  H147  S    
C93   C94   S    
C128  H137  S    
Cu1   O4    S    
O29   H97   S    
C22   N2    A    
C50   H29   S    
C80   C83   D    
C41   C49   A    
C90   H44   S    
C95   H56   S    
C29   C69   A    
C104  H77   S    
C111  H93   S    
C101  H69   S    
C132  H145  S    
C131  C132  S    
C5    O13   A    
C94   H53   S    
Cu1   O11   S    
C17   C21   A    
C46   H25   S    
C19   C23   A    
C96   H57   S    
C15   C27   S    
C108  H85   S    
C16   C20   A    
C133  H149  S    
C14   C26   S    
C109  H88   S    
C68   H24   S    
C33   C73   A    
O22   C92   S    
C63   C71   A    
C76   H15   S    
C89   H41   S    
C36   C44   A    
C125  H129  S    
C37   C45   A    
C136  H156  S    
C39   C47   A    
C126  C127  S    
C40   C48   A    
C102  H71   S    
C9    O18   S    
C65   H21   S    
C79   O28   S    
C4    O12   A    
C5    O5    A    
C72   H11   S    
C8    O8    A    
C98   C99   S    
C80   O27   S    
C135  C136  S    
C77   C82   D    
Cu2   O2    S    
C120  H118  S    
C63   H19   S    
Cu2   O9    S    
Cu3   O8    S    
O26   C104  S    
O20   H40   S    
C114  H104  S    
C97   H59   S    
Cu4   O7    S    
C27   O36   S    
O24   C98   S    
C86   H34   S    
C83   O24   S    
Cu3   O15   S    
C70   H9    S    
C20   O40   S    
C62   C70   A    
O31   H99   S    
C105  H79   S    
C10   O17   S    
C79   C84   D    
C66   C74   A    
C49   C57   A    
C129  H138  S    
C112  H94   S    
C87   N3    A    
C52   C60   A    
C59   C67   A    
Cu2   N1    S    
C53   C61   A    
C11   C87   A    
O34   C116  S    
C55   C63   A    
C56   C64   A    
C35   C43   A    
C89   C90   S    
C11   O20   S    
C44   C52   A    
C127  H134  S    
C45   C53   A    
C92   H49   S    
C1    O1    A    
C93   H51   S    
C7    O15   A    
C102  H72   S    
C17   O37   S    
Cu1   O1    S    
C12   C88   A    
C37   H1    S    
C10   C14   A    
C96   C97   S    
Cu3   Cu4   S    
C25   O34   S    
C135  H152  S    
C86   N2    A    
C28   O35   S    
C113  C114  S    
C25   C26   D    
O23   C95   S    
C132  H146  S    
C131  H144  S    
C124  H126  S    
C120  H117  S    
C21   N1    A    
C23   N3    A    
C116  H109  S    
C39   H3    S    
C42   C50   A    
C47   H28   S    
C108  H86   S    
C2    O10   A    
C110  C111  S    
C41   H5    S    
C67   C75   A    
C10   C86   A    
C130  H142  S    
C18   C22   A    
C19   O39   S    
C115  H105  S    
C26   O33   S    
C68   C76   A    
C121  H120  S    
C56   C80   S    
C129  C130  S    
C13   C17   A    
C112  H96   S    
C74   H13   S    
Cu2   O3    S    
C44   H8    S    
C100  H66   S    
C134  C135  S    
C38   C46   A    
C130  H140  S    
C119  H115  S    
C121  H121  S    
C133  H148  S    
C54   C78   S    
Cu2   O12   S    
C118  H114  S    
Cu4   O16   S    
O35   C119  S    
C78   O25   S    
Cu4   O6    S    
C107  H83   S    
C90   H43   S    
C110  H90   S    
O32   H100  S    
C32   C72   A    
C104  H76   S    
C93   H50   S    
C15   C19   A    
C111  C112  S    
C101  H70   S    
C91   H45   S    
C59   C83   S    
C124  H128  S    
C42   H6    S    
C102  C103  S    
Cu1   O10   S    
C118  H113  S    
C123  H124  S    
O37   C125  S    
C23   O32   S    
C77   O26   S    
C136  H155  S    
C103  H73   S    
C101  C102  S    
O18   H38   S    
C48   H27   S    
C4    C29   S    
C4    O4    A    
C99   H64   S    
C75   H16   S    
C89   H42   S    
C51   H32   S    
C8    O16   A    
C125  H130  S    
C40   H4    S    
C115  H107  S    
C30   C70   A    
C94   H54   S    
C126  H132  S    
C50   C58   A    
C92   H48   S    
O40   C134  S    
C106  H80   S    
Cu3   N4    S    
C54   C62   A    
C69   H10   S    
Cu1   N2    S    
C98   H62   S    
C125  C126  S    
C100  H68   S    
C53   C77   S    
C134  H150  S    
C98   H63   S    
C113  H101  S    
C55   C79   S    
C24   N4    A    
C122  H122  S    
C119  C120  S    
C46   C54   A    
C122  C123  S    
C3    O11   A    
C34   C74   A    
C7    C34   S    
O28   C110  S    
C97   H60   S    
C107  C108  S    
C90   C91   S    
C95   H55   S    
C104  C105  S    
C111  H92   S    
C66   H22   S    
C91   H47   S    
C57   C65   A    
C33   C41   A    
C114  C115  S    
C97   H61   S    
O17   H37   S    
C78   C81   D    
C43   C51   A    
O33   C113  S    
C103  H75   S    
C81   O22   S    
C129  H139  S    
C3    O3    A    
C109  H87   S    
C1    O9    A    
O39   C131  S    
C117  H110  S    
C60   C68   A    
C88   H36   S    
C29   C37   A    
Cu1   Cu2   S    
C106  H82   S    
C16   C28   S    
C84   O23   S    
O25   C101  S    
C14   C18   A    
C85   H33   S    
C12   O19   S    
C61   H17   S    
C87   H35   S    
C128  H136  S    
C35   C75   A    
C114  H103  S    
C96   H58   S    
O36   C122  S    
C52   H31   S    
C135  H153  S    
C65   C73   A    
C109  H89   S    
C120  C121  S    
C67   H23   S    
C36   C76   A    
Cu3   O5    S    
C58   C66   A    
C94   H52   S    
C116  H108  S    
C95   C96   S    
C9    C85   A    
C32   C40   A    
C110  H91   S    
C13   C25   S    
C130  H141  S    
C20   C24   A    
Cu4   N3    S    
C105  H78   S    
C115  H106  S    
C82   O21   S    
C1    C32   S    
C2    C31   S    
C112  H95   S    
C6    O6    A    
C3    C30   S    
C106  H81   S    
C62   H18   S    
C117  C118  S    
C38   H2    S    
C18   O38   S    
C134  H151  S    
C127  H133  S    
C119  H116  S    
C92   C93   S    
C57   C81   S    
C51   C59   A    
C88   N4    A    
O38   C128  S    
C47   C55   A    
C128  C129  S    
C61   C69   A    
C48   C56   A    
Cu4   O13   S    
C117  H111  S    
C107  H84   S    
C22   O29   S    
O30   H98   S    
C132  C133  S    
C131  H143  S    
C91   H46   S    
C124  H127  S    
C7    O7    A    
C60   C84   S    
C73   H14   S    
C49   H30   S    
C31   C71   A    
C31   C39   A    
C123  H125  S    
C8    C33   S    
C64   C72   A    
C116  C117  S    
C108  C109  S    
C103  H74   S    
C27   C28   D    
O19   H39   S    
Cu3   O14   S    
