data_mof_unit_10624.cif
_audit_creation_date              2012-12-10T16:55:49-0500
_audit_creation_method            fapswitch 2.2
_symmetry_space_group_name_H-M    P1
_symmetry_Int_Tables_number       1
_space_group_crystal_system       triclinic
_cell_length_a                    7.783722
_cell_length_b                    8.571454
_cell_length_c                    10.49961
_cell_angle_alpha                 91.31388
_cell_angle_beta                  84.899186
_cell_angle_gamma                 93.869956
_cell_volume                      696.044885487

loop_
_atom_site_label
_atom_site_type_symbol
_atom_type_description
_atom_site_fract_x
_atom_site_fract_y
_atom_site_fract_z
_atom_type_partial_charge
C1    C     C_R   0.545903 0.794759 0.496700 0.959886
C2    C     C_3   0.499793 0.504138 0.877274 -0.023860
C3    C     C_3   0.360059 0.411405 0.048377 -0.222787
C4    C     C_3   0.639941 0.588595 0.951623 -0.222788
C5    C     C_2   0.569969 0.958380 0.494737 -0.386697
C6    C     C_2   0.430031 0.041619 0.505263 -0.386697
C7    C     C_3   0.192156 0.634864 0.941272 -0.905022
C8    C     C_3   0.807844 0.365136 0.058728 -0.905022
C9    C     C_R   0.454097 0.205241 0.503299 0.959886
C10   C     C_R   0.500913 0.503720 0.742426 0.877922
C11   C     C_R   0.499087 0.496280 0.257574 0.877922
C12   C     C_3   0.356293 0.561875 0.972019 0.273506
C13   C     C_3   0.643707 0.438125 0.027981 0.273506
C14   C     C_3   0.494971 0.646897 0.048516 -0.231373
C15   C     C_3   0.505029 0.353103 0.951484 -0.231373
C16   C     C_3   0.500207 0.495862 0.122726 -0.023860
H1    H     H_    0.489545 0.765893 0.092217 0.142532
H2    H     H_    0.226172 0.739316 0.881361 0.238960
H3    H     H_    0.110188 0.548796 0.889132 0.254291
H4    H     H_    0.881317 0.329274 0.968579 0.236229
H5    H     H_    0.889812 0.451204 0.110868 0.254291
H6    H     H_    0.773828 0.260684 0.118639 0.238960
H7    H     H_    0.510455 0.234107 0.907783 0.142532
H8    H     H_    0.245941 0.340290 0.091481 0.148466
H9    H     H_    0.754059 0.659710 0.908519 0.148466
H10   H     H_    0.013833 0.382198 0.403483 0.188719
H11   H     H_    0.986167 0.617802 0.596517 0.188719
H12   H     H_    0.702005 0.009779 0.484624 0.180398
H13   H     H_    0.297995 0.990221 0.515376 0.180398
H14   H     H_    0.118682 0.670726 0.031421 0.236229
N1    N     N_2   0.950320 0.457950 0.465730 -0.174380
N2    N     N_2   0.049680 0.542050 0.534270 -0.174380
O1    O     O_R   0.389250 0.738570 0.508410 -0.612805
O2    O     O_R   0.610750 0.261430 0.491590 -0.612805
O3    O     O_R   0.678390 0.711620 0.486450 -0.630757
O4    O     O_R   0.321610 0.288380 0.513550 -0.630757
O5    O     O_R   0.355460 0.513510 0.697030 -0.616624
O6    O     O_R   0.644540 0.486490 0.302970 -0.616624
O7    O     O_R   0.644600 0.486560 0.675070 -0.630054
O8    O     O_R   0.355400 0.513440 0.324930 -0.630054
Zn1   Zn    Zn3+2 0.306940 0.517990 0.514670 0.933450
Zn2   Zn    Zn3+2 0.693060 0.482010 0.485330 0.933450

loop_
_geom_bond_atom_site_label_1
_geom_bond_atom_site_label_2
_ccdc_geom_bond_type
C9    O4    A    
C2    C4    S    
N2    Zn1   S    
C8    C13   S    
N1    Zn2   S    
C11   O6    A    
C5    H12   S    
C11   C16   S    
C8    H6    S    
N1    N2    D    
O2    Zn2   S    
C7    H2    S    
O1    Zn1   S    
C6    C9    S    
C15   H7    S    
C8    H5    S    
O4    Zn1   S    
C1    O1    A    
H10   N1    S    
C7    H14   S    
C4    C14   S    
C2    C15   S    
C14   H1    S    
C3    H8    S    
C8    H4    S    
C10   O5    A    
C1    C5    S    
O8    Zn1   S    
C12   C14   S    
C9    O2    A    
O6    Zn2   S    
O7    Zn2   S    
C7    H3    S    
C13   C15   S    
O5    Zn1   S    
C5    C6    D    
C14   C16   S    
C7    C12   S    
C11   O8    A    
C2    C10   S    
C4    H9    S    
C6    H13   S    
C3    C15   S    
C1    O3    A    
C2    C12   S    
C13   C16   S    
C4    C13   S    
O3    Zn2   S    
C3    C12   S    
H11   N2    S    
C3    C16   S    
C10   O7    A    
