data_mof_unit_46883.cif
_audit_creation_date              2012-12-11T17:47:33-0500
_audit_creation_method            fapswitch 2.2
_symmetry_space_group_name_H-M    P1
_symmetry_Int_Tables_number       1
_space_group_crystal_system       triclinic
_cell_length_a                    15.102365
_cell_length_b                    14.920501
_cell_length_c                    15.226033
_cell_angle_alpha                 110.081413
_cell_angle_beta                  108.905686
_cell_angle_gamma                 108.789077
_cell_volume                      2661.41475947

loop_
_atom_site_label
_atom_site_type_symbol
_atom_type_description
_atom_site_fract_x
_atom_site_fract_y
_atom_site_fract_z
_atom_type_partial_charge
C1    C     C_R   0.940037 0.213194 0.024482 -0.099964
C2    C     C_R   0.965579 0.036453 0.052840 0.409028
C3    C     C_R   0.145131 0.093247 0.763655 0.317961
C4    C     C_R   0.737070 0.872815 0.141297 0.338049
C5    C     C_R   0.065166 0.041499 0.784009 -0.132281
C6    C     C_R   0.822206 0.889158 0.119791 -0.142409
C7    C     C_R   0.676718 0.321589 0.166353 -0.299397
C8    C     C_R   0.357733 0.741933 0.893020 -0.335952
C9    C     C_R   0.772518 0.393708 0.264091 0.275459
C10   C     C_R   0.292141 0.655189 0.786898 0.273480
C11   C     C_R   0.838871 0.353499 0.305196 0.131315
C12   C     C_R   0.028169 0.755917 0.942239 -0.085456
C13   C     C_R   0.224755 0.669128 0.709702 0.117493
C14   C     C_R   0.807335 0.242111 0.248281 -0.334279
C15   C     C_R   0.232680 0.772718 0.737737 -0.301395
C16   C     C_R   0.298314 0.800698 0.208866 -0.136246
C17   C     C_R   0.686837 0.241595 0.776417 -0.115912
C18   C     C_R   0.714275 0.172475 0.148989 -0.133477
C19   C     C_R   0.299785 0.858775 0.843294 -0.132649
C20   C     C_R   0.649667 0.212474 0.107257 0.531488
C21   C     C_R   0.359852 0.842451 0.921698 0.514516
C22   C     C_R   0.939797 0.443620 0.501782 0.222075
C23   C     C_R   0.302587 0.860095 0.304142 0.064062
C24   C     C_R   0.136151 0.560540 0.510990 0.215643
C25   C     C_R   0.036655 0.509964 0.598344 -0.022054
C26   C     C_R   0.040143 0.488284 0.412908 -0.021231
C27   C     C_R   0.133276 0.574827 0.605113 -0.022877
C28   C     C_R   0.942410 0.426783 0.407568 -0.046802
C29   C     C_R   0.093196 0.040873 0.880501 0.159149
C30   C     C_R   0.811383 0.886923 0.024189 0.151279
C31   C     C_R   0.280728 0.128112 0.928936 -0.172672
C32   C     C_R   0.629900 0.855654 0.972564 -0.155630
C33   C     C_R   0.115017 0.014441 0.372995 -0.094808
C34   C     C_R   0.679435 0.214508 0.675979 0.044699
C35   C     C_R   0.835190 0.037374 0.546743 -0.091324
C36   C     C_R   0.219918 0.044402 0.392498 -0.110966
C37   C     C_R   0.738627 0.027681 0.542276 -0.130384
C38   C     C_R   0.287272 0.029856 0.468233 0.105409
C39   C     C_R   0.682952 0.065432 0.484493 0.090506
C40   C     C_R   0.221819 0.407869 0.933478 -0.147695
C41   C     C_R   0.788116 0.591154 0.092165 -0.160681
C42   C     C_R   0.250499 0.989589 0.527620 -0.187286
C43   C     C_R   0.720147 0.104766 0.425010 -0.160692
C44   C     C_R   0.143196 0.952355 0.502125 -0.120832
C45   C     C_R   0.320056 0.499420 0.986841 0.070321
C46   C     C_R   0.818905 0.118466 0.433635 -0.106647
C47   C     C_R   0.075457 0.965046 0.425026 -0.128263
C48   C     C_R   0.877194 0.086423 0.495744 -0.148675
C49   C     C_R   0.484737 0.126663 0.564567 -0.226015
C50   C     C_R   0.491729 0.981730 0.396240 -0.197967
C51   C     C_R   0.583041 0.136953 0.573002 0.072511
C52   C     C_R   0.393792 0.964898 0.391115 0.065070
C53   C     C_R   0.585784 0.064803 0.485679 0.017913
C54   C     C_R   0.389398 0.040847 0.473719 0.019934
C55   C     C_R   0.252803 0.132559 0.834241 -0.118594
C56   C     C_R   0.696158 0.500017 0.057724 0.053768
C57   C     C_R   0.641811 0.859266 0.068860 -0.124717
C58   C     C_R   0.905967 0.924696 0.010040 -0.144086
C59   C     C_R   0.010672 0.001530 0.909664 -0.155653
C60   C     C_R   0.201331 0.083734 0.952862 -0.157539
C61   C     C_R   0.714077 0.868602 0.949838 -0.159920
C62   C     C_R   0.916063 0.852876 0.930198 -0.096133
C63   C     C_R   0.006666 0.074745 0.995075 -0.114281
C64   C     C_R   0.053567 0.589635 0.312780 -0.138343
C65   C     C_R   0.992488 0.412393 0.695705 -0.186724
C66   C     C_3   0.491361 0.395714 0.991924 -0.263337
C67   C     C_R   0.035052 0.495557 0.319865 0.109273
C68   C     C_3   0.526122 0.602355 0.064498 -0.250933
C69   C     C_3   0.445150 0.440180 0.922147 0.370405
C70   C     C_3   0.572600 0.557922 0.134215 0.363224
C71   C     C_3   0.417989 0.498105 0.004914 0.086401
C72   C     C_3   0.599865 0.500076 0.051417 0.096851
C73   C     C_3   0.463027 0.454130 0.075592 -0.201614
C74   C     C_3   0.553767 0.543943 0.980621 -0.198088
C75   C     C_R   0.312244 0.591985 0.029094 -0.119515
C76   C     C_R   0.697993 0.408846 0.998397 -0.132969
C77   C     C_R   0.973843 0.406960 0.218642 -0.105205
C78   C     C_R   0.034953 0.506579 0.690461 0.103028
C79   C     C_R   0.072792 0.595184 0.786168 -0.068898
C80   C     C_R   0.210465 0.798373 0.302237 -0.132047
C81   C     C_R   0.781710 0.254841 0.689778 -0.117683
C82   C     C_R   0.045527 0.227801 0.949947 -0.158819
C83   C     C_R   0.928833 0.743489 0.023606 -0.147743
C84   C     C_R   0.006816 0.174813 0.999021 0.171852
C85   C     C_R   0.947732 0.777345 0.954591 0.149720
C86   C     C_3   0.115218 0.115482 0.673134 -1.097637
C87   C     C_3   0.750077 0.870593 0.241727 -1.053706
C88   C     C_3   0.801659 0.511955 0.321528 -0.981389
C89   C     C_R   0.954614 0.889420 0.870155 0.405885
C90   C     C_3   0.292694 0.548710 0.758412 -0.987933
C91   C     C_3   0.831931 0.398989 0.498750 -0.913742
C92   C     C_3   0.241407 0.623400 0.516778 -0.948922
C93   C     C_3   0.376728 0.372121 0.800549 -1.052658
C94   C     C_3   0.639695 0.623912 0.255662 -1.022417
Cl1   Cl    Cl    0.538108 0.127371 0.978294 -0.744491
Cl2   Cl    Cl    0.434783 0.946365 0.056578 -0.711221
Cl3   Cl    Cl    0.938283 0.794705 0.749160 -0.702712
Cl4   Cl    Cl    0.989187 0.127505 0.179855 -0.757290
H1    H     H_    0.880693 0.176105 0.044141 0.143571
H2    H     H_    0.301530 0.936545 0.864747 0.199120
H3    H     H_    0.981911 0.010602 0.730445 0.136005
H4    H     H_    0.897390 0.904741 0.178061 0.122829
H5    H     H_    0.422807 0.416903 0.113253 0.143209
H6    H     H_    0.592634 0.581574 0.942293 0.143917
H7    H     H_    0.349344 0.829103 0.177459 0.142450
H8    H     H_    0.622037 0.220971 0.794523 0.120118
H9    H     H_    0.223940 0.083439 0.027897 0.151449
H10   H     H_    0.705470 0.870054 0.876952 0.135382
H11   H     H_    0.992686 0.937327 0.406282 0.112960
H12   H     H_    0.071037 0.782536 0.903941 0.146676
H13   H     H_    0.952628 0.095803 0.499955 0.135001
H14   H     H_    0.064086 0.027279 0.315715 0.161406
H15   H     H_    0.877133 0.007036 0.589700 0.120865
H16   H     H_    0.247729 0.075967 0.346666 0.131610
H17   H     H_    0.708485 0.993288 0.585294 0.121963
H18   H     H_    0.301547 0.977138 0.585673 0.133833
H19   H     H_    0.674223 0.128040 0.375184 0.150004
H20   H     H_    0.112609 0.913529 0.542109 0.141386
H21   H     H_    0.850203 0.152806 0.391691 0.135993
H22   H     H_    0.482048 0.183280 0.629913 0.132917
H23   H     H_    0.363943 0.161475 0.985188 0.197994
H24   H     H_    0.496991 0.923917 0.334251 0.133665
H25   H     H_    0.479842 0.311806 0.964585 0.153758
H26   H     H_    0.537959 0.686290 0.093696 0.138706
H27   H     H_    0.201708 0.324595 0.885372 0.117399
H28   H     H_    0.813681 0.675012 0.146324 0.101912
H29   H     H_    0.093959 0.672806 0.377632 0.112425
H30   H     H_    0.967015 0.330098 0.637517 0.131423
H31   H     H_    0.373513 0.676670 0.072786 0.096237
H32   H     H_    0.640635 0.324337 0.964186 0.138914
H33   H     H_    0.945266 0.323051 0.197789 0.154011
H34   H     H_    0.556762 0.845734 0.916546 0.170045
H35   H     H_    0.117877 0.680054 0.812083 0.116889
H36   H     H_    0.182775 0.819618 0.358509 0.123625
H37   H     H_    0.805757 0.255812 0.631087 0.129471
H38   H     H_    0.094796 0.217079 0.915480 0.117210
H39   H     H_    0.870653 0.744324 0.048626 0.111359
H40   H     H_    0.314884 0.169238 0.817398 0.142643
H41   H     H_    0.577543 0.851864 0.087460 0.152042
H42   H     H_    0.183445 0.146227 0.658777 0.284099
H43   H     H_    0.047884 0.039106 0.600036 0.258569
H44   H     H_    0.088746 0.177649 0.691667 0.250261
H45   H     H_    0.624518 0.351077 0.134963 0.165298
H46   H     H_    0.683344 0.871877 0.257157 0.269191
H47   H     H_    0.754058 0.796175 0.235298 0.254167
H48   H     H_    0.826997 0.941592 0.309411 0.264057
H49   H     H_    0.741763 0.517902 0.346549 0.259953
H50   H     H_    0.881438 0.563691 0.394503 0.258096
H51   H     H_    0.803093 0.545809 0.267426 0.256682
H52   H     H_    0.311968 0.526412 0.692276 0.253632
H53   H     H_    0.354125 0.555813 0.828385 0.261110
H54   H     H_    0.213807 0.482662 0.733328 0.257936
H55   H     H_    0.780053 0.425031 0.456082 0.261183
H56   H     H_    0.405815 0.730607 0.953756 0.148820
H57   H     H_    0.791585 0.309055 0.456269 0.233189
H58   H     H_    0.836681 0.428706 0.578353 0.256894
H59   H     H_    0.263294 0.710883 0.548294 0.242718
H60   H     H_    0.305941 0.616823 0.570765 0.252831
H61   H     H_    0.238488 0.591176 0.437941 0.254381
H62   H     H_    0.391507 0.302525 0.769714 0.253381
H63   H     H_    0.290717 0.340852 0.776778 0.265981
H64   H     H_    0.398712 0.422168 0.763839 0.266331
H65   H     H_    0.619196 0.688636 0.287515 0.264075
H66   H     H_    0.621218 0.569761 0.289341 0.259732
H67   H     H_    0.859025 0.211168 0.277285 0.198529
H68   H     H_    0.726208 0.662222 0.280638 0.251641
H69   H     H_    0.181460 0.784700 0.679299 0.172473
H70   H     H_    0.693835 0.088157 0.103571 0.191466
N1    N     N_R   0.947560 0.293820 0.002910 -0.054601
N2    N     N_R   0.789450 0.443190 0.997090 -0.038275
N3    N     N_R   0.945970 0.443180 0.152110 -0.048400
N4    N     N_R   0.054030 0.556820 0.847890 -0.047628
N5    N     N_R   0.151530 0.706170 0.208880 -0.042604
N6    N     N_R   0.848470 0.293830 0.791120 -0.045185
N7    N     N_R   0.004980 0.293810 0.946140 -0.047665
N8    N     N_R   0.995020 0.706190 0.053860 -0.047285
N9    N     N_R   0.052440 0.706180 0.997090 -0.054332
N10   N     N_R   0.208960 0.706170 0.152110 -0.042426
N11   N     N_R   0.791040 0.293830 0.847890 -0.043048
N12   N     N_R   0.154330 0.443160 0.946140 -0.039804
N13   N     N_R   0.845670 0.556840 0.053860 -0.037530
N14   N     N_R   0.002190 0.556820 0.208880 -0.043875
N15   N     N_R   0.997810 0.443180 0.791120 -0.042341
N16   N     N_R   0.210550 0.556810 0.002910 -0.038200
Ni1   Ni    Ni4+2 0.869690 0.369690 0.000000 0.232261
Ni2   Ni    Ni4+2 0.130310 0.630310 0.000000 0.233781
Ni3   Ni    Ni4+2 0.001390 0.369680 0.869810 0.214281
Ni4   Ni    Ni4+2 0.998610 0.630320 0.130190 0.215916

loop_
_geom_bond_atom_site_label_1
_geom_bond_atom_site_label_2
_ccdc_geom_bond_type
C58   C62   A    
N5    Ni4   S    
C56   C76   A    
C87   H48   S    
C45   C71   S    
C88   H51   S    
C14   C18   A    
N3    N14   A    
C50   H24   S    
C24   C27   A    
C83   H39   S    
C90   H52   S    
C36   H16   S    
C1    H1    S    
C12   H12   S    
C4    C87   S    
C1    C84   A    
C15   C19   A    
C34   C51   S    
C55   H40   S    
C12   C85   A    
C92   H61   S    
C26   C67   S    
C11   C28   S    
C19   C21   A    
C24   C26   A    
C80   N5    A    
C91   H55   S    
N6    N11   A    
C69   C93   S    
C9    C88   S    
C77   H33   S    
C11   C14   A    
C66   C69   S    
C75   N16   A    
C68   C74   S    
C49   C54   A    
C62   C89   A    
C16   N10   A    
C33   C36   A    
C80   H36   S    
C57   H41   S    
C92   H60   S    
C59   C89   A    
C69   C71   S    
C61   H10   S    
C40   N12   A    
C3    C55   A    
C66   C72   S    
C29   C59   S    
N4    Ni2   S    
C49   C51   A    
C22   C25   A    
C67   C77   A    
C4    C57   A    
C73   H5    S    
C50   C52   A    
C22   C91   S    
N8    Ni4   S    
C34   C81   A    
C44   H20   S    
C23   C80   A    
C8    H56   S    
C76   H32   S    
C44   C47   A    
C86   H42   S    
C64   N14   A    
C17   N11   A    
C12   N9    A    
C22   C28   A    
C83   N8    A    
C3    C86   S    
C15   H69   S    
C42   C44   A    
C32   C57   A    
C35   C48   A    
C24   C92   S    
C7    H45   S    
N13   Ni4   S    
C52   C54   A    
C81   H37   S    
C5    C29   A    
C88   H50   S    
C40   C45   A    
C79   H35   S    
C62   C85   S    
C46   C48   A    
C50   C53   A    
N3    Ni1   S    
C25   C78   S    
C65   H30   S    
C31   H23   S    
C72   C74   S    
C71   C73   S    
C18   H70   S    
C78   C79   A    
C39   C43   A    
C49   H22   S    
C56   C72   S    
C47   H11   S    
C66   C73   S    
N9    Ni2   S    
C89   Cl3   S    
C92   H59   S    
C51   C53   A    
C79   N4    A    
C93   H62   S    
C64   C67   A    
C41   C56   A    
C91   H57   S    
N12   Ni3   S    
N15   Ni3   S    
N6    Ni3   S    
C9    C11   A    
C38   C54   S    
C29   C60   A    
C93   H63   S    
C77   N3    A    
C64   H29   S    
C68   H26   S    
C70   C73   S    
C8    C21   A    
N1    N7    A    
C69   C74   S    
C33   H14   S    
N14   Ni4   S    
C14   H67   S    
C76   N2    A    
C41   N13   A    
C2    Cl4   S    
C60   H9    S    
C16   H7    S    
C43   H19   S    
C37   H17   S    
C90   H54   S    
N8    N9    A    
C83   C85   A    
C20   Cl1   S    
C16   C23   A    
C82   C84   A    
C13   C15   A    
N2    N13   A    
C33   C47   A    
C4    C6    A    
C17   C34   A    
C94   H66   S    
C32   H34   S    
C2    C63   A    
C86   H44   S    
C74   H6    S    
C65   N15   A    
C42   H18   S    
C7    C9    A    
C65   C78   A    
C87   H47   S    
C6    C30   A    
C26   C28   A    
C41   H28   S    
C90   H53   S    
C3    C5    A    
C10   C13   A    
C32   C61   A    
C19   H2    S    
C2    C58   A    
C38   C42   A    
N11   Ni1   S    
C21   Cl2   S    
C25   C27   A    
C87   H46   S    
C59   C63   A    
C5    H3    S    
C63   C84   S    
C45   C75   A    
C81   N6    A    
C36   C38   A    
N1    Ni1   S    
C35   C37   A    
C37   C39   A    
C17   H8    S    
N4    N15   A    
C23   C52   S    
C39   C53   S    
N5    N10   A    
C68   C71   S    
C40   H27   S    
C30   C58   S    
N2    Ni1   S    
C1    N1    A    
C88   H49   S    
N16   Ni2   S    
C46   H21   S    
C35   H15   S    
C18   C20   A    
C6    H4    S    
C82   H38   S    
C43   C46   A    
C93   H64   S    
C94   H68   S    
N7    Ni3   S    
N10   Ni2   S    
C75   H31   S    
C91   H58   S    
C48   H13   S    
C82   N7    A    
C10   C90   S    
C8    C10   A    
C7    C20   A    
C30   C61   A    
C70   C94   S    
C68   C70   S    
C66   H25   S    
C13   C27   S    
C70   C72   S    
C31   C60   A    
C31   C55   A    
C94   H65   S    
N12   N16   A    
C86   H43   S    
