data_mof_unit_59642.cif
_audit_creation_date              2012-12-11T14:33:07-0500
_audit_creation_method            fapswitch 2.2
_symmetry_space_group_name_H-M    P1
_symmetry_Int_Tables_number       1
_space_group_crystal_system       triclinic
_cell_length_a                    6.971239
_cell_length_b                    13.790043
_cell_length_c                    18.051158
_cell_angle_alpha                 112.349097
_cell_angle_beta                  95.244737
_cell_angle_gamma                 90.387272
_cell_volume                      1596.62990792

loop_
_atom_site_label
_atom_site_type_symbol
_atom_type_description
_atom_site_fract_x
_atom_site_fract_y
_atom_site_fract_z
_atom_type_partial_charge
O1    O     O_R   0.484560 0.544530 0.414330 -0.535523
O2    O     O_R   0.197040 0.638810 0.585080 -0.535864
O3    O     O_R   0.026800 0.455470 0.585670 -0.545531
C1    C     C_R   0.373879 0.678844 0.610264 0.711937
O4    O     O_R   0.155000 0.556150 0.414940 -0.539573
O5    O     O_R   0.984450 0.372220 0.414320 -0.539145
C2    C     C_R   0.318074 0.565034 0.386725 0.759832
O6    O     O_R   0.526900 0.627780 0.585680 -0.537346
O7    O     O_3   0.339170 0.439750 0.499990 -0.381185
V1    V     V_3+5 0.064350 0.511180 0.500000 1.446498
O8    O     O_R   0.654880 0.361190 0.414920 -0.544156
C3    C     C_R   0.817197 0.324593 0.386582 0.778197
O9    O     O_R   0.696930 0.443850 0.585060 -0.550338
C4    C     C_R   0.873100 0.437325 0.613594 0.747933
V2    V     V_3+5 0.564340 0.488820 0.500000 1.428580
O10   O     O_3   0.839390 0.560250 0.500010 -0.361003
C5    C     C_R   0.045961 0.871106 0.830560 -0.084060
C6    C     C_R   0.905810 0.400232 0.679391 -0.086705
C7    C     C_R   0.933072 0.827286 0.691533 0.441205
C8    C     C_R   0.981061 0.798033 0.756190 -0.363488
C9    C     C_R   0.065267 0.977787 0.843329 0.286156
C10   C     C_R   0.004527 0.012769 0.778965 -0.119524
C11   C     C_R   0.947278 0.933741 0.701410 -0.023076
C12   C     C_R   0.997045 0.121063 0.787698 0.042774
C13   C     C_R   0.947248 0.147911 0.718832 -0.009927
C14   C     C_R   0.872092 0.066450 0.646215 0.210279
C15   C     C_R   0.898133 0.961275 0.634849 0.278648
C16   C     C_R   0.017785 0.203735 0.864035 -0.154464
C17   C     C_R   0.024743 0.307514 0.872918 -0.208992
C18   C     C_R   0.998033 0.334861 0.806420 0.081964
C19   C     C_R   0.957961 0.256628 0.727543 0.023546
C20   C     C_R   0.002737 0.441593 0.819684 -0.127586
C21   C     C_R   0.949885 0.474014 0.757249 -0.251961
C22   C     C_R   0.931995 0.293307 0.662478 0.358848
H1    H     H_    0.946605 0.557092 0.769520 0.114941
H2    H     H_    0.043439 0.367562 0.933290 0.114228
H3    H     H_    0.965765 0.716440 0.748580 0.092556
H4    H     H_    0.012240 0.191693 0.919205 0.166476
H5    H     H_    0.039929 0.500429 0.879533 0.154273
H6    H     H_    0.834750 0.034872 0.193958 0.154769
C23   C     C_2   0.135027 0.037224 0.183870 -0.330850
C24   C     C_2   0.972728 0.077832 0.217115 -0.124520
H7    H     H_    0.675755 0.178073 0.295001 0.124774
C25   C     C_2   0.813438 0.221174 0.318641 -0.329281
C26   C     C_2   0.975764 0.180523 0.285443 -0.123010
H8    H     H_    0.272695 0.080352 0.207478 0.125311
C27   C     C_R   0.409604 0.784627 0.677297 -0.038888
C28   C     C_R   0.538402 0.472117 0.828333 -0.044802
C29   C     C_R   0.540406 0.884306 0.815312 -0.118767
C30   C     C_R   0.483738 0.788778 0.753044 -0.169908
C31   C     C_R   0.395482 0.880209 0.664819 -0.170858
C32   C     C_R   0.452671 0.980036 0.728404 0.056858
C33   C     C_R   0.526730 0.979149 0.803845 0.107229
C34   C     C_R   0.442500 0.080319 0.720220 0.063133
C35   C     C_R   0.500864 0.176876 0.787798 0.078631
C36   C     C_R   0.568642 0.169640 0.861209 -0.198770
C37   C     C_R   0.586785 0.072898 0.868129 -0.213136
C38   C     C_R   0.381175 0.087143 0.646125 -0.195027
C39   C     C_R   0.388384 0.182285 0.636432 -0.148165
C40   C     C_R   0.437463 0.276480 0.701387 0.114382
C41   C     C_R   0.494572 0.276911 0.778822 0.092847
C42   C     C_R   0.426999 0.370490 0.688624 -0.139679
C43   C     C_R   0.474962 0.466674 0.751200 -0.148113
C44   C     C_R   0.544889 0.377421 0.842606 -0.209621
H9    H     H_    0.587203 0.384686 0.903495 0.092805
H10   H     H_    0.462476 0.537524 0.739109 0.090277
H11   H     H_    0.354386 0.182056 0.576565 0.131319
H12   H     H_    0.597057 0.883980 0.873075 0.148561
H13   H     H_    0.500904 0.717291 0.763930 0.093328
H14   H     H_    0.615150 0.237889 0.914204 0.128440
H15   H     H_    0.335737 0.019085 0.592874 0.118612
H16   H     H_    0.379043 0.369655 0.629585 0.150360
H17   H     H_    0.614746 0.591296 0.307814 0.157087
C45   C     C_2   0.315199 0.602235 0.319224 -0.338144
C46   C     C_2   0.476740 0.611176 0.285408 -0.118020
H18   H     H_    0.771659 0.636548 0.206371 0.127592
C47   C     C_2   0.634004 0.656222 0.183511 -0.341716
C48   C     C_2   0.472557 0.647385 0.217422 -0.128226
H19   H     H_    0.177581 0.621891 0.296319 0.127544
O11   O     O_R   0.421600 0.630430 0.917010 -0.538776
O12   O     O_R   0.793840 0.702190 0.087630 -0.544962
O13   O     O_R   0.964010 0.886170 0.088190 -0.538922
C49   C     C_R   0.630894 0.693323 0.115946 0.750213
O14   O     O_R   0.751460 0.619510 0.917500 -0.544105
O15   O     O_R   0.921330 0.802900 0.916840 -0.551581
C50   C     C_R   0.574537 0.578619 0.894022 0.679950
O16   O     O_R   0.464290 0.713700 0.088350 -0.539614
O17   O     O_3   0.609200 0.818520 0.002630 -0.374206
V3    V     V_3+5 0.884140 0.747190 0.002530 1.375749
O18   O     O_R   0.251150 0.814630 0.917340 -0.538996
C51   C     C_R   0.076294 0.832744 0.895627 0.788675
O19   O     O_R   0.293530 0.897310 0.087470 -0.540948
C52   C     C_R   0.131256 0.933824 0.115906 0.773795
V4    V     V_3+5 0.384070 0.769710 0.002370 1.400332
O20   O     O_3   0.109180 0.698190 0.002460 -0.383039
O21   O     O_3   0.872658 0.884108 0.558140 -0.613778
H20   H     H_    0.906978 0.914660 0.519175 0.283625
H21   H     H_    0.113755 0.223460 0.308625 0.152485
H22   H     H_    0.644443 0.071700 0.925610 0.139480
O22   O     O_3   0.952317 0.232442 0.583046 -0.635038
H23   H     H_    0.036119 0.174541 0.581163 0.302391
H24   H     H_    0.341599 0.873932 0.605229 0.114426
H25   H     H_    0.334540 0.667303 0.195056 0.153365
O23   O     O_3   0.860494 0.752114 0.619159 -0.581462
H26   H     H_    0.854211 0.684660 0.626221 0.312756
O24   O     O_3   0.150023 0.042313 0.917902 -0.671625
H27   H     H_    0.245091 0.089234 0.909283 0.296325
O25   O     O_3   0.753476 0.089765 0.590144 -0.628498
H28   H     H_    0.680070 0.026093 0.551620 0.308199

loop_
_geom_bond_atom_site_label_1
_geom_bond_atom_site_label_2
_ccdc_geom_bond_type
C13   C19   A    
C49   O16   A    
C35   C36   A    
C29   H12   S    
C23   C24   D    
C4    C6    S    
O2    C1    A    
C7    C8    A    
C5    C51   S    
C1    O6    A    
O15   C51   A    
C47   C48   D    
O25   H28   S    
C31   H24   S    
C17   H2    S    
C14   C15   A    
C17   C18   A    
O13   V3    S    
C16   C17   A    
C30   H13   S    
O14   C50   A    
C26   H21   S    
O5    C3    A    
C18   C19   A    
C38   H15   S    
C28   C44   A    
O24   H27   S    
C47   C49   S    
V2    O10   S    
C37   H22   S    
O16   V4    S    
C5    C8    A    
C36   C37   A    
C40   C42   A    
C20   H5    S    
O19   C52   A    
O11   C50   A    
C39   H11   S    
O8    V2    S    
C23   C52   S    
C22   O22   S    
C23   H8    S    
O1    V2    S    
C11   C15   A    
C2    C45   S    
O7    V1    S    
C9    O24   S    
O12   V3    S    
H6    C24   S    
C43   H10   S    
C39   C40   A    
O13   C52   A    
O9    C4    A    
H17   C46   S    
C15   O21   S    
C46   C48   S    
O23   H26   S    
O12   C49   A    
C32   C34   A    
O18   V4    S    
C27   C30   A    
O17   V4    S    
C45   C46   D    
C31   C32   A    
C12   C13   A    
C14   O25   S    
O4    C2    A    
C33   C37   A    
C28   C43   A    
C27   C31   A    
C13   C14   A    
C5    C9    A    
C40   C41   A    
C24   C26   S    
V3    O20   S    
C41   C44   A    
C7    C11   A    
H7    C25   S    
C42   C43   A    
C7    O23   S    
C16   H4    S    
O21   H20   S    
O19   V4    S    
C19   C22   A    
C42   H16   S    
H18   C47   S    
C6    C22   A    
O3    C4    A    
O6    V2    S    
C36   H14   S    
C45   H19   S    
O9    V2    S    
C10   C12   A    
O14   V3    S    
O11   V4    S    
O2    V1    S    
C32   C33   A    
C34   C38   A    
C34   C35   A    
O15   V3    S    
C48   H25   S    
O1    C2    A    
C25   C26   D    
C12   C16   A    
O5    V1    S    
O8    C3    A    
C20   C21   A    
C38   C39   A    
O4    V1    S    
C3    C25   S    
O3    V1    S    
V1    O10   S    
C44   H9    S    
C18   C20   A    
C8    H3    S    
O18   C51   A    
C29   C33   A    
C35   C41   A    
O22   H23   S    
C21   H1    S    
C28   C50   S    
O7    V2    S    
V4    O20   S    
C6    C21   A    
O17   V3    S    
C29   C30   A    
C10   C11   A    
C9    C10   A    
C1    C27   S    
