data_mof_unit_67748.cif
_audit_creation_date              2013-03-05T15:39:55-0500
_audit_creation_method            fapswitch 2.2
_symmetry_space_group_name_H-M    P1
_symmetry_Int_Tables_number       1
_space_group_crystal_system       triclinic
_cell_length_a                    12.097082
_cell_length_b                    12.130533
_cell_length_c                    7.857984
_cell_angle_alpha                 89.556836
_cell_angle_beta                  94.653198
_cell_angle_gamma                 89.683008
_cell_volume                      1149.25541127

loop_
_atom_site_label
_atom_site_type_symbol
_atom_site_description
_atom_site_fract_x
_atom_site_fract_y
_atom_site_fract_z
_atom_type_partial_charge
O1    O     O_R   0.375700 0.885870 0.609240 -0.615874
O2    O     O_R   0.624300 0.114130 0.390760 -0.615876
O3    O     O_R   0.624300 0.885870 0.390760 -0.603107
O4    O     O_R   0.375700 0.114130 0.609240 -0.603100
O5    O     O_R   0.875700 0.385870 0.609240 -0.615874
O6    O     O_R   0.124300 0.614130 0.390760 -0.615877
O7    O     O_R   0.124300 0.385870 0.390760 -0.603122
O8    O     O_R   0.875700 0.614130 0.609240 -0.603108
O9    O     O_R   0.402280 0.885870 0.324040 -0.575360
O10   O     O_R   0.597720 0.114130 0.675960 -0.575347
O11   O     O_R   0.597720 0.885870 0.675960 -0.545709
O12   O     O_R   0.402280 0.114130 0.324040 -0.545715
O13   O     O_R   0.902280 0.385870 0.324040 -0.575361
O14   O     O_R   0.097720 0.614130 0.675960 -0.575350
O15   O     O_R   0.097720 0.385870 0.675960 -0.545701
O16   O     O_R   0.902280 0.614130 0.324040 -0.545709
C1    C     C_R   0.353930 0.852153 0.455861 0.922694
C2    C     C_R   0.646070 0.147847 0.544139 0.922712
C3    C     C_R   0.648980 0.855085 0.544658 0.932172
C4    C     C_R   0.351020 0.144916 0.455342 0.932159
C5    C     C_R   0.853930 0.352153 0.455861 0.922702
C6    C     C_R   0.146070 0.647847 0.544139 0.922706
C7    C     C_R   0.148982 0.355087 0.544659 0.932172
C8    C     C_R   0.851020 0.644915 0.455342 0.932170
Zn1   Zn    Zn3+2 0.482250 1.000000 0.690430 1.153697
Zn2   Zn    Zn3+2 0.517750 1.000000 0.309570 1.153688
Zn3   Zn    Zn3+2 0.982250 0.500000 0.690430 1.153697
Zn4   Zn    Zn3+2 0.017750 0.500000 0.309570 1.153688
C9    C     C_2   0.253692 0.209853 0.440428 -0.251458
C10   C     C_2   0.746310 0.790150 0.559574 -0.251478
C11   C     C_2   0.740077 0.215506 0.565589 -0.274992
C12   C     C_2   0.259922 0.784494 0.434412 -0.274986
C13   C     C_2   0.753690 0.709850 0.440426 -0.251474
C14   C     C_2   0.246313 0.290153 0.559576 -0.251478
C15   C     C_2   0.240077 0.715506 0.565589 -0.274986
C16   C     C_2   0.759922 0.284494 0.434412 -0.274994
N1    N     N_2   0.541470 1.000000 0.055820 0.034866
N2    N     N_2   0.458530 1.000000 0.944180 0.034866
N3    N     N_2   0.041470 0.500000 0.055820 0.034868
N4    N     N_2   0.958530 0.500000 0.944180 0.034867
C17   C     C_2   0.655829 0.658875 0.341192 0.981983
O17   O     O_2   0.561921 0.670052 0.385980 -0.576325
O18   O     O_R   0.672605 0.592098 0.201880 -0.721593
H1    H     H_    0.600881 0.561045 0.146570 0.369001
C18   C     C_2   0.344174 0.341128 0.658811 0.982002
O19   O     O_2   0.438084 0.329938 0.614041 -0.576325
O20   O     O_R   0.327394 0.407923 0.798103 -0.721619
H2    H     H_    0.399119 0.438973 0.853416 0.369004
C19   C     C_2   0.322876 0.684057 0.710302 0.976509
O21   O     O_2   0.420359 0.669520 0.685145 -0.559937
O22   O     O_R   0.287915 0.667824 0.873844 -0.715819
H3    H     H_    0.351171 0.646752 0.960811 0.373970
C20   C     C_2   0.677123 0.315944 0.289699 0.976500
O23   O     O_2   0.579640 0.330479 0.314856 -0.559939
O24   O     O_R   0.712084 0.332181 0.126158 -0.715830
H4    H     H_    0.648828 0.353255 0.039193 0.373972
C21   C     C_2   0.155829 0.158879 0.341201 0.981949
O25   O     O_2   0.061926 0.170034 0.386022 -0.576321
O26   O     O_R   0.172598 0.092128 0.201854 -0.721553
H5    H     H_    0.100873 0.061071 0.146554 0.369000
C22   C     C_2   0.844171 0.841125 0.658808 0.981989
O27   O     O_2   0.938080 0.829947 0.614021 -0.576318
O28   O     O_R   0.827395 0.907903 0.798119 -0.721596
H6    H     H_    0.899119 0.938956 0.853429 0.369003
C23   C     C_2   0.822875 0.184057 0.710304 0.976500
O29   O     O_2   0.920359 0.169523 0.685150 -0.559915
O30   O     O_R   0.787913 0.167820 0.873844 -0.715830
H7    H     H_    0.851168 0.146747 0.960811 0.373967
C24   C     C_2   0.177122 0.815946 0.289702 0.976483
O31   O     O_2   0.079641 0.830488 0.314865 -0.559928
O32   O     O_R   0.212080 0.832177 0.126158 -0.715827
H8    H     H_    0.148823 0.853254 0.039195 0.373973
N5    N     N_R   0.624771 0.926503 0.022448 0.325114
O33   O     O_R   0.599684 0.823354 0.997185 -0.317698
O34   O     O_R   0.725383 0.949574 0.081355 -0.312123
N6    N     N_R   0.375226 0.073493 0.977553 0.325112
O35   O     O_R   0.400309 0.176644 0.002812 -0.317689
O36   O     O_R   0.274615 0.050417 0.918647 -0.312119
N7    N     N_R   0.124770 0.426502 0.022448 0.325112
O37   O     O_R   0.099682 0.323353 0.997187 -0.317698
O38   O     O_R   0.225383 0.449574 0.081349 -0.312120
N8    N     N_R   0.875230 0.573498 0.977551 0.325113
O39   O     O_R   0.900319 0.676647 0.002815 -0.317700
O40   O     O_R   0.774618 0.550429 0.918644 -0.312121

loop_
_geom_bond_atom_site_label_1
_geom_bond_atom_site_label_2
_geom_bond_distance
_ccdc_geom_bond_type
O16   Zn4   1.971712 S    
O24   H4    1.013995 S    
O2    C2    1.283193 A    
N5    O34   1.299353 A    
N5    O33   1.302079 A    
O4    Zn1   1.954047 S    
C5    C16   1.405934 S    
N2    N6    1.384069 S    
C18   O19   1.223387 D    
C6    C15   1.405936 S    
O11   C3    1.302202 A    
N6    O36   1.299356 A    
C21   O26   1.394180 S    
O11   Zn1   1.971713 S    
O6    C6    1.283193 A    
C24   O32   1.397979 S    
C17   O17   1.223389 D    
C18   O20   1.394171 S    
C22   O28   1.394169 S    
C16   C20   1.498721 S    
O5    Zn3   1.971071 S    
O6    Zn4   1.971070 S    
C19   O22   1.397977 S    
C15   C19   1.498719 S    
O13   Zn4   1.981307 S    
O3    C3    1.274468 A    
O14   Zn3   1.981306 S    
O15   C7    1.302202 A    
O26   H5    1.014188 S    
O16   C8    1.302202 A    
O1    Zn1   1.971071 S    
C17   O18   1.394172 S    
C24   O31   1.223472 D    
O9    Zn2   1.981307 S    
C4    C9    1.409401 S    
C20   O24   1.397976 S    
O30   H7    1.013995 S    
C12   C15   1.359967 D    
N4    N8    1.384069 S    
N6    O35   1.302080 A    
N3    N4    1.278069 D    
N7    O38   1.299352 A    
Zn4   N3    2.037414 S    
C23   O30   1.397977 S    
C20   O23   1.223470 D    
C9    C14   1.363849 D    
N8    O39   1.302076 A    
O7    Zn4   1.954048 S    
O22   H3    1.013995 S    
O12   Zn2   1.971712 S    
N3    N7    1.384072 S    
O18   H1    1.014188 S    
N1    N2    1.278069 D    
Zn1   N2    2.037414 S    
O15   Zn3   1.971713 S    
O20   H2    1.014187 S    
Zn3   N4    2.037414 S    
C7    C14   1.409409 S    
O12   C4    1.302203 A    
O13   C5    1.294902 A    
O2    Zn2   1.971070 S    
C14   C18   1.502553 S    
O10   Zn1   1.981306 S    
O9    C1    1.294902 A    
C9    C21   1.502542 S    
C19   O21   1.223469 D    
N8    O40   1.299351 A    
C1    C12   1.405934 S    
C11   C23   1.498721 S    
N1    N5    1.384072 S    
C10   C13   1.363850 D    
O3    Zn2   1.954048 S    
O28   H6    1.014188 S    
Zn2   N1    2.037414 S    
C12   C24   1.498718 S    
O1    C1    1.283191 A    
C8    C13   1.409404 S    
C13   C17   1.502549 S    
O14   C6    1.294902 A    
O32   H8    1.013996 S    
C21   O25   1.223396 D    
O10   C2    1.294901 A    
O7    C7    1.274469 A    
O8    C8    1.274468 A    
C22   O27   1.223387 D    
N7    O37   1.302076 A    
O4    C4    1.274467 A    
O5    C5    1.283192 A    
C23   O29   1.223469 D    
C10   C22   1.502550 S    
O8    Zn3   1.954047 S    
C11   C16   1.359969 D    
C2    C11   1.405935 S    
C3    C10   1.409404 S    
