data_mof_unit_34393.cif
_audit_creation_date              2012-10-26T19:35:19-0400
_audit_creation_method            fapswitch 2.2
_symmetry_space_group_name_H-M    P1
_symmetry_Int_Tables_number       1
_space_group_crystal_system       triclinic
_cell_length_a                    10.82064
_cell_length_b                    10.929706
_cell_length_c                    9.557422
_cell_angle_alpha                 92.423756
_cell_angle_beta                  90.755572
_cell_angle_gamma                 91.6157
_cell_volume                      1128.74482451

loop_
_atom_site_label
_atom_site_type_symbol
_atom_type_description
_atom_site_fract_x
_atom_site_fract_y
_atom_site_fract_z
_atom_type_partial_charge
C1    C     C_R   0.497208 0.262806 0.497301 0.573303
C2    C     C_R   0.453486 0.927515 0.383014 -0.173667
C3    C     C_R   0.497285 0.870569 0.503196 -0.061248
C4    C     C_R   0.263502 0.513822 0.500287 0.570222
C5    C     C_R   0.538017 0.947548 0.615143 -0.006232
C6    C     C_3   0.580010 0.958073 0.766829 0.529887
C7    C     C_3   0.583338 0.098611 0.753123 0.318521
C8    C     C_R   0.599602 0.545309 0.077113 0.211783
C9    C     C_R   0.411167 0.434515 0.071281 0.382952
C10   C     C_R   0.412156 0.435314 0.919845 0.523032
C11   C     C_R   0.600235 0.543635 0.930198 0.104136
C12   C     C_R   0.065539 0.548950 0.627896 -0.035648
C13   C     C_3   0.655513 0.668719 0.929982 -0.231757
C14   C     C_3   0.654319 0.671633 0.089486 0.137428
C15   C     C_R   0.500170 0.737600 0.502350 0.527639
C16   C     C_R   0.738092 0.491806 0.501215 0.568066
C17   C     C_R   0.118740 0.609768 0.749955 0.308073
C18   C     C_R   0.062922 0.595406 0.879366 -0.160239
C19   C     C_R   0.956957 0.521409 0.888454 -0.130376
C20   C     C_R   0.896916 0.474411 0.766906 0.381250
C21   C     C_R   0.942791 0.502995 0.633504 -0.067949
C22   C     C_3   0.779848 0.899055 0.688592 -0.171601
C23   C     C_R   0.129764 0.530447 0.501189 -0.063886
C24   C     C_3   0.211886 0.346165 0.083873 -0.067266
C25   C     C_3   0.816916 0.792647 0.177355 -0.122014
C26   C     C_3   0.190300 0.796692 0.687587 -0.104893
C27   C     C_3   0.264430 0.089404 0.270942 -0.084890
C28   C     C_3   0.505615 0.946153 0.995511 -0.046414
C29   C     C_R   0.063508 0.506414 0.376572 -0.147361
C30   C     C_R   0.937043 0.486727 0.377710 0.349323
C31   C     C_R   0.873936 0.486728 0.505396 0.011141
C32   C     C_R   0.540571 0.070960 0.607223 -0.075945
C33   C     C_R   0.496798 0.130351 0.492718 0.016818
C34   C     C_R   0.447925 0.056468 0.378970 0.235170
Cu1   Cu    Cu3+1 0.499990 0.499980 0.640670 1.142370
Cu2   Cu    Cu3+1 0.500010 0.500020 0.359330 1.072389
F1    F     F_    0.493610 0.159621 0.827926 -0.586095
F2    F     F_    0.329047 0.367400 0.840467 -0.596645
F3    F     F_    0.804323 0.389747 0.781470 -0.620711
F4    F     F_    0.877841 0.461893 0.253289 -0.607664
H1    H     H_    0.109849 0.502069 0.277422 0.149266
H2    H     H_    0.871766 0.874944 0.730221 0.138777
H3    H     H_    0.791895 0.986514 0.634482 0.099793
H4    H     H_    0.146319 0.318534 0.165611 0.116300
H5    H     H_    0.208246 0.270187 0.003097 0.200194
H6    H     H_    0.179205 0.432870 0.041911 0.114827
H7    H     H_    0.759388 0.839325 0.257996 0.106176
H8    H     H_    0.819274 0.845258 0.080181 0.137507
H9    H     H_    0.912787 0.790953 0.219672 0.133752
H10   H     H_    0.115962 0.841634 0.748749 0.103142
H11   H     H_    0.161837 0.783203 0.575635 0.085685
H12   H     H_    0.676431 0.144162 0.760345 0.148572
H13   H     H_    0.272261 0.859959 0.692111 0.194741
H14   H     H_    0.224740 0.153923 0.350234 0.139025
H15   H     H_    0.235916 0.993522 0.292992 0.077141
H16   H     H_    0.223726 0.107092 0.167204 0.146342
H17   H     H_    0.474806 0.039692 0.022544 0.245231
H18   H     H_    0.603605 0.937507 0.028922 0.127933
H19   H     H_    0.448626 0.882879 0.056992 0.100490
H20   H     H_    0.749167 0.671049 0.884035 0.171250
H21   H     H_    0.588774 0.729239 0.883263 0.198536
H22   H     H_    0.589949 0.737186 0.139842 0.093950
H23   H     H_    0.104582 0.638050 0.973552 0.130616
H24   H     H_    0.920252 0.501538 0.989938 0.229257
H25   H     H_    0.417960 0.872199 0.294186 0.126550
H26   H     H_    0.748795 0.823500 0.613794 0.125810
N1    N     N_R   0.500790 0.500930 0.147930 -0.292677
N2    N     N_R   0.500790 0.500890 0.852020 -0.245468
O1    O     O_R   0.500000 0.319640 0.618810 -0.410961
O2    O     O_3   0.331174 0.359560 0.144875 -0.502778
O3    O     O_3   0.774188 0.671049 0.149313 -0.499022
O4    O     O_3   0.223267 0.685284 0.745199 -0.532707
O5    O     O_3   0.393887 0.108660 0.265076 -0.532740
O6    O     O_3   0.483262 0.915035 0.852263 -0.542898
O7    O     O_R   0.500010 0.319680 0.381230 -0.436011
O8    O     O_R   0.319640 0.499980 0.618820 -0.400067
O9    O     O_R   0.319650 0.500020 0.381230 -0.501706
O10   O     O_R   0.499990 0.680320 0.618770 -0.482402
O11   O     O_R   0.500000 0.680360 0.381190 -0.546126
O12   O     O_R   0.680350 0.499980 0.618770 -0.476840
O13   O     O_R   0.680360 0.500020 0.381180 -0.420278
O14   O     O_3   0.697605 0.909872 0.801868 -0.619185

loop_
_geom_bond_atom_site_label_1
_geom_bond_atom_site_label_2
_ccdc_geom_bond_type
C6    O14   S    
C26   O4    S    
C14   O3    S    
C19   C20   A    
C2    H25   S    
C28   O6    S    
Cu2   N1    S    
C1    C33   S    
C13   H20   S    
C28   H17   S    
C16   C31   S    
C21   C31   A    
C12   C23   A    
C24   H5    S    
C22   O14   S    
C7    H12   S    
Cu2   O9    S    
C26   H10   S    
C5    C6    S    
C27   H15   S    
C18   H23   S    
C15   O10   A    
C14   H22   S    
Cu1   O12   S    
C18   C19   A    
C22   H26   S    
C15   O11   A    
Cu1   Cu2   S    
C12   C17   A    
C6    O6    S    
C25   O3    S    
C9    C10   A    
Cu2   O13   S    
C5    C32   A    
C2    C34   A    
C13   C14   S    
C33   C34   A    
Cu1   O8    S    
C27   H14   S    
C24   O2    S    
C1    O7    A    
C9    O2    S    
C4    C23   S    
C27   H16   S    
C12   C21   A    
C1    O1    A    
C16   O12   A    
C9    N1    A    
C29   C30   A    
Cu2   O7    S    
C22   H3    S    
C19   H24   S    
C17   C18   A    
C7    F1    S    
C30   F4    S    
C25   H8    S    
C8    N1    A    
C10   N2    A    
C24   H4    S    
C26   H13   S    
C23   C29   A    
C3    C15   S    
C11   N2    A    
C28   H19   S    
C20   F3    S    
C25   H7    S    
C8    C14   S    
C7    C32   S    
C29   H1    S    
C3    C5    A    
Cu2   O11   S    
C6    C7    S    
C28   H18   S    
Cu1   O10   S    
C10   F2    S    
C24   H6    S    
C32   C33   A    
C2    C3    A    
C4    O9    A    
C26   H11   S    
C11   C13   S    
C30   C31   A    
C22   H2    S    
Cu1   N2    S    
C8    C11   A    
C16   O13   A    
C25   H9    S    
C4    O8    A    
C34   O5    S    
C13   H21   S    
C20   C21   A    
Cu1   O1    S    
C17   O4    S    
C27   O5    S    
