data_mof_unit_17892.cif
_audit_creation_date              2012-12-10T17:18:56-0500
_audit_creation_method            fapswitch 2.2
_symmetry_space_group_name_H-M    P1
_symmetry_Int_Tables_number       1
_space_group_crystal_system       triclinic
_cell_length_a                    9.654481
_cell_length_b                    10.815842
_cell_length_c                    13.554592
_cell_angle_alpha                 96.888161
_cell_angle_beta                  74.37282
_cell_angle_gamma                 89.910445
_cell_volume                      1352.38084124

loop_
_atom_site_label
_atom_site_type_symbol
_atom_type_description
_atom_site_fract_x
_atom_site_fract_y
_atom_site_fract_z
_atom_type_partial_charge
C1    C     C_R   0.501192 0.737149 0.496105 0.823086
C2    C     C_R   0.428076 0.534535 0.982407 0.038951
C3    C     C_R   0.467346 0.554590 0.877007 -0.049478
C4    C     C_R   0.535446 0.542186 0.037168 0.010137
C5    C     C_R   0.677846 0.568927 0.984891 -0.055158
C6    C     C_R   0.710300 0.591210 0.882043 0.444309
C7    C     C_R   0.599646 0.607098 0.837117 0.286224
C8    C     C_R   0.508583 0.516940 0.139679 -0.223980
C9    C     C_R   0.754355 0.563802 0.140496 0.387626
C10   C     C_R   0.374374 0.519714 0.814482 -0.047555
C11   C     C_R   0.295424 0.877860 0.416811 -0.150804
C12   C     C_R   0.422665 0.507130 0.699919 0.821023
C13   C     C_R   0.169770 0.940266 0.412941 0.546119
C14   C     C_R   0.131981 0.057210 0.469397 -0.166034
C15   C     C_R   0.226321 0.117540 0.518741 -0.137222
C16   C     C_R   0.364200 0.064053 0.508070 0.074556
C17   C     C_R   0.386971 0.936122 0.473241 0.013630
C18   C     C_R   0.499660 0.872250 0.496870 -0.153734
C19   C     C_R   0.598377 0.939538 0.539507 -0.189833
C20   C     C_R   0.591483 0.068808 0.554149 0.328779
C21   C     C_R   0.480352 0.132799 0.530035 -0.205229
C22   C     C_R   0.920345 0.351677 0.335646 0.494438
C23   C     C_R   0.493824 0.265172 0.513092 0.905549
C24   C     C_R   0.023423 0.335544 0.240341 0.310059
C25   C     C_R   0.165326 0.339551 0.238148 -0.383653
C26   C     C_R   0.204528 0.360391 0.329703 0.367311
C27   C     C_R   0.104642 0.422879 0.422325 -0.041475
C28   C     C_R   0.954012 0.422364 0.423142 0.007047
C29   C     C_R   0.903744 0.585520 0.561259 -0.131713
C30   C     C_R   0.052789 0.589055 0.559360 0.528105
C31   C     C_R   0.576133 0.506684 0.301746 0.904848
C32   C     C_R   0.785021 0.579855 0.036837 -0.147476
C33   C     C_R   0.616116 0.526742 0.192071 -0.114608
C34   C     C_R   0.233577 0.487922 0.862249 -0.205099
C35   C     C_R   0.187037 0.488673 0.968396 -0.056914
C36   C     C_R   0.282777 0.510805 0.028358 -0.082046
Cu1   Cu    Cu3+1 0.359340 0.500010 0.500010 1.016771
Cu2   Cu    Cu3+1 0.640660 0.499990 0.499990 1.060783
H1    H     H_    0.322097 0.786404 0.373296 0.155653
H2    H     H_    0.031298 0.103305 0.472763 0.166815
H3    H     H_    0.189344 0.205858 0.564952 0.176984
H4    H     H_    0.832351 0.660844 0.604378 0.200281
H5    H     H_    0.243913 0.304684 0.166368 0.237686
H6    H     H_    0.891197 0.608779 0.998281 0.195510
H7    H     H_    0.404086 0.489473 0.180390 0.173119
H8    H     H_    0.158991 0.461484 0.817550 0.157966
H9    H     H_    0.239510 0.511744 0.110229 0.158733
H10   H     H_    0.076847 0.468376 0.003854 0.210118
H11   H     H_    0.680576 0.891636 0.562981 0.205138
N1    N     N_R   0.852480 0.498790 0.499000 -0.186334
N2    N     N_R   0.148360 0.498710 0.498970 -0.214473
O1    O     O_R   0.381190 0.680360 0.500010 -0.540295
O2    O     O_R   0.618760 0.680340 0.500000 -0.585328
O3    O     O_R   0.323240 0.499990 0.650990 -0.608764
O4    O     O_R   0.560820 0.499960 0.650980 -0.545853
O5    O     O_R   0.381240 0.319660 0.500000 -0.555950
O6    O     O_R   0.618810 0.319640 0.499990 -0.489069
O7    O     O_R   0.439180 0.500040 0.349020 -0.581131
O8    O     O_R   0.676760 0.500010 0.349010 -0.499039
Cl1   Cl    Cl    0.889930 0.603799 0.202118 -0.674977
O9    O     O_3   0.086282 0.890821 0.350787 -0.580282
C37   C     C_3   0.996516 0.802199 0.401362 -0.208411
H12   H     H_    0.950033 0.832514 0.485520 0.148003
H13   H     H_    0.056473 0.711385 0.388210 0.181421
H14   H     H_    0.904268 0.789281 0.367578 0.229456
Cl2   Cl    Cl    0.714990 0.145757 0.613336 -0.656411
O10   O     O_3   0.792674 0.294025 0.339395 -0.515478
C38   C     C_3   0.813739 0.163551 0.335386 -0.169720
H15   H     H_    0.848022 0.140984 0.402909 0.162243
H16   H     H_    0.892882 0.121135 0.263697 0.204059
H17   H     H_    0.710219 0.118451 0.337088 0.186406
Cl3   Cl    Cl    0.977254 0.282637 0.125414 -0.587814
Cl4   Cl    Cl    0.354469 0.260686 0.315348 -0.589129
O11   O     O_3   0.850354 0.585182 0.821990 -0.621766
C39   C     C_3   0.883948 0.459576 0.778405 -0.343418
H18   H     H_    0.808637 0.423818 0.732999 0.217638
H19   H     H_    0.884723 0.398834 0.839001 0.195510
H20   H     H_    0.992871 0.452780 0.724030 0.173885
O12   O     O_3   0.109298 0.699853 0.590780 -0.596508
C40   C     C_3   0.059199 0.734515 0.697652 -0.195453
H21   H     H_    0.114335 0.819991 0.717606 0.188850
H22   H     H_    0.089061 0.662128 0.740468 0.204509
H23   H     H_    0.942350 0.759101 0.721505 0.217888
Cl5   Cl    Cl    0.610937 0.729115 0.760193 -0.629611

loop_
_geom_bond_atom_site_label_1
_geom_bond_atom_site_label_2
_ccdc_geom_bond_type
C30   N2    A    
C16   C21   A    
C29   H4    S    
C35   C36   A    
C4    C8    A    
C25   H5    S    
C23   O5    A    
C1    C18   S    
C29   C30   A    
C31   O7    A    
C20   Cl2   S    
Cu1   Cu2   S    
C18   C19   A    
C3    C7    A    
C5    C6    A    
Cu1   N2    S    
C15   C16   A    
C26   Cl4   S    
C36   H9    S    
C34   C35   A    
C31   O8    A    
C1    O2    A    
C8    H7    S    
C37   H13   S    
C9    C32   A    
Cu1   O5    S    
C28   N1    A    
Cu2   O4    S    
C19   C20   A    
C38   H15   S    
C31   C33   S    
C34   H8    S    
Cu1   O7    S    
C5    C32   A    
C7    Cl5   S    
C22   C28   A    
C13   C14   A    
C9    C33   A    
C40   H23   S    
C35   H10   S    
C39   H20   S    
C27   N2    A    
C6    O11   S    
C29   N1    A    
O11   C39   S    
O10   C38   S    
C24   C25   A    
C15   H3    S    
C40   H22   S    
Cu1   O1    S    
C16   C17   A    
C25   C26   A    
O12   C40   S    
C2    C4    A    
C39   H18   S    
C37   H12   S    
Cu2   O6    S    
C19   H11   S    
C17   C18   A    
C32   H6    S    
C10   C34   A    
C11   H1    S    
C39   H19   S    
C10   C12   S    
C30   O12   S    
C21   C23   S    
C26   C27   A    
C22   C24   A    
Cu1   O3    S    
C24   Cl3   S    
C2    C36   A    
C23   O6    A    
C11   C17   A    
C37   H14   S    
C40   H21   S    
C6    C7    A    
Cu2   N1    S    
C9    Cl1   S    
C2    C3    A    
C3    C10   A    
C11   C13   A    
Cu2   O2    S    
C38   H17   S    
C8    C33   A    
O9    C37   S    
C1    O1    A    
C22   O10   S    
C12   O4    A    
C14   H2    S    
Cu2   O8    S    
C4    C5    A    
C13   O9    S    
C20   C21   A    
C38   H16   S    
C27   C28   A    
C14   C15   A    
C12   O3    A    
