data_mof_unit_36951.cif
_audit_creation_date              2012-12-11T16:19:07-0500
_audit_creation_method            fapswitch 2.2
_symmetry_space_group_name_H-M    P1
_symmetry_Int_Tables_number       1
_space_group_crystal_system       triclinic
_cell_length_a                    6.934097
_cell_length_b                    31.359824
_cell_length_c                    35.00932
_cell_angle_alpha                 89.99988
_cell_angle_beta                  89.998005
_cell_angle_gamma                 89.999981
_cell_volume                      7612.84880174

loop_
_atom_site_label
_atom_site_type_symbol
_atom_type_description
_atom_site_fract_x
_atom_site_fract_y
_atom_site_fract_z
_atom_type_partial_charge
O1    O     O_R   0.417270 0.211480 0.210950 -0.537959
O2    O     O_R   0.582730 0.788520 0.789050 -0.540029
O3    O     O_R   0.582730 0.788520 0.710950 -0.537961
O4    O     O_R   0.417270 0.211480 0.289050 -0.540031
O5    O     O_R   0.917270 0.288520 0.289050 -0.537961
O6    O     O_R   0.082730 0.711480 0.710950 -0.540031
O7    O     O_R   0.082730 0.711480 0.789050 -0.537959
O8    O     O_R   0.917270 0.288520 0.210950 -0.540030
O9    O     O_R   0.746940 0.206370 0.288750 -0.539763
O10   O     O_R   0.253060 0.793630 0.711250 -0.542330
O11   O     O_R   0.253060 0.793630 0.788750 -0.539764
O12   O     O_R   0.746940 0.206370 0.211250 -0.542331
O13   O     O_R   0.246940 0.293630 0.211250 -0.539764
O14   O     O_R   0.753060 0.706370 0.788750 -0.542331
O15   O     O_R   0.753060 0.706370 0.711250 -0.539762
O16   O     O_R   0.246940 0.293630 0.288750 -0.542331
C1    C     C_R   0.578028 0.195876 0.301897 0.714824
C2    C     C_R   0.422018 0.804044 0.698010 0.715910
C3    C     C_R   0.421967 0.804124 0.801897 0.714817
C4    C     C_R   0.577986 0.195956 0.198009 0.715907
C5    C     C_R   0.078033 0.304124 0.198103 0.714820
C6    C     C_R   0.922014 0.695956 0.801991 0.715908
C7    C     C_R   0.921972 0.695876 0.698103 0.714821
C8    C     C_R   0.077982 0.304044 0.301990 0.715910
O17   O     O_3   0.583760 0.276950 0.250000 -0.367513
O18   O     O_3   0.416240 0.723050 0.750000 -0.367512
O19   O     O_3   0.083760 0.223050 0.250000 -0.367512
O20   O     O_3   0.916240 0.776950 0.750000 -0.367513
V1    V     V_3+5 0.858600 0.245000 0.250000 1.416304
V2    V     V_3+5 0.141400 0.755000 0.750000 1.416303
V3    V     V_3+5 0.358600 0.255000 0.250000 1.416303
V4    V     V_3+5 0.641400 0.745000 0.750000 1.416304
C9    C     C_R   0.978533 0.587287 0.539310 0.653696
C10   C     C_R   0.056323 0.412980 0.461154 0.665727
C11   C     C_R   0.021574 0.412716 0.039310 0.653676
C12   C     C_R   0.943563 0.587018 0.961155 0.665728
C13   C     C_R   0.478533 0.912714 0.960688 0.653695
C14   C     C_R   0.556306 0.087021 0.038844 0.665733
C15   C     C_R   0.521466 0.087287 0.460690 0.653695
C16   C     C_R   0.443679 0.912981 0.538846 0.665728
N1    N     N_R   0.977043 0.572631 0.576129 -0.543850
N2    N     N_R   0.039349 0.427137 0.424360 -0.543505
N3    N     N_R   0.022976 0.427370 0.076130 -0.543848
N4    N     N_R   0.960630 0.572864 0.924362 -0.543512
N5    N     N_R   0.477017 0.927370 0.923869 -0.543849
N6    N     N_R   0.539368 0.072863 0.075639 -0.543504
N7    N     N_R   0.522958 0.072632 0.423871 -0.543851
N8    N     N_R   0.460651 0.927137 0.575640 -0.543506
C17   C     C_R   0.997787 0.530041 0.583922 0.658183
C18   C     C_R   0.019849 0.469698 0.416387 0.648308
C19   C     C_R   0.002133 0.469959 0.083922 0.658197
C20   C     C_R   0.980231 0.530305 0.916388 0.648327
C21   C     C_R   0.497736 0.969962 0.916076 0.658176
C22   C     C_R   0.519896 0.030301 0.083612 0.648301
C23   C     C_R   0.502216 0.030041 0.416078 0.658182
C24   C     C_R   0.480148 0.969699 0.583613 0.648307
C25   C     C_R   0.027648 0.500085 0.553963 -0.089773
C26   C     C_R   0.003291 0.500167 0.446372 -0.088584
C27   C     C_R   0.972254 0.499912 0.053963 -0.089762
C28   C     C_R   0.996808 0.499838 0.946373 -0.088578
C29   C     C_R   0.527598 0.999918 0.946034 -0.089778
C30   C     C_R   0.503325 0.999833 0.053627 -0.088585
C31   C     C_R   0.472355 0.000085 0.446037 -0.089773
C32   C     C_R   0.496708 0.000167 0.553628 -0.088583
C33   C     C_R   0.013146 0.514733 0.515715 -0.004893
C34   C     C_R   0.021867 0.485610 0.484613 -0.007032
C35   C     C_R   0.986856 0.485267 0.015715 -0.004898
C36   C     C_R   0.978129 0.514391 0.984613 -0.007033
C37   C     C_R   0.513133 0.985268 0.984283 -0.004888
C38   C     C_R   0.521866 0.014391 0.015385 -0.007031
C39   C     C_R   0.486854 0.014734 0.484285 -0.004893
C40   C     C_R   0.478133 0.985611 0.515387 -0.007033
C41   C     C_R   0.989779 0.558579 0.508493 -0.024666
C42   C     C_R   0.048480 0.441841 0.491882 -0.031403
C43   C     C_R   0.010328 0.441424 0.008493 -0.024671
C44   C     C_R   0.951409 0.558156 0.991883 -0.031410
C45   C     C_R   0.489790 0.941422 0.991505 -0.024668
C46   C     C_R   0.548451 0.058160 0.008116 -0.031401
C47   C     C_R   0.510220 0.058579 0.491507 -0.024666
C48   C     C_R   0.451523 0.941842 0.508118 -0.031401
C49   C     C_R   0.064499 0.455994 0.560511 -0.042345
C50   C     C_R   0.973089 0.544547 0.439878 -0.042814
C51   C     C_R   0.935286 0.543999 0.060510 -0.042343
C52   C     C_R   0.027124 0.455461 0.939879 -0.042818
C53   C     C_R   0.564416 0.044010 0.939486 -0.042343
C54   C     C_R   0.473144 0.955452 0.060122 -0.042818
C55   C     C_R   0.435505 0.955994 0.439489 -0.042345
C56   C     C_R   0.526910 0.044547 0.560122 -0.042815
C57   C     C_R   0.069519 0.427626 0.529609 -0.154717
C58   C     C_R   0.973095 0.572970 0.470751 -0.156391
C59   C     C_R   0.930265 0.572368 0.029609 -0.154714
C60   C     C_R   0.027117 0.427037 0.970752 -0.156402
C61   C     C_R   0.569448 0.072377 0.970388 -0.154719
C62   C     C_R   0.473140 0.927030 0.029248 -0.156388
C63   C     C_R   0.430486 0.927626 0.470391 -0.154716
C64   C     C_R   0.526903 0.072970 0.529249 -0.156391
O21   O     O_2   0.965838 0.629556 0.532527 -0.513830
O22   O     O_2   0.080980 0.370975 0.467965 -0.507932
O23   O     O_2   0.034355 0.370449 0.032526 -0.513841
O24   O     O_2   0.918814 0.629021 0.967966 -0.507919
O25   O     O_2   0.465856 0.870445 0.967472 -0.513827
O26   O     O_2   0.580936 0.129027 0.032032 -0.507936
O27   O     O_2   0.534159 0.129556 0.467473 -0.513830
O28   O     O_2   0.419025 0.870975 0.532035 -0.507932
O29   O     O_2   0.982182 0.516835 0.620421 -0.483543
O30   O     O_2   0.019977 0.482202 0.379572 -0.487635
O31   O     O_2   0.017660 0.483166 0.120422 -0.483539
O32   O     O_2   0.980186 0.517803 0.879572 -0.487635
O33   O     O_2   0.482108 0.983167 0.879578 -0.483543
O34   O     O_2   0.520062 0.017797 0.120427 -0.487636
O35   O     O_2   0.517822 0.016836 0.379580 -0.483543
O36   O     O_2   0.480016 0.982202 0.620429 -0.487636
H1    H     H_    0.096216 0.394123 0.535168 0.192406
H2    H     H_    0.950730 0.606629 0.465179 0.189172
H3    H     H_    0.903479 0.605867 0.035167 0.192416
H4    H     H_    0.049568 0.393380 0.965181 0.189178
H5    H     H_    0.596119 0.105881 0.964829 0.192402
H6    H     H_    0.450793 0.893370 0.034820 0.189178
H7    H     H_    0.403791 0.894124 0.464833 0.192406
H8    H     H_    0.549268 0.106630 0.534820 0.189174
C65   C     C_R   0.213415 0.392021 0.371881 -0.106239
C66   C     C_R   0.114717 0.610767 0.631016 -0.117636
C67   C     C_R   0.786569 0.607979 0.871884 -0.106233
C68   C     C_R   0.885296 0.389233 0.131017 -0.117636
C69   C     C_R   0.713429 0.107978 0.128117 -0.106227
C70   C     C_R   0.614699 0.889234 0.868982 -0.117643
C71   C     C_R   0.286586 0.892022 0.628119 -0.106236
C72   C     C_R   0.385284 0.110767 0.368984 -0.117635
H9    H     H_    0.336963 0.411893 0.378175 0.158587
H10   H     H_    0.248095 0.593591 0.626558 0.147159
H11   H     H_    0.663023 0.588106 0.878178 0.158573
H12   H     H_    0.751914 0.406407 0.126560 0.147179
H13   H     H_    0.836976 0.088106 0.121822 0.158604
H14   H     H_    0.748078 0.906409 0.873439 0.147144
H15   H     H_    0.163039 0.911894 0.621825 0.158588
H16   H     H_    0.251905 0.093591 0.373441 0.147160
C73   C     C_R   0.225692 0.361907 0.342483 -0.203041
C74   C     C_R   0.104241 0.641072 0.660205 -0.195918
C75   C     C_R   0.774296 0.638092 0.842484 -0.203038
C76   C     C_R   0.895768 0.358927 0.160206 -0.195920
C77   C     C_R   0.725703 0.138092 0.157516 -0.203048
C78   C     C_R   0.604227 0.858929 0.839793 -0.195909
C79   C     C_R   0.274309 0.861908 0.657518 -0.203043
C80   C     C_R   0.395760 0.141072 0.339794 -0.195919
H17   H     H_    0.359385 0.359150 0.326679 0.136682
H18   H     H_    0.230745 0.646661 0.677650 0.138184
H19   H     H_    0.640609 0.640848 0.826681 0.136681
H20   H     H_    0.769259 0.353336 0.177650 0.138187
H21   H     H_    0.859392 0.140849 0.173318 0.136680
H22   H     H_    0.730733 0.853340 0.822348 0.138185
H23   H     H_    0.140618 0.859151 0.673322 0.136683
H24   H     H_    0.269258 0.146660 0.322349 0.138185
C81   C     C_R   0.066811 0.336027 0.333390 -0.040402
C82   C     C_R   0.932433 0.663540 0.667041 -0.040374
C83   C     C_R   0.933175 0.663974 0.833391 -0.040402
C84   C     C_R   0.067579 0.336461 0.167042 -0.040376
C85   C     C_R   0.566824 0.163973 0.166609 -0.040404
C86   C     C_R   0.432420 0.836461 0.832958 -0.040375
C87   C     C_R   0.433188 0.836027 0.666610 -0.040403
C88   C     C_R   0.567567 0.163540 0.332959 -0.040375
C89   C     C_R   0.895720 0.340896 0.354598 -0.270643
C90   C     C_R   0.771141 0.654913 0.643910 -0.272717
C91   C     C_R   0.104260 0.659107 0.854599 -0.270638
C92   C     C_R   0.228879 0.345091 0.143911 -0.272717
C93   C     C_R   0.395736 0.159105 0.145402 -0.270642
C94   C     C_R   0.271124 0.845088 0.856091 -0.272717
C95   C     C_R   0.604279 0.840896 0.645402 -0.270644
C96   C     C_R   0.728859 0.154913 0.356090 -0.272718
H25   H     H_    0.771839 0.321152 0.347961 0.122827
H26   H     H_    0.637374 0.671905 0.648953 0.121204
H27   H     H_    0.228138 0.678853 0.847962 0.122827
H28   H     H_    0.362649 0.328101 0.148954 0.121203
H29   H     H_    0.271856 0.178850 0.152040 0.122828
H30   H     H_    0.137358 0.828096 0.851049 0.121203
H31   H     H_    0.728159 0.821151 0.652038 0.122827
H32   H     H_    0.862625 0.171906 0.351048 0.121204
C97   C     C_R   0.881903 0.370804 0.384462 0.017190
C98   C     C_R   0.780260 0.624683 0.614174 0.025883
C99   C     C_R   0.118072 0.629200 0.884464 0.017168
C100  C     C_R   0.219763 0.375322 0.114176 0.025903
C101  C     C_R   0.381921 0.129197 0.115539 0.017197
C102  C     C_R   0.280239 0.875318 0.885827 0.025879
C103  C     C_R   0.618097 0.870804 0.615538 0.017191
C104  C     C_R   0.719740 0.124684 0.385826 0.025884
C105  C     C_R   0.043772 0.396627 0.393348 0.373296
C106  C     C_R   0.955676 0.602600 0.607352 0.370316
C107  C     C_R   0.956206 0.603375 0.893351 0.373306
C108  C     C_R   0.044343 0.397403 0.107354 0.370298
C109  C     C_R   0.543789 0.103373 0.106651 0.373284
C110  C     C_R   0.455654 0.897402 0.892647 0.370324
C111  C     C_R   0.456229 0.896628 0.606652 0.373295
C112  C     C_R   0.544325 0.102600 0.392648 0.370316
C113  C     C_2   0.112101 0.437948 0.598454 0.893084
O37   O     O_2   0.236653 0.454542 0.618227 -0.504809
O38   O     O_R   0.022157 0.400413 0.610566 -0.642088
H33   H     H_    0.068866 0.390709 0.636595 0.324582
C114  C     C_2   0.929258 0.563129 0.402006 0.893460
O39   O     O_2   0.793947 0.549502 0.383215 -0.502452
O40   O     O_R   0.035769 0.598037 0.388921 -0.642121
H34   H     H_    0.990339 0.608521 0.363046 0.324243
C115  C     C_2   0.887551 0.562037 0.098450 0.893081
O41   O     O_2   0.763013 0.545422 0.118215 -0.504809
O42   O     O_R   0.977344 0.599586 0.110568 -0.642092
H35   H     H_    0.930553 0.609282 0.136594 0.324583
C116  C     C_2   0.071087 0.436886 0.902011 0.893444
O43   O     O_2   0.206395 0.450534 0.883228 -0.502467
O44   O     O_R   0.964712 0.401962 0.888918 -0.642126
H36   H     H_    0.010226 0.391486 0.863046 0.324241
C117  C     C_2   0.611963 0.062059 0.901541 0.893091
O45   O     O_2   0.736520 0.045473 0.881762 -0.504807
O46   O     O_R   0.521961 0.099589 0.889433 -0.642086
H37   H     H_    0.568630 0.109295 0.863402 0.324583
C118  C     C_2   0.429337 0.936869 0.097994 0.893464
O47   O     O_2   0.294037 0.950495 0.116791 -0.502448
O48   O     O_R   0.535853 0.901959 0.111074 -0.642123
H38   H     H_    0.490446 0.891475 0.136950 0.324244
C119  C     C_2   0.387909 0.937948 0.401546 0.893087
O49   O     O_2   0.263355 0.954542 0.381773 -0.504808
O50   O     O_R   0.477858 0.900414 0.389434 -0.642087
H39   H     H_    0.431153 0.890710 0.363405 0.324584
C120  C     C_2   0.570745 0.063129 0.597993 0.893459
O51   O     O_2   0.706054 0.049501 0.616785 -0.502452
O52   O     O_R   0.464243 0.098039 0.611079 -0.642122
H40   H     H_    0.509674 0.108521 0.636953 0.324243
C121  C     C_2   0.695728 0.373904 0.405212 0.411741
H41   H     H_    0.584416 0.350229 0.400137 0.046003
O53   O     O_2   0.661857 0.402873 0.427505 -0.517044
C122  C     C_2   0.603194 0.617121 0.591407 0.421075
H42   H     H_    0.485854 0.639990 0.592652 0.042289
O54   O     O_2   0.583099 0.585147 0.571926 -0.516341
C123  C     C_2   0.304237 0.626104 0.905215 0.411743
H43   H     H_    0.415556 0.649776 0.900136 0.046010
O55   O     O_2   0.338091 0.597143 0.927516 -0.517034
C124  C     C_2   0.396838 0.382889 0.091411 0.421098
H44   H     H_    0.514167 0.360017 0.092649 0.042273
O56   O     O_2   0.416951 0.414870 0.071940 -0.516339
C125  C     C_2   0.195748 0.126097 0.094791 0.411737
H45   H     H_    0.084442 0.149774 0.099864 0.045999
O57   O     O_2   0.161870 0.097127 0.072501 -0.517050
C126  C     C_2   0.103169 0.882880 0.908595 0.421069
H46   H     H_    0.985825 0.860012 0.907350 0.042296
O58   O     O_2   0.083078 0.914853 0.928079 -0.516340
C127  C     C_2   0.804271 0.873904 0.594788 0.411742
H47   H     H_    0.915583 0.850229 0.599862 0.046004
O59   O     O_2   0.838144 0.902872 0.572495 -0.517043
C128  C     C_2   0.896808 0.117122 0.408593 0.421074
H48   H     H_    0.014148 0.139991 0.407348 0.042290
O60   O     O_2   0.916903 0.085148 0.428074 -0.516341

loop_
_geom_bond_atom_site_label_1
_geom_bond_atom_site_label_2
_ccdc_geom_bond_type
O17   V3    S    
O42   H35   S    
C56   C64   A    
O18   V4    S    
O12   V1    S    
O19   V1    S    
C62   H6    S    
C115  O41   D    
C37   C45   A    
O52   H40   S    
C94   C102  A    
C78   H22   S    
C51   C115  S    
C32   C40   A    
C76   H20   S    
C39   C47   A    
C102  C126  S    
O15   V4    S    
O14   V4    S    
C118  O47   D    
O16   V3    S    
C30   C54   A    
C75   H19   S    
C61   H5    S    
O8    V1    S    
C42   C57   A    
N7    C23   A    
C54   C62   A    
C41   C58   A    
C26   C50   A    
C66   C106  A    
C38   C46   A    
C114  O39   D    
C46   C61   A    
C101  C125  S    
C127  H47   S    
C34   C42   A    
C67   C75   A    
C45   C62   A    
O1    V3    S    
C40   C48   A    
C97   C105  A    
C22   O34   S    
O3    C2    A    
O2    V4    S    
C65   C73   A    
N7    C112  S    
C70   C110  A    
C1    C88   S    
O13   V3    S    
N8    C111  S    
C2    C87   S    
C100  C108  A    
C27   C35   A    
C101  C109  A    
C52   C116  S    
C26   C34   A    
C95   C103  A    
O11   V2    S    
C69   C77   A    
C10   N2    A    
C127  O59   D    
C23   C31   A    
C31   C55   A    
C104  C112  A    
C80   C88   A    
C91   H27   S    
C119  O50   S    
C98   C122  S    
C92   C100  A    
O9    V1    S    
C65   C105  A    
C49   C57   A    
N4    C20   A    
O15   C7    A    
N5    C21   A    
O40   H34   S    
O16   C8    A    
O7    V2    S    
C125  H45   S    
O14   C6    A    
C126  O58   D    
C115  O42   S    
C30   C38   A    
O12   C4    A    
O3    V4    S    
C124  O56   D    
C78   C86   A    
C19   O31   S    
C11   O23   S    
N1    C17   A    
C122  H42   S    
C68   H12   S    
C64   H8    S    
C117  O45   D    
C19   C27   A    
O5    V1    S    
C6    C83   S    
C118  O48   S    
C76   C84   A    
O17   V1    S    
C121  O53   D    
C128  O60   D    
C94   H30   S    
C14   N6    A    
C120  O52   S    
C77   H21   S    
O44   H36   S    
C18   C26   A    
O20   V4    S    
C9    N1    A    
C66   C74   A    
C50   C114  S    
C123  O55   D    
C33   C41   A    
C85   C93   A    
O50   H39   S    
C68   C108  A    
C17   O29   S    
C93   C101  A    
C14   C46   A    
C96   C104  A    
C119  O49   D    
C116  O43   D    
C97   C121  S    
C70   C78   A    
C71   C111  A    
C35   C36   A    
C21   O33   S    
C55   C63   A    
C72   C112  A    
C103  C127  S    
C113  O38   S    
C44   C59   A    
O48   H38   S    
C120  O51   D    
C27   C51   A    
C16   O28   S    
C60   H4    S    
O10   V2    S    
C52   C60   A    
O46   H37   S    
C90   H26   S    
C57   H1    S    
C75   C83   A    
O11   C3    A    
N6    C22   A    
C16   C48   A    
O8    C5    A    
C73   C81   A    
C12   O24   S    
C71   C79   A    
O9    C1    A    
C48   C63   A    
C15   O27   S    
C72   C80   A    
C20   O32   S    
C29   C53   A    
C43   C60   A    
N2    C18   A    
C96   H32   S    
O4    C1    A    
C77   C85   A    
N2    C105  S    
C9    C41   A    
O6    V2    S    
C72   H16   S    
C31   C39   A    
C114  O40   S    
C113  O37   D    
C4    C85   S    
C125  O57   D    
O19   V3    S    
C91   C99   A    
C122  O54   D    
C25   C49   A    
C12   N4    A    
C23   O35   S    
C35   C43   A    
C124  H44   S    
N6    C109  S    
C99   C123  S    
C82   C90   A    
C55   C119  S    
C11   N3    A    
C8    C81   S    
C86   C94   A    
C15   N7    A    
C58   H2    S    
C29   C37   A    
N8    C24   A    
C128  H48   S    
C59   H3    S    
O1    C4    A    
C32   C56   A    
C67   H11   S    
O2    C3    A    
C3    C86   S    
C104  C128  S    
C21   C29   A    
C68   C76   A    
C11   C43   A    
C65   H9    S    
C100  C124  S    
C103  C111  A    
C17   C25   A    
C69   C109  A    
C79   C87   A    
C36   C44   A    
O7    C6    A    
C51   C59   A    
C69   H13   S    
C93   H29   S    
C50   C58   A    
C74   H18   S    
C73   H17   S    
C83   C91   A    
C39   C40   A    
C10   O22   S    
O20   V2    S    
C54   C118  S    
C89   H25   S    
C47   C64   A    
C14   O26   S    
C24   O36   S    
O13   C5    A    
C84   C92   A    
C13   O25   S    
C28   C52   A    
N3    C19   A    
C24   C32   A    
O5    C8    A    
C13   C45   A    
N3    C108  S    
O10   C2    A    
O6    C7    A    
C79   H23   S    
C126  H46   S    
C117  O46   S    
C5    C84   S    
C87   C95   A    
N1    C106  S    
C95   H31   S    
C9    O21   S    
C88   C96   A    
C67   C107  A    
C37   C38   A    
C71   H15   S    
C89   C97   A    
C90   C98   A    
O4    V3    S    
C92   H28   S    
C28   C36   A    
N4    C107  S    
C49   C113  S    
O38   H33   S    
C98   C106  A    
N5    C110  S    
C12   C44   A    
C53   C61   A    
C99   C107  A    
C53   C117  S    
C70   H14   S    
C20   C28   A    
C33   C34   A    
C63   H7    S    
C7    C82   S    
C81   C89   A    
C123  H43   S    
C18   O30   S    
C56   C120  S    
C22   C30   A    
C10   C42   A    
C102  C110  A    
C74   C82   A    
C116  O44   S    
C13   N5    A    
C16   N8    A    
C66   H10   S    
C80   H24   S    
C25   C33   A    
C15   C47   A    
C121  H41   S    
O18   V2    S    
