data_mof_unit_16486.cif
_audit_creation_date              2012-10-26T17:13:01-0400
_audit_creation_method            fapswitch 2.2
_symmetry_space_group_name_H-M    P1
_symmetry_Int_Tables_number       1
_space_group_crystal_system       triclinic
_cell_length_a                    16.734191
_cell_length_b                    16.733081
_cell_length_c                    16.826125
_cell_angle_alpha                 67.889473
_cell_angle_beta                  67.988528
_cell_angle_gamma                 68.467912
_cell_volume                      3904.35741617

loop_
_atom_site_label
_atom_site_type_symbol
_atom_type_description
_atom_site_fract_x
_atom_site_fract_y
_atom_site_fract_z
_atom_type_partial_charge
C1    C     C_R   0.325534 0.944463 0.453765 -0.001824
C2    C     C_R   0.324696 0.458395 0.937262 -0.009273
C3    C     C_R   0.554753 0.435049 0.936346 0.012072
C4    C     C_R   0.044983 0.456705 0.569665 0.011238
C5    C     C_R   0.961864 0.540783 0.429443 0.012475
C6    C     C_3   0.282355 0.895101 0.278377 -0.352564
C7    C     C_3   0.718680 0.100624 0.719817 -0.355931
C8    C     C_3   0.044118 0.234731 0.233295 -0.346746
C9    C     C_3   0.940704 0.760933 0.769491 -0.344311
C10   C     C_3   0.251046 0.250066 0.062896 -0.357347
C11   C     C_3   0.715665 0.711192 0.106892 -0.358824
C12   C     C_3   0.528924 0.854185 0.820798 -0.355561
C13   C     C_R   0.976538 0.694758 0.572487 0.000111
C14   C     C_3   0.469352 0.142959 0.182894 -0.356577
C15   C     C_3   0.854425 0.824198 0.512570 -0.354407
C16   C     C_3   0.148286 0.171879 0.488859 -0.353426
C17   C     C_3   0.827025 0.522980 0.855514 -0.349650
C18   C     C_3   0.239006 0.610559 0.855657 -0.355254
C19   C     C_3   0.255142 0.834173 0.593230 -0.362668
C20   C     C_3   0.742867 0.162306 0.408963 -0.360983
C21   C     C_3   0.598740 0.246833 0.842838 -0.371180
C22   C     C_3   0.395389 0.745759 0.125317 -0.364201
C23   C     C_3   0.838106 0.568521 0.268016 -0.379424
C24   C     C_R   0.028796 0.302902 0.426434 -0.000267
C25   C     C_3   0.166764 0.429176 0.734276 -0.366026
C26   C     C_R   0.449062 0.990170 0.454140 -0.014759
C27   C     C_R   0.551742 0.003534 0.547781 -0.014237
C28   C     C_R   0.999603 0.447656 0.450679 -0.012120
C29   C     C_R   0.007168 0.549812 0.548288 -0.013976
C30   C     C_R   0.463123 0.469483 0.943908 -0.012212
C31   C     C_R   0.553942 0.562175 0.975252 -0.013598
C32   C     C_R   0.007145 0.834002 0.571300 0.559676
C33   C     C_R   0.675192 0.049628 0.547702 -0.002328
C34   C     C_R   0.994420 0.165142 0.428504 0.563445
C35   C     C_R   0.829962 0.568777 0.017409 0.553360
C36   C     C_R   0.171261 0.434661 0.974670 0.556582
C37   C     C_R   0.569483 0.016402 0.830252 0.557130
C38   C     C_R   0.430984 0.981725 0.170209 0.551431
C39   C     C_R   0.435266 0.171976 0.973219 0.546487
C40   C     C_R   0.563947 0.828031 0.028463 0.548599
C41   C     C_R   0.978671 0.432114 0.170722 0.561232
C42   C     C_R   0.023123 0.567188 0.829027 0.540242
C43   C     C_R   0.171815 0.968708 0.436648 0.543851
C44   C     C_R   0.960436 0.439720 0.326784 -0.002638
C45   C     C_R   0.828398 0.029427 0.563805 0.545579
C46   C     C_R   0.399277 0.981999 0.406888 -0.009918
C47   C     C_R   0.601510 0.011963 0.594864 -0.009384
C48   C     C_R   0.996413 0.396903 0.401329 -0.006131
C49   C     C_R   0.009954 0.600742 0.597505 -0.009249
C50   C     C_R   0.414678 0.419075 0.938737 -0.007120
C51   C     C_R   0.598751 0.606786 0.994399 -0.010625
C52   C     C_R   0.271583 0.948233 0.403554 -0.020422
C53   C     C_R   0.729287 0.046118 0.597512 -0.019195
C54   C     C_R   0.978815 0.389258 0.266020 -0.010793
C55   C     C_R   0.045426 0.558297 0.672455 -0.008127
C56   C     C_R   0.024500 0.609309 0.733487 -0.017204
C57   C     C_R   0.400767 0.271373 0.959527 -0.016237
C58   C     C_R   0.597231 0.729295 0.040424 -0.019391
C59   C     C_R   0.612650 0.014317 0.734997 -0.013335
C60   C     C_R   0.388314 0.980881 0.266144 -0.014689
C61   C     C_R   0.735060 0.611101 0.013853 -0.013486
C62   C     C_R   0.269668 0.400651 0.960208 -0.013054
C63   C     C_R   0.991685 0.743563 0.615917 -0.017031
C64   C     C_R   0.011848 0.254572 0.383368 -0.018027
C65   C     C_R   0.520655 0.924337 0.733428 0.000258
C66   C     C_R   0.456526 0.330290 0.933397 -0.008159
C67   C     C_R   0.479299 0.070903 0.268869 0.003184
C68   C     C_R   0.923918 0.735223 0.511015 0.002316
C69   C     C_R   0.080812 0.262006 0.488741 0.001329
C70   C     C_R   0.740035 0.514684 0.926031 0.003388
C71   C     C_R   0.292678 0.553045 0.922222 0.020395
C72   C     C_R   0.311632 0.900863 0.546877 0.005724
C73   C     C_R   0.688519 0.093676 0.454836 0.004935
C74   C     C_R   0.551647 0.306424 0.903125 0.006204
C75   C     C_R   0.454045 0.705810 0.048628 0.013077
C76   C     C_R   0.909970 0.530507 0.315852 0.012229
C77   C     C_R   0.549276 0.681510 0.028640 -0.006670
C78   C     C_R   0.095911 0.467174 0.684394 0.005564
C79   C     C_R   0.313273 0.945162 0.314990 -0.047471
C80   C     C_R   0.688559 0.048380 0.685761 -0.047849
C81   C     C_R   0.008706 0.294761 0.295056 -0.052520
C82   C     C_R   0.991429 0.703549 0.704958 -0.052617
C83   C     C_R   0.307452 0.307120 0.986274 -0.040516
C84   C     C_R   0.683907 0.685169 0.049411 -0.046841
C85   C     C_R   0.638534 0.084927 0.407821 0.028340
C86   C     C_R   0.362144 0.908853 0.594017 0.028923
C87   C     C_R   0.090354 0.415368 0.637021 0.029652
C88   C     C_R   0.578116 0.982392 0.689578 -0.006206
C89   C     C_R   0.916284 0.582230 0.362451 0.035020
C90   C     C_R   0.413508 0.673205 0.011649 0.021619
C91   C     C_R   0.600763 0.355843 0.910289 0.029003
C92   C     C_R   0.533350 0.074119 0.314785 0.031802
C93   C     C_R   0.467219 0.920025 0.687321 0.031604
C94   C     C_R   0.331514 0.595249 0.951007 0.032361
C95   C     C_R   0.694976 0.459413 0.923194 0.030254
C96   C     C_R   0.082178 0.312520 0.539550 0.031200
C97   C     C_R   0.923742 0.684827 0.459801 0.031395
C98   C     C_R   0.653371 0.123115 0.315047 -0.136794
C99   C     C_R   0.422365 0.012403 0.312237 -0.007533
C100  C     C_R   0.347619 0.870302 0.686805 -0.136323
C101  C     C_R   0.130022 0.322679 0.655010 -0.135681
C102  C     C_R   0.876641 0.674931 0.344197 -0.133047
C103  C     C_R   0.324760 0.713209 0.006226 -0.144000
C104  C     C_R   0.694870 0.330350 0.888637 -0.136919
C105  C     C_R   0.601315 0.118730 0.269806 -0.134229
C106  C     C_R   0.399555 0.874912 0.732156 -0.134331
C107  C     C_R   0.286017 0.677304 0.971452 -0.135414
C108  C     C_R   0.741188 0.382412 0.892990 -0.133486
C109  C     C_R   0.125851 0.272444 0.607604 -0.135443
C110  C     C_R   0.693010 0.577554 0.977377 -0.008204
C111  C     C_R   0.880364 0.725048 0.391686 -0.134879
C112  C     C_R   0.518735 0.033023 0.407544 0.012341
C113  C     C_R   0.482060 0.960683 0.594444 0.012990
C114  C     C_R   0.041013 0.405398 0.520844 0.013376
C115  C     C_R   0.965637 0.592024 0.478237 0.012883
C116  C     C_R   0.418679 0.553572 0.959620 0.012681
C117  C     C_R   0.601255 0.484386 0.946788 0.013261
C118  C     C_R   0.570602 0.039285 0.454305 0.010270
C119  C     C_R   0.430238 0.954303 0.547614 0.010132
C120  C     C_R   0.462279 0.596769 0.981621 0.010214
Cu1   Cu    Cu3+1 0.995180 0.995180 0.424630 0.852051
Cu2   Cu    Cu3+1 0.004820 0.004820 0.575370 0.853968
Cu3   Cu    Cu3+1 0.995180 0.424630 0.995180 0.858458
Cu4   Cu    Cu3+1 0.004820 0.575370 0.004820 0.860857
Cu5   Cu    Cu3+1 0.424630 0.995180 0.995180 0.860302
Cu6   Cu    Cu3+1 0.575370 0.004820 0.004820 0.859835
H1    H     H_    0.384570 0.844021 0.803401 0.113931
H2    H     H_    0.286032 0.773924 0.025892 0.102869
H3    H     H_    0.842960 0.710365 0.292154 0.107058
H4    H     H_    0.163789 0.287367 0.706998 0.109995
H5    H     H_    0.340760 0.847671 0.247037 0.124398
H6    H     H_    0.239543 0.852917 0.332058 0.137931
H7    H     H_    0.244454 0.942448 0.229718 0.161360
H8    H     H_    0.658973 0.149353 0.744360 0.120610
H9    H     H_    0.753433 0.056317 0.771885 0.164199
H10   H     H_    0.762066 0.142294 0.666313 0.139530
H11   H     H_    0.091776 0.170962 0.257708 0.136931
H12   H     H_    0.616354 0.149448 0.198548 0.108784
H13   H     H_    0.987995 0.221320 0.224721 0.160351
H14   H     H_    0.084990 0.263465 0.167890 0.141952
H15   H     H_    0.897797 0.825602 0.739281 0.136540
H16   H     H_    0.893175 0.727730 0.827828 0.138666
H17   H     H_    0.987910 0.775013 0.791281 0.159426
H18   H     H_    0.290393 0.188282 0.100708 0.131458
H19   H     H_    0.211624 0.288337 0.112643 0.113270
H20   H     H_    0.208273 0.231606 0.039398 0.161847
H21   H     H_    0.740801 0.649853 0.155627 0.120321
H22   H     H_    0.767737 0.747664 0.065673 0.164575
H23   H     H_    0.849288 0.796139 0.373546 0.108286
H24   H     H_    0.660391 0.753155 0.147838 0.134384
H25   H     H_    0.586351 0.850950 0.840708 0.136057
H26   H     H_    0.466069 0.866810 0.874087 0.170775
H27   H     H_    0.541605 0.786891 0.813667 0.118469
H28   H     H_    0.531495 0.132215 0.128356 0.170266
H29   H     H_    0.411596 0.146470 0.163506 0.126884
H30   H     H_    0.456240 0.209479 0.191971 0.116354
H31   H     H_    0.845222 0.847102 0.569958 0.135535
H32   H     H_    0.872532 0.875722 0.449172 0.164471
H33   H     H_    0.787971 0.817399 0.520805 0.115317
H34   H     H_    0.156745 0.201324 0.625850 0.108724
H35   H     H_    0.128613 0.121618 0.552820 0.163730
H36   H     H_    0.156799 0.148592 0.431971 0.137660
H37   H     H_    0.215404 0.176975 0.480765 0.115832
H38   H     H_    0.846358 0.581823 0.850100 0.132452
H39   H     H_    0.880202 0.460680 0.869277 0.172150
H40   H     H_    0.819449 0.533592 0.789156 0.117127
H41   H     H_    0.226274 0.569484 0.825258 0.133229
H42   H     H_    0.174549 0.652402 0.887154 0.152094
H43   H     H_    0.277500 0.655887 0.800365 0.101065
H44   H     H_    0.194861 0.859407 0.643718 0.150231
H45   H     H_    0.813385 0.360317 0.874982 0.106481
H46   H     H_    0.234345 0.818743 0.546597 0.139627
H47   H     H_    0.294801 0.769056 0.626793 0.107164
H48   H     H_    0.762091 0.178864 0.455971 0.138712
H49   H     H_    0.803921 0.138311 0.358437 0.151575
H50   H     H_    0.702138 0.226642 0.375484 0.112761
H51   H     H_    0.643292 0.184800 0.874656 0.154042
H52   H     H_    0.550143 0.231235 0.824462 0.136770
H53   H     H_    0.639579 0.282236 0.779209 0.108310
H54   H     H_    0.435750 0.749572 0.162495 0.128294
H55   H     H_    0.352310 0.813136 0.101449 0.145125
H56   H     H_    0.218480 0.710851 0.966292 0.103643
H57   H     H_    0.351517 0.702116 0.173806 0.117000
H58   H     H_    0.857548 0.621140 0.206206 0.152760
H59   H     H_    0.824621 0.516897 0.252220 0.129611
H60   H     H_    0.773806 0.598417 0.311534 0.111482
H61   H     H_    0.179235 0.481200 0.750403 0.122860
H62   H     H_    0.147968 0.376539 0.796430 0.158403
H63   H     H_    0.231678 0.399400 0.691461 0.115739
H64   H     H_    0.295573 0.836216 0.726010 0.104080
H65   H     H_    0.705679 0.156848 0.275840 0.108420
H66   H     H_    0.733625 0.270170 0.867988 0.105151
O1    O     O_R   0.124540 0.978640 0.385460 -0.512228
O2    O     O_R   0.124540 0.385460 0.978640 -0.519304
O3    O     O_R   0.021360 0.875460 0.614540 -0.515695
O4    O     O_R   0.978640 0.124540 0.385460 -0.518842
O5    O     O_R   0.013780 0.867370 0.487190 -0.504861
O6    O     O_R   0.986220 0.132630 0.512810 -0.504916
O7    O     O_R   0.867370 0.487190 0.013780 -0.500124
O8    O     O_R   0.132630 0.512810 0.986220 -0.502531
O9    O     O_R   0.487190 0.013780 0.867370 -0.500055
O10   O     O_R   0.512810 0.986220 0.132630 -0.503437
O11   O     O_R   0.512810 0.132630 0.986220 -0.523612
O12   O     O_R   0.875460 0.021360 0.614540 -0.510726
O13   O     O_R   0.487190 0.867370 0.013780 -0.523945
O14   O     O_R   0.986220 0.512810 0.132630 -0.497745
O15   O     O_R   0.013780 0.487190 0.867370 -0.522251
O16   O     O_R   0.132630 0.986220 0.512810 -0.520926
O17   O     O_R   0.867370 0.013780 0.487190 -0.520388
O18   O     O_R   0.978640 0.385460 0.124540 -0.514335
O19   O     O_R   0.021360 0.614540 0.875460 -0.522818
O20   O     O_R   0.385460 0.124540 0.978640 -0.498990
O21   O     O_R   0.614540 0.875460 0.021360 -0.502010
O22   O     O_R   0.614540 0.021360 0.875460 -0.518276
O23   O     O_R   0.385460 0.978640 0.124540 -0.521499
O24   O     O_R   0.875460 0.614540 0.021360 -0.521635

loop_
_geom_bond_atom_site_label_1
_geom_bond_atom_site_label_2
_ccdc_geom_bond_type
C78   C87   A    
C44   C48   A    
C62   C83   A    
C60   C79   A    
C39   O11   A    
C89   C102  A    
Cu5   O23   S    
C12   H26   S    
C5    C89   A    
C102  H3    S    
C38   O23   A    
C46   C99   A    
C60   C99   A    
C96   C114  A    
C33   C47   A    
C51   C77   A    
C102  C111  A    
C35   O7    A    
Cu3   Cu4   S    
C4    C87   A    
C29   C49   A    
Cu6   O10   S    
C7    H9    S    
Cu5   O9    S    
C32   O5    A    
C98   C105  A    
C8    H13   S    
C33   C73   A    
C19   H44   S    
C4    C114  A    
C17   H38   S    
C15   H31   S    
C22   H55   S    
C17   H40   S    
C14   H29   S    
C116  C120  A    
C43   C52   S    
C18   H43   S    
C20   H49   S    
C40   O13   A    
C27   C47   A    
C104  H66   S    
Cu3   O18   S    
C10   C83   S    
C3    C91   A    
Cu2   O12   S    
C41   O14   A    
C44   C76   A    
C59   C88   A    
C31   C117  A    
C85   C98   A    
C2    C50   A    
C75   C90   A    
C42   C56   S    
C105  H12   S    
C113  C119  A    
C25   H63   S    
C20   H48   S    
C31   C120  A    
C40   O21   A    
C39   O20   A    
C14   C67   S    
C57   C83   A    
Cu3   O2    S    
C86   C119  A    
Cu1   O17   S    
C97   C115  A    
C52   C79   A    
C70   C110  A    
C35   O24   A    
C12   H27   S    
Cu1   O4    S    
C4    C29   A    
C58   C77   A    
C67   C99   A    
C9    C82   S    
Cu4   O14   S    
C101  H4    S    
C69   C96   A    
C65   C93   A    
C29   C115  A    
C45   C53   S    
C17   C70   S    
C24   C64   A    
C87   C101  A    
C5    C115  A    
C12   H25   S    
Cu6   O22   S    
C19   C72   S    
C22   C75   S    
C32   O3    A    
C36   C62   S    
C61   C110  A    
C111  H23   S    
Cu1   O1    S    
Cu5   O20   S    
C24   C69   A    
C36   O2    A    
C11   H22   S    
C16   H37   S    
C33   C53   A    
C90   C103  A    
C94   C107  A    
C1    C72   A    
C40   C58   S    
C63   C82   A    
C8    C81   S    
C24   C48   A    
Cu2   O16   S    
C53   C80   A    
C19   H46   S    
C15   H32   S    
C22   H54   S    
C23   H59   S    
C55   C78   A    
C18   H42   S    
C92   C112  A    
C30   C116  A    
C107  H56   S    
C16   H36   S    
C49   C55   A    
C21   C74   S    
Cu2   O3    S    
C95   C117  A    
C25   C78   S    
C8    H11   S    
C90   C120  A    
C74   C91   A    
C3    C30   A    
C19   H47   S    
C15   H33   S    
C22   H57   S    
Cu6   O21   S    
C58   C84   A    
C93   C106  A    
C5    C28   A    
C75   C77   A    
C34   O6    A    
C11   H24   S    
C72   C86   A    
C13   C63   A    
C21   H53   S    
C9    H16   S    
C73   C85   A    
C55   C56   A    
C34   C64   S    
Cu3   O15   S    
C42   O15   A    
C35   C61   S    
C10   H18   S    
C26   C119  A    
C103  H2    S    
C50   C66   A    
C39   C57   S    
Cu1   O5    S    
Cu1   Cu2   S    
C37   C59   S    
C96   C109  A    
C28   C114  A    
C10   H20   S    
C38   C60   S    
C41   O18   A    
C27   C113  A    
C6    H6    S    
C21   H52   S    
C51   C110  A    
Cu5   Cu6   S    
C16   H35   S    
Cu6   O11   S    
C13   C49   A    
C2    C71   A    
C26   C112  A    
C37   O22   A    
C104  C108  A    
C86   C100  A    
C65   C88   A    
C25   H61   S    
Cu4   O24   S    
C27   C118  A    
C34   O4    A    
C18   C71   S    
Cu4   O8    S    
C91   C104  A    
C28   C48   A    
C94   C116  A    
C14   H30   S    
C43   O16   A    
C100  H64   S    
C16   C69   S    
C36   O8    A    
C32   C63   S    
C31   C51   A    
C98   H65   S    
Cu5   O13   S    
C61   C84   A    
C59   C80   A    
Cu3   O7    S    
C23   H60   S    
C103  C107  A    
C18   H41   S    
C56   C82   A    
Cu4   O19   S    
C11   C84   S    
C6    H7    S    
C12   C65   S    
C76   C89   A    
C100  C106  A    
C6    H5    S    
C43   O1    A    
C8    H14   S    
C47   C88   A    
C70   C95   A    
C7    H10   S    
C57   C66   A    
C17   H39   S    
C112  C118  A    
Cu2   O6    S    
C11   H21   S    
C6    C79   S    
C20   H50   S    
C45   O12   A    
C97   C111  A    
C15   C68   S    
C106  H1    S    
C21   H51   S    
C67   C92   A    
C20   C73   S    
C93   C113  A    
C41   C54   S    
C30   C50   A    
C85   C118  A    
C1    C46   A    
C1    C52   A    
C45   O17   A    
C64   C81   A    
C68   C97   A    
C9    H15   S    
C95   C108  A    
C26   C46   A    
C10   H19   S    
C9    H17   S    
C44   C54   A    
C92   C105  A    
C23   H58   S    
C7    H8    S    
C38   O10   A    
C108  H45   S    
C23   C76   S    
C37   O9    A    
C25   H62   S    
C71   C94   A    
C3    C117  A    
C109  H34   S    
C101  C109  A    
C54   C81   A    
C14   H28   S    
C42   O19   A    
C2    C62   A    
C7    C80   S    
C13   C68   A    
C66   C74   A    
