data_mof_unit_27700.cif
_audit_creation_date              2012-12-10T20:28:42-0500
_audit_creation_method            fapswitch 2.2
_symmetry_space_group_name_H-M    P1
_symmetry_Int_Tables_number       1
_space_group_crystal_system       triclinic
_cell_length_a                    10.584849
_cell_length_b                    10.647334
_cell_length_c                    9.932997
_cell_angle_alpha                 89.042619
_cell_angle_beta                  88.892136
_cell_angle_gamma                 89.806762
_cell_volume                      1119.08224509

loop_
_atom_site_label
_atom_site_type_symbol
_atom_type_description
_atom_site_fract_x
_atom_site_fract_y
_atom_site_fract_z
_atom_type_partial_charge
C1    C     C_R   0.507127 0.260811 0.500918 0.864906
C2    C     C_R   0.064753 0.622410 0.523319 0.086068
C3    C     C_R   0.128356 0.507789 0.502528 -0.092896
C4    C     C_R   0.065724 0.396564 0.476767 -0.219399
C5    C     C_R   0.936659 0.396629 0.473971 -0.227242
C6    C     C_R   0.871489 0.507952 0.496725 -0.079285
C7    C     C_R   0.430662 0.064065 0.587596 0.073906
C8    C     C_R   0.514201 0.128598 0.501995 -0.142739
C9    C     C_R   0.587322 0.063683 0.404344 0.151758
C10   C     C_R   0.576650 0.933699 0.400778 -0.253186
C11   C     C_R   0.498161 0.871084 0.494486 -0.103703
C12   C     C_R   0.260743 0.501698 0.501022 0.871424
C13   C     C_R   0.419668 0.937137 0.581318 0.053723
C14   C     C_3   0.390692 0.921167 0.728470 -0.515214
C15   C     C_3   0.407160 0.063014 0.737773 -0.019896
C16   C     C_R   0.404906 0.442495 0.074560 0.129089
C17   C     C_R   0.596847 0.552971 0.066394 0.194324
C18   C     C_R   0.597716 0.548297 0.923477 -0.146405
C19   C     C_R   0.402054 0.448727 0.932477 0.094519
C20   C     C_3   0.267026 0.492818 0.935194 -0.063449
C21   C     C_3   0.268266 0.475568 0.087597 -0.479975
C22   C     C_R   0.499024 0.739324 0.498871 0.857348
C23   C     C_R   0.739250 0.500756 0.498884 0.854895
C24   C     C_R   0.129093 0.736242 0.544458 -0.185929
C25   C     C_R   0.061979 0.847773 0.563795 -0.147739
C26   C     C_R   0.930428 0.847570 0.562402 -0.146134
C27   C     C_R   0.865738 0.735945 0.541086 -0.193038
C28   C     C_R   0.932590 0.622379 0.520917 0.087306
H1    H     H_    0.461519 0.863532 0.783022 0.223881
H2    H     H_    0.674416 0.590635 0.865275 0.163213
H3    H     H_    0.203352 0.426412 0.884350 0.166811
H4    H     H_    0.251529 0.562914 0.145255 0.227295
H5    H     H_    0.210968 0.394176 0.124253 0.180089
H6    H     H_    0.231013 0.739737 0.545824 0.129148
H7    H     H_    0.878363 0.934120 0.577232 0.134339
H8    H     H_    0.763745 0.739449 0.539634 0.128986
H9    H     H_    0.887448 0.309587 0.456217 0.123811
H10   H     H_    0.636032 0.880975 0.331545 0.151238
H11   H     H_    0.291522 0.891074 0.747601 0.172384
N1    N     N_R   0.499160 0.499140 0.142800 -0.119053
N2    N     N_R   0.499160 0.499180 0.857150 -0.129172
O1    O     O_R   0.500020 0.316790 0.614690 -0.615645
O2    O     O_R   0.500000 0.316760 0.385350 -0.603656
O3    O     O_R   0.316770 0.500020 0.614690 -0.632309
O4    O     O_R   0.316760 0.499980 0.385350 -0.614604
O5    O     O_R   0.500000 0.683240 0.614650 -0.632758
O6    O     O_R   0.499980 0.683210 0.385310 -0.638652
O7    O     O_R   0.683240 0.500020 0.614650 -0.618511
O8    O     O_R   0.683230 0.499980 0.385310 -0.625071
Zn1   Zn    Zn3+2 0.500010 0.500020 0.653130 0.913406
Zn2   Zn    Zn3+2 0.499990 0.499980 0.346870 0.925562
H12   H     H_    0.117076 0.309758 0.459582 0.137234
H13   H     H_    0.316919 0.111082 0.764835 0.118742
C29   C     C_3   0.516858 0.101864 0.829356 -0.321740
C30   C     C_3   0.649957 0.060733 0.783955 -0.837690
H14   H     H_    0.653665 0.959610 0.759252 0.254700
H15   H     H_    0.683232 0.117123 0.695520 0.251527
H16   H     H_    0.716851 0.076998 0.866506 0.233150
H17   H     H_    0.516056 0.205346 0.840418 0.220271
H18   H     H_    0.497062 0.061292 0.931240 0.190584
C31   C     C_3   0.700654 0.628692 0.127127 -0.373780
C32   C     C_3   0.825512 0.556029 0.126812 -0.839525
H19   H     H_    0.861503 0.544704 0.021945 0.241646
H20   H     H_    0.896713 0.608386 0.184162 0.249130
H21   H     H_    0.813334 0.461259 0.173480 0.278857
H22   H     H_    0.714303 0.716982 0.067214 0.165545
H23   H     H_    0.675086 0.660948 0.228489 0.251881
C33   C     C_3   0.249950 0.632072 0.892408 -0.321361
C34   C     C_3   0.111375 0.671502 0.901371 -0.892537
H24   H     H_    0.053365 0.611619 0.836216 0.270190
H25   H     H_    0.075748 0.663420 0.006957 0.264237
H26   H     H_    0.101525 0.770760 0.867063 0.252296
H27   H     H_    0.306576 0.694444 0.956607 0.196182
H28   H     H_    0.284293 0.648103 0.787922 0.247408
H29   H     H_    0.112101 0.934561 0.579684 0.131045
C35   C     C_3   0.686362 0.126438 0.313950 -0.395890
C36   C     C_3   0.644150 0.133070 0.168083 -0.834783
H30   H     H_    0.633436 0.036903 0.128337 0.243749
H31   H     H_    0.552841 0.184117 0.160315 0.270483
H32   H     H_    0.716244 0.183753 0.105518 0.240695
H33   H     H_    0.708994 0.222340 0.347496 0.205256
H34   H     H_    0.776247 0.072372 0.319366 0.188728

loop_
_geom_bond_atom_site_label_1
_geom_bond_atom_site_label_2
_ccdc_geom_bond_type
C8    C9    A    
C30   H14   S    
C16   C21   S    
C5    H9    S    
C1    C8    S    
C19   C20   S    
C7    C8    A    
C29   H18   S    
C36   H30   S    
C26   C27   A    
C4    H12   S    
C15   H13   S    
C5    C6    A    
C23   O8    A    
C21   H5    S    
O4    Zn2   S    
C33   H28   S    
C34   H25   S    
C32   H20   S    
C3    C12   S    
C17   C31   S    
C14   H11   S    
C31   H22   S    
C1    O2    A    
C6    C28   A    
C33   C34   S    
O8    Zn2   S    
C18   H2    S    
C9    C35   S    
C9    C10   A    
C7    C15   S    
C22   O6    A    
C13   C14   S    
C34   H24   S    
C29   H17   S    
C36   H31   S    
C21   H4    S    
C15   C29   S    
C35   C36   S    
C18   N2    A    
C35   H34   S    
C26   H7    S    
C4    C5    A    
O6    Zn2   S    
C25   C26   A    
C24   H6    S    
C25   H29   S    
C17   N1    A    
C34   H26   S    
C32   H19   S    
C31   H23   S    
C17   C18   A    
C24   C25   A    
O1    Zn1   S    
C22   O5    A    
C16   N1    A    
C30   H15   S    
C2    C24   A    
C14   H1    S    
C3    C4    A    
N2    Zn1   S    
C36   H32   S    
O3    Zn1   S    
C29   C30   S    
C23   O7    A    
C32   H21   S    
C20   C33   S    
C12   O4    A    
C35   H33   S    
C27   H8    S    
N1    Zn2   S    
O5    Zn1   S    
C11   C22   S    
C10   H10   S    
C2    C3    A    
C33   H27   S    
C12   O3    A    
C11   C13   A    
O2    Zn2   S    
C16   C19   A    
C6    C23   S    
O7    Zn1   S    
C31   C32   S    
C10   C11   A    
C1    O1    A    
C7    C13   A    
C20   C21   S    
C30   H16   S    
C27   C28   A    
C14   C15   S    
C2    C28   A    
C19   N2    A    
C20   H3    S    
