data_mof_unit_23375.cif
_audit_creation_date              2012-10-26T19:09:32-0400
_audit_creation_method            fapswitch 2.2
_symmetry_space_group_name_H-M    P1
_symmetry_Int_Tables_number       1
_space_group_crystal_system       triclinic
_cell_length_a                    10.853345
_cell_length_b                    9.609531
_cell_length_c                    19.316145
_cell_angle_alpha                 89.258796
_cell_angle_beta                  93.634441
_cell_angle_gamma                 87.18454
_cell_volume                      2007.84912992

loop_
_atom_site_label
_atom_site_type_symbol
_atom_type_description
_atom_site_fract_x
_atom_site_fract_y
_atom_site_fract_z
_atom_type_partial_charge
C1    C     C_R   0.262950 0.503586 0.504362 0.567874
C2    C     C_R   0.054579 0.623118 0.480885 0.219515
C3    C     C_R   0.873328 0.493238 0.497779 -0.055710
C4    C     C_R   0.129353 0.511572 0.510993 -0.053375
C5    C     C_R   0.434510 0.079553 0.448681 0.345826
C6    C     C_R   0.568595 0.920381 0.549995 0.324978
C7    C     C_R   0.576345 0.068936 0.546106 0.314153
C8    C     C_R   0.440287 0.930504 0.446632 0.332575
C9    C     C_R   0.498736 0.628916 0.254244 -0.123916
C10   C     C_R   0.533624 0.399525 0.751915 -0.135637
C11   C     C_R   0.405634 0.610596 0.734899 -0.136997
C12   C     C_R   0.738059 0.496914 0.498537 0.594399
C13   C     C_R   0.451101 0.386430 0.254677 -0.133097
C14   C     C_R   0.478501 0.636118 0.181768 0.227965
C15   C     C_R   0.515263 0.399031 0.822796 0.238620
C16   C     C_R   0.391852 0.617754 0.806766 0.237418
C17   C     C_R   0.429149 0.390787 0.182638 0.231385
C18   C     C_R   0.446750 0.515033 0.144753 0.046178
C19   C     C_R   0.445442 0.509903 0.850966 0.056743
C20   C     C_R   0.484284 0.504970 0.291031 -0.083464
C21   C     C_R   0.478079 0.502645 0.707349 -0.072789
C22   C     C_3   0.165203 0.195141 0.592812 -0.067180
C23   C     C_R   0.433238 0.513704 0.926675 0.382496
C24   C     C_3   0.837056 0.828362 0.444019 -0.045462
C25   C     C_3   0.905993 0.167548 0.501941 -0.080133
C26   C     C_3   0.116063 0.828576 0.523629 -0.137992
C27   C     C_3   0.409971 0.861623 0.160147 -0.085450
C28   C     C_3   0.530463 0.167500 0.851859 -0.093691
C29   C     C_3   0.366064 0.853083 0.821395 -0.106987
C30   C     C_3   0.270113 0.252475 0.155671 -0.116492
C31   C     C_3   0.263909 0.179693 0.385478 -0.098301
C32   C     C_3   0.609599 0.846097 0.663384 -0.083505
C33   C     C_3   0.684389 0.159670 0.640333 -0.025915
C34   C     C_R   0.435837 0.516090 0.067473 0.363673
C35   C     C_3   0.292674 0.845631 0.369047 -0.056014
C36   C     C_R   0.497378 0.501138 0.367402 0.537877
C37   C     C_R   0.495464 0.499977 0.632293 0.536700
C38   C     C_R   0.076045 0.401623 0.544245 0.221139
C39   C     C_R   0.927344 0.609151 0.469342 0.226066
C40   C     C_R   0.948253 0.386605 0.532843 0.214905
Cu1   Cu    Cu3+1 0.500000 0.640660 0.500000 1.025918
Cu2   Cu    Cu3+1 0.500000 0.359340 0.500000 1.024756
H1    H     H_    0.527948 0.720433 0.281608 0.193487
H2    H     H_    0.910921 0.895930 0.428604 0.131526
H3    H     H_    0.994975 0.165658 0.476144 0.043254
H4    H     H_    0.828615 0.185386 0.461898 0.163300
H5    H     H_    0.898901 0.062873 0.525400 0.143107
H6    H     H_    0.142535 0.933943 0.508551 0.082410
H7    H     H_    0.189047 0.784378 0.561668 0.146813
H8    H     H_    0.028029 0.841234 0.549839 0.098239
H9    H     H_    0.314984 0.824141 0.150352 0.102972
H10   H     H_    0.418988 0.951247 0.124371 0.191367
H11   H     H_    0.422880 0.900496 0.213928 0.138649
H12   H     H_    0.595493 0.321426 0.733054 0.105559
H13   H     H_    0.561523 0.126465 0.801992 0.078694
H14   H     H_    0.427680 0.170600 0.851732 0.115868
H15   H     H_    0.566922 0.093188 0.893496 0.166319
H16   H     H_    0.345564 0.888134 0.766675 0.087962
H17   H     H_    0.467362 0.852442 0.835287 0.104776
H18   H     H_    0.320662 0.930775 0.854683 0.156737
H19   H     H_    0.243051 0.160023 0.125601 0.144060
H20   H     H_    0.212882 0.343975 0.133807 0.128940
H21   H     H_    0.249844 0.232838 0.210580 0.100653
H22   H     H_    0.216200 0.138393 0.429870 0.057492
H23   H     H_    0.358884 0.688747 0.700387 0.126406
H24   H     H_    0.223224 0.134334 0.337262 0.102209
H25   H     H_    0.243641 0.293808 0.381243 0.141485
H26   H     H_    0.626720 0.741215 0.687494 0.156222
H27   H     H_    0.509711 0.877228 0.666585 0.062633
H28   H     H_    0.666974 0.913069 0.696648 0.091694
H29   H     H_    0.762248 0.101267 0.669342 0.131254
H30   H     H_    0.595895 0.140968 0.664470 0.055484
H31   H     H_    0.706103 0.270770 0.644591 0.176956
H32   H     H_    0.277512 0.733445 0.376581 0.188435
H33   H     H_    0.267423 0.871544 0.313680 0.098125
H34   H     H_    0.440513 0.289322 0.281910 0.201239
H35   H     H_    0.229200 0.908266 0.400317 0.128886
H36   H     H_    0.086642 0.135953 0.609261 0.153627
H37   H     H_    0.188291 0.169091 0.539509 0.089221
H38   H     H_    0.246902 0.160919 0.627379 0.117354
H39   H     H_    0.826633 0.832153 0.500924 0.147456
H40   H     H_    0.748975 0.872022 0.418341 0.151339
N1    N     N_R   0.500000 0.852070 0.500000 -0.269437
N2    N     N_R   0.500000 0.147930 0.500000 -0.265025
N3    N     N_R   0.433039 0.637036 0.029996 -0.172224
N4    N     N_R   0.432738 0.393277 0.963884 -0.185260
N5    N     N_R   0.432097 0.635998 0.961018 -0.186083
N6    N     N_R   0.434353 0.394521 0.032645 -0.157999
O1    O     O_R   0.319640 0.618740 0.500000 -0.494441
O2    O     O_3   0.858804 0.692102 0.419875 -0.534867
O3    O     O_3   0.897948 0.266790 0.555270 -0.522629
O4    O     O_3   0.104498 0.746733 0.463244 -0.575352
O5    O     O_3   0.501572 0.757801 0.146753 -0.531101
O6    O     O_3   0.577752 0.299151 0.865992 -0.532540
O7    O     O_3   0.317131 0.722217 0.833610 -0.535138
O8    O     O_3   0.397189 0.269944 0.149365 -0.542671
O9    O     O_3   0.393195 0.152651 0.388897 -0.531174
O10   O     O_3   0.650152 0.842663 0.595086 -0.530559
O11   O     O_3   0.684908 0.124981 0.570170 -0.524696
O12   O     O_R   0.680360 0.381260 0.500000 -0.449214
O13   O     O_3   0.418756 0.869572 0.382830 -0.545883
O14   O     O_R   0.680360 0.618740 0.500000 -0.445402
O15   O     O_R   0.319640 0.381260 0.500000 -0.501134
O16   O     O_R   0.499980 0.618820 0.400140 -0.460456
O17   O     O_R   0.500020 0.381180 0.599860 -0.501000
O18   O     O_R   0.500020 0.618820 0.599860 -0.494550
O19   O     O_R   0.499980 0.381180 0.400140 -0.459179
O20   O     O_3   0.142332 0.339070 0.601408 -0.533254

loop_
_geom_bond_atom_site_label_1
_geom_bond_atom_site_label_2
_ccdc_geom_bond_type
C31   H24   S    
Cu1   O1    S    
C35   H32   S    
C8    N1    A    
Cu1   Cu2   S    
C14   C18   A    
C19   C23   S    
C24   H39   S    
Cu2   O15   S    
C15   O6    S    
C28   H14   S    
C28   H15   S    
C15   C19   A    
C35   H33   S    
C7    O11   S    
C6    O10   S    
C22   H37   S    
C10   C15   A    
C26   H8    S    
N4    N6    A    
C26   O4    S    
Cu1   N1    S    
Cu1   O14   S    
C28   O6    S    
C24   H40   S    
C30   O8    S    
C3    C12   S    
C33   H30   S    
C2    C39   A    
C29   H17   S    
C32   O10   S    
C23   N4    A    
C13   H34   S    
Cu2   O19   S    
C1    O15   A    
C14   O5    S    
C26   H6    S    
C32   H26   S    
C7    N2    A    
C3    C39   A    
C23   N5    A    
C30   H21   S    
C36   O19   A    
C28   H13   S    
C27   H9    S    
N3    N5    A    
C10   C21   A    
C25   O3    S    
C9    H1    S    
Cu1   O18   S    
Cu2   N2    S    
C22   H36   S    
C26   H7    S    
C29   O7    S    
C5    N2    A    
C33   H29   S    
C32   H28   S    
C37   O17   A    
C11   C21   A    
C33   O11   S    
C34   N3    A    
C2    C4    A    
C9    C14   A    
C12   O14   A    
Cu2   O12   S    
C11   C16   A    
C9    C20   A    
C29   H18   S    
C17   C18   A    
C17   O8    S    
C34   N6    A    
C2    O4    S    
C18   C34   S    
C32   H27   S    
C33   H31   S    
C5    O9    S    
C3    C40   A    
C30   H20   S    
C24   H2    S    
C27   O5    S    
C25   H3    S    
C27   H10   S    
C8    O13   S    
C25   H5    S    
C16   O7    S    
C1    O1    A    
C6    N1    A    
C39   O2    S    
C13   C20   A    
C31   H22   S    
C4    C38   A    
C35   O13   S    
C24   O2    S    
C5    C8    A    
C27   H11   S    
C6    C7    A    
Cu1   O16   S    
C13   C17   A    
C36   O16   A    
C1    C4    S    
C22   H38   S    
C37   O18   A    
C38   C40   A    
C16   C19   A    
C22   O20   S    
C35   H35   S    
C31   O9    S    
C40   O3    S    
C38   O20   S    
C10   H12   S    
Cu2   O17   S    
C12   O12   A    
C31   H25   S    
C20   C36   S    
C21   C37   S    
C29   H16   S    
C30   H19   S    
C25   H4    S    
C11   H23   S    
