data_mof_unit_59015.cif
_audit_creation_date              2012-12-11T17:43:42-0500
_audit_creation_method            fapswitch 2.2
_symmetry_space_group_name_H-M    P1
_symmetry_Int_Tables_number       1
_space_group_crystal_system       triclinic
_cell_length_a                    15.046482
_cell_length_b                    15.173264
_cell_length_c                    16.917592
_cell_angle_alpha                 108.763722
_cell_angle_beta                  106.084815
_cell_angle_gamma                 109.268717
_cell_volume                      3118.83828155

loop_
_atom_site_label
_atom_site_type_symbol
_atom_type_description
_atom_site_fract_x
_atom_site_fract_y
_atom_site_fract_z
_atom_type_partial_charge
C1    C     C_R   0.090578 0.277044 0.036214 -0.139146
C2    C     C_R   0.076375 0.057345 0.942630 -0.236326
C3    C     C_R   0.993976 0.886396 0.933052 0.077120
C4    C     C_R   0.998575 0.078092 0.961806 0.073036
C5    C     C_R   0.074914 0.960707 0.927419 0.029225
C6    C     C_R   0.915146 0.000465 0.962324 0.014580
C7    C     C_R   0.727887 0.955470 0.923915 -0.168628
C8    C     C_R   0.262118 0.012595 0.956089 -0.141173
C9    C     C_R   0.676369 0.041672 0.037047 -0.059063
C10   C     C_R   0.309938 0.894797 0.862664 -0.095618
C11   C     C_R   0.488089 0.678887 0.354353 -0.060350
C12   C     C_R   0.912464 0.707109 0.918288 -0.145171
C13   C     C_R   0.518870 0.440620 0.732167 -0.024283
C14   C     C_R   0.501468 0.671809 0.274385 -0.162197
C15   C     C_R   0.526107 0.457645 0.820474 -0.140612
C16   C     C_R   0.935899 0.450510 0.735133 -0.116648
C17   C     C_R   0.063608 0.480133 0.253083 -0.020104
C18   C     C_R   0.524439 0.593466 0.227258 0.116033
C19   C     C_R   0.559989 0.559336 0.888106 0.102389
C20   C     C_R   0.535156 0.523440 0.262536 -0.169911
C21   C     C_R   0.584963 0.643292 0.865830 -0.199647
C22   C     C_R   0.521923 0.531015 0.342691 -0.118746
C23   C     C_R   0.028082 0.464501 0.725890 0.028535
C24   C     C_R   0.578888 0.625980 0.777772 -0.142864
C25   C     C_R   0.498212 0.608495 0.388435 -0.085202
C26   C     C_R   0.545850 0.524695 0.710973 -0.066373
C27   C     C_R   0.619264 0.570935 0.128294 -0.242269
C28   C     C_R   0.485446 0.595785 0.995893 -0.231746
C29   C     C_R   0.630505 0.562928 0.047114 0.076419
C30   C     C_R   0.465281 0.589730 0.070028 0.060233
C31   C     C_R   0.563511 0.577456 0.980748 0.023921
C32   C     C_R   0.535917 0.584408 0.140902 0.027561
C33   C     C_R   0.649940 0.968533 0.948267 -0.036016
C34   C     C_R   0.972371 0.422812 0.256086 -0.000079
C35   C     C_R   0.338451 0.990576 0.935244 -0.086087
C36   C     C_R   0.963838 0.384044 0.324046 0.135052
C37   C     C_R   0.036446 0.419406 0.639094 0.133731
C38   C     C_R   0.139986 0.435896 0.552769 -0.222193
C39   C     C_R   0.859364 0.315160 0.396374 -0.217632
C40   C     C_R   0.718273 0.218507 0.826027 0.590944
C41   C     C_R   0.228163 0.797147 0.188864 0.623755
C42   C     C_R   0.134043 0.450650 0.636319 -0.173343
C43   C     C_R   0.866082 0.334593 0.323011 -0.194869
C44   C     C_R   0.945418 0.358460 0.556216 -0.277061
C45   C     C_R   0.659503 0.221256 0.748370 -0.292928
C46   C     C_R   0.054289 0.405951 0.396109 -0.276589
C47   C     C_R   0.950568 0.351217 0.473971 0.189536
C48   C     C_R   0.048694 0.394049 0.472940 0.187325
C49   C     C_R   0.549458 0.147437 0.682906 0.200659
C50   C     C_R   0.285884 0.899629 0.363236 0.180972
C51   C     C_R   0.380590 0.089034 0.449510 -0.270363
C52   C     C_R   0.406127 0.971655 0.610344 -0.261852
C53   C     C_R   0.317568 0.999188 0.365806 -0.119326
C54   C     C_R   0.496925 0.053363 0.685881 -0.136983
C55   C     C_R   0.300768 0.893015 0.446407 -0.238454
C56   C     C_R   0.246590 0.804408 0.276631 -0.308216
C57   C     C_R   0.501178 0.162668 0.608202 -0.276865
C58   C     C_R   0.370017 0.981681 0.529888 0.167479
C59   C     C_R   0.414515 0.079457 0.530488 0.167580
C60   C     C_R   0.780739 0.101601 0.101535 -0.122915
C61   C     C_R   0.204990 0.820963 0.810495 -0.110252
C62   C     C_R   0.859134 0.089593 0.077355 -0.115680
C63   C     C_R   0.128361 0.842764 0.830801 -0.149071
C64   C     C_R   0.301066 0.598661 0.006747 -0.148706
C65   C     C_R   0.736905 0.463130 0.047552 -0.104060
C66   C     C_R   0.833187 0.016784 0.988040 0.098585
C67   C     C_R   0.359961 0.567018 0.057407 0.052470
C68   C     C_R   0.156229 0.938566 0.904367 0.096786
C69   C     C_R   0.723945 0.312299 0.749308 0.595283
C70   C     C_R   0.223258 0.703083 0.265959 0.618717
C71   C     C_R   0.295895 0.500202 0.079886 -0.119872
C72   C     C_R   0.754527 0.565654 0.976906 -0.091371
C73   C     C_R   0.109824 0.535641 0.812498 -0.131624
C74   C     C_R   0.891138 0.398849 0.176909 -0.130485
C75   C     C_R   0.916718 0.194479 0.952820 -0.104797
C76   C     C_R   0.084487 0.793859 0.995800 -0.002547
C77   C     C_R   0.003467 0.179467 0.978838 0.023372
C78   C     C_R   0.709492 0.536612 0.030501 0.018157
C79   C     C_R   0.998358 0.797428 0.944257 -0.016835
C80   C     C_R   0.912939 0.904998 0.945447 -0.226660
F1    F     F_    0.679766 0.162882 0.867795 -0.734163
F2    F     F_    0.252600 0.877191 0.166884 -0.747622
F3    F     F_    0.693647 0.362945 0.703006 -0.742355
F4    F     F_    0.244058 0.673627 0.333484 -0.751907
H1    H     H_    0.170390 0.293436 0.071270 0.103760
H2    H     H_    0.504814 0.391877 0.836068 0.121439
H3    H     H_    0.551942 0.461901 0.227241 0.110659
H4    H     H_    0.609995 0.721987 0.916929 0.126426
H5    H     H_    0.529600 0.476452 0.369131 0.113876
H6    H     H_    0.599201 0.690945 0.761152 0.111390
H7    H     H_    0.674302 0.564825 0.180617 0.130491
H8    H     H_    0.431417 0.599891 0.941160 0.127480
H9    H     H_    0.130253 0.441938 0.397648 0.122057
H10   H     H_    0.869491 0.328264 0.556087 0.123587
H11   H     H_    0.794704 0.315714 0.268287 0.115330
H12   H     H_    0.834071 0.679018 0.868293 0.124851
H13   H     H_    0.205894 0.493374 0.698739 0.118505
H14   H     H_    0.215896 0.467079 0.552570 0.130643
H15   H     H_    0.783531 0.281694 0.396241 0.133869
H16   H     H_    0.857166 0.400615 0.682584 0.154913
H17   H     H_    0.141029 0.495884 0.294582 0.153958
H18   H     H_    0.569089 0.921660 0.898454 0.090735
H19   H     H_    0.419824 0.047633 0.975652 0.110201
H20   H     H_    0.536259 0.233874 0.603607 0.203521
H21   H     H_    0.268162 0.818829 0.447415 0.203998
H22   H     H_    0.528605 0.037873 0.742283 0.197948
H23   H     H_    0.706485 0.898243 0.855007 0.108145
H24   H     H_    0.300044 0.009551 0.304313 0.204511
H25   H     H_    0.411129 0.164549 0.449574 0.138921
H26   H     H_    0.371336 0.897327 0.611433 0.141281
H27   H     H_    0.615967 0.051421 0.056070 0.093378
H28   H     H_    0.369151 0.877818 0.846820 0.097704
H29   H     H_    0.800803 0.156678 0.170498 0.119644
H30   H     H_    0.182954 0.746777 0.754254 0.118248
H31   H     H_    0.939680 0.136330 0.128103 0.116143
H32   H     H_    0.047348 0.784835 0.789301 0.122153
H33   H     H_    0.328807 0.661044 0.988204 0.103048
H34   H     H_    0.285790 0.086617 0.013420 0.111827
H35   H     H_    0.713668 0.423020 0.086380 0.101720
H36   H     H_    0.318135 0.467095 0.125155 0.111282
H37   H     H_    0.754080 0.624689 0.954993 0.115014
H38   H     H_    0.192218 0.564346 0.831319 0.096651
H39   H     H_    0.810647 0.341853 0.149077 0.106407
H40   H     H_    0.837010 0.136105 0.907895 0.167592
H41   H     H_    0.164608 0.846227 0.016404 0.174325
H42   H     H_    0.851783 0.848360 0.951308 0.131065
H43   H     H_    0.137407 0.116235 0.938744 0.130800
H44   H     H_    0.487724 0.614004 0.450310 0.106634
H45   H     H_    0.540452 0.511228 0.642595 0.104068
H46   H     H_    0.469846 0.738978 0.389882 0.144876
H47   H     H_    0.491593 0.362157 0.679949 0.120991
H48   H     H_    0.493593 0.727200 0.249062 0.119219
N1    N     N_R   0.055660 0.348550 0.045620 -0.047021
N2    N     N_R   0.185200 0.638170 0.176300 -0.136556
N3    N     N_R   0.201680 0.494570 0.045620 -0.044355
N4    N     N_R   0.798320 0.505430 0.954380 -0.044695
N5    N     N_R   0.068420 0.560530 0.871650 -0.045909
N6    N     N_R   0.931580 0.439470 0.128350 -0.046472
N7    N     N_R   0.948070 0.295860 0.997670 -0.038672
N8    N     N_R   0.051930 0.704140 0.002330 -0.053277
N9    N     N_R   0.944340 0.651450 0.954380 -0.047693
N10   N     N_R   0.960830 0.507850 0.823700 -0.034796
N11   N     N_R   0.039170 0.492150 0.176300 -0.052825
N12   N     N_R   0.811290 0.303410 0.871650 -0.136071
N13   N     N_R   0.188710 0.696590 0.128350 -0.138855
N14   N     N_R   0.205200 0.552990 0.997670 -0.043082
N15   N     N_R   0.794800 0.447010 0.002330 -0.043483
N16   N     N_R   0.814800 0.361830 0.823700 -0.133934
Ni1   Ni    Ni4+2 0.119340 0.493420 0.109960 0.218319
Ni2   Ni    Ni4+2 0.880660 0.506580 0.890040 0.256041
Ni3   Ni    Ni4+2 0.872590 0.372590 0.000000 0.254835
Ni4   Ni    Ni4+2 0.127410 0.627410 0.000000 0.219617

loop_
_geom_bond_atom_site_label_1
_geom_bond_atom_site_label_2
_ccdc_geom_bond_type
C9    H27   S    
N5    N10   A    
C12   C79   A    
C72   H37   S    
C27   C29   A    
C1    C77   A    
C14   C18   A    
C16   N10   A    
C76   C79   A    
C38   H14   S    
C19   C31   S    
C8    H34   S    
C14   H48   S    
C15   C19   A    
C74   N6    A    
C80   H42   S    
C71   H36   S    
C55   H21   S    
C19   C21   A    
C25   H44   S    
N16   Ni2   S    
C38   C42   A    
N12   Ni3   S    
C35   H19   S    
N6    N11   A    
C57   H20   S    
C71   N3    A    
C11   C14   A    
C57   C59   A    
C11   C25   A    
C49   C54   A    
C20   H3    S    
C49   C57   A    
C12   N9    A    
C60   C62   A    
C37   C42   A    
C61   C63   A    
C17   H17   S    
C72   C78   A    
C6    C80   A    
C29   C78   S    
C22   C25   A    
N11   Ni1   S    
C43   H11   S    
N5    Ni4   S    
C27   H7    S    
C10   C35   A    
C52   H26   S    
C65   N15   A    
C70   F4    S    
N8    Ni4   S    
C18   C20   A    
C30   C67   S    
C44   C47   A    
N12   N16   A    
C2    H43   S    
C74   H39   S    
C21   H4    S    
C3    C79   S    
C51   H25   S    
C9    C33   A    
C76   H41   S    
C7    C33   A    
C60   H29   S    
C23   C73   A    
C5    C68   S    
C1    N1    A    
C3    C80   A    
C52   C54   A    
N9    Ni2   S    
C76   N8    A    
C1    H1    S    
C40   C45   A    
C46   C48   A    
C50   C53   A    
C62   C66   A    
C45   C69   A    
C33   H18   S    
N4    N15   A    
C64   C67   A    
N1    Ni1   S    
N8    N9    A    
C4    C6    A    
C42   H13   S    
C54   H22   S    
C16   H16   S    
C39   C43   A    
C58   C59   A    
N3    Ni1   S    
N2    Ni1   S    
C50   C56   S    
C64   H33   S    
C75   H40   S    
C51   C53   A    
C8    C35   A    
C2    C4    A    
C41   C56   A    
C69   F3    S    
C13   H47   S    
C39   H15   S    
C47   C48   A    
C13   C15   A    
C45   C49   S    
N3    N14   A    
C65   H35   S    
C41   N13   A    
C28   H8    S    
C10   H28   S    
C75   C77   A    
C26   H45   S    
C52   C58   A    
C34   C74   A    
C15   H2    S    
N14   Ni4   S    
C63   H32   S    
C20   C22   A    
C8    C68   A    
C16   C23   A    
C56   C70   A    
C40   N12   A    
C7    H23   S    
C13   C26   A    
C21   C24   A    
C10   C61   A    
C51   C59   A    
C17   C34   A    
C11   H46   S    
C39   C47   A    
N2    N13   A    
C63   C68   A    
C65   C78   A    
C64   N14   A    
C27   C32   A    
C38   C48   A    
C40   F1    S    
C28   C31   A    
C24   C26   A    
C3    C5    A    
C24   H6    S    
N4    Ni2   S    
N1    N7    A    
C44   H10   S    
N6    Ni3   S    
C50   C55   A    
C17   N11   A    
C9    C60   A    
N10   Ni2   S    
C37   C44   A    
C28   C30   A    
C41   F2    S    
C62   H31   S    
C29   C31   A    
C23   C37   S    
C7    C66   A    
C30   C32   A    
C36   C46   A    
C53   H24   S    
C46   H9    S    
C73   N5    A    
N15   Ni3   S    
N7    Ni3   S    
C22   H5    S    
C67   C71   A    
N13   Ni4   S    
C72   N4    A    
C2    C5    A    
C4    C77   S    
C6    C66   S    
C18   C32   S    
C34   C36   S    
C73   H38   S    
C55   C58   A    
C61   H30   S    
C70   N2    A    
C69   N16   A    
C12   H12   S    
C36   C43   A    
C75   N7    A    
