data_mof_unit_28748.cif
_audit_creation_date              2012-12-11T16:22:13-0500
_audit_creation_method            fapswitch 2.2
_symmetry_space_group_name_H-M    P1
_symmetry_Int_Tables_number       1
_space_group_crystal_system       triclinic
_cell_length_a                    13.499677
_cell_length_b                    14.008143
_cell_length_c                    30.03368
_cell_angle_alpha                 97.348716
_cell_angle_beta                  90.62707
_cell_angle_gamma                 118.637077
_cell_volume                      4926.76972225

loop_
_atom_site_label
_atom_site_type_symbol
_atom_type_description
_atom_site_fract_x
_atom_site_fract_y
_atom_site_fract_z
_atom_type_partial_charge
C1    C     C_R   0.721473 0.098737 0.569096 0.562304
C2    C     C_1   0.345025 0.678813 0.766682 0.137797
C3    C     C_2   0.557992 0.799481 0.216965 0.295564
C4    C     C_2   0.262849 0.441490 0.215655 0.593694
C5    C     C_2   0.175041 0.007530 0.061893 0.575840
C6    C     C_2   0.174344 0.963183 0.154419 0.306669
C7    C     C_2   0.150789 0.983348 0.399822 0.585761
C8    C     C_2   0.477838 0.359240 0.202200 0.277947
C9    C     C_2   0.885599 0.390023 0.104047 0.614131
C10   C     C_2   0.773283 0.327244 0.326164 0.241076
C11   C     C_2   0.890887 0.029694 0.401170 0.264075
C12   C     C_2   0.149892 0.648513 0.583307 0.613029
C13   C     C_1   0.348006 0.681771 0.726857 0.167500
C14   C     C_2   0.869516 0.014967 0.173938 0.619356
C15   C     C_2   0.557898 0.734028 0.588455 0.258425
C16   C     C_2   0.555206 0.719266 0.683560 0.245855
C17   C     C_2   0.099435 0.983293 0.756313 0.250301
C18   C     C_R   0.382914 0.785016 0.550347 0.578146
C19   C     C_R   0.308383 0.615666 0.901179 0.012971
C20   C     C_3   0.222764 0.167504 0.719946 -0.043267
C21   C     C_3   0.209898 0.079860 0.749349 -0.034596
C22   C     C_1   0.290095 0.201647 0.875200 0.060398
C23   C     C_1   0.361977 0.139395 0.612258 0.090071
C24   C     C_3   0.306982 0.259404 0.757114 0.058707
C25   C     C_3   0.295151 0.171402 0.786102 0.001607
C26   C     C_R   0.353707 0.686151 0.679296 0.029013
C27   C     C_3   0.406297 0.252057 0.735235 -0.003977
C28   C     C_3   0.322143 0.160562 0.698343 0.010367
C29   C     C_3   0.395132 0.164167 0.764360 -0.149879
C30   C     C_R   0.396936 0.119232 0.569110 0.566595
C31   C     C_3   0.309131 0.072722 0.727394 0.049738
C32   C     C_1   0.291493 0.183552 0.835055 0.067681
C33   C     C_1   0.340367 0.151709 0.650502 0.090795
C34   C     C_3   0.887416 0.271377 0.734546 -0.091290
C35   C     C_3   0.788954 0.234938 0.765899 -0.142671
C36   C     C_1   0.893420 0.204004 0.878848 0.018332
C37   C     C_R   0.255618 0.663235 0.653883 -0.139937
C38   C     C_1   0.771454 0.130395 0.614378 0.022803
C39   C     C_3   0.941577 0.216889 0.760634 -0.059303
C40   C     C_3   0.842930 0.180227 0.791135 0.013789
C41   C     C_3   0.873728 0.106840 0.728278 -0.081748
C42   C     C_R   0.721638 0.096699 0.443245 0.581960
C43   C     C_3   0.820352 0.161660 0.702802 0.019066
C44   C     C_3   0.775785 0.070288 0.759610 -0.082842
C45   C     C_3   0.723175 0.125346 0.733641 0.014661
C46   C     C_1   0.864150 0.191953 0.839722 -0.023556
C47   C     C_1   0.800111 0.148189 0.653927 -0.020989
C48   C     C_R   0.258284 0.678155 0.608594 0.013914
C49   C     C_3   0.237593 0.605167 0.259921 -0.134474
C50   C     C_3   0.266563 0.695051 0.229564 0.019017
C51   C     C_1   0.307912 0.604842 0.111302 0.097948
C52   C     C_1   0.364549 0.734067 0.378875 0.053771
C53   C     C_3   0.305731 0.561917 0.230792 0.056783
C54   C     C_R   0.381745 0.783831 0.424705 0.561217
C55   C     C_3   0.333707 0.651234 0.200551 0.013832
C56   C     C_3   0.415550 0.639289 0.261632 -0.146450
C57   C     C_3   0.347486 0.683712 0.289987 -0.019929
C58   C     C_3   0.442270 0.729068 0.231244 -0.036856
C59   C     C_R   0.266555 0.695355 0.840136 0.018206
C60   C     C_3   0.375369 0.773706 0.260143 0.034753
C61   C     C_1   0.324047 0.630831 0.151422 0.118223
C62   C     C_1   0.354987 0.705296 0.338979 0.030671
C63   C     C_R   0.355439 0.137094 0.401733 0.006999
C64   C     C_R   0.436741 0.222296 0.380636 -0.147553
C65   C     C_R   0.418244 0.227094 0.335783 -0.132459
C66   C     C_R   0.394921 0.115657 0.443507 0.563778
C67   C     C_R   0.318228 0.147581 0.311310 0.016667
C68   C     C_R   0.231691 0.068546 0.332394 -0.078961
C69   C     C_R   0.247775 0.063954 0.378175 0.045380
C70   C     C_R   0.253477 0.671169 0.884915 -0.020009
C71   C     C_R   0.247188 0.076585 0.143912 -0.004547
C72   C     C_R   0.247825 0.097198 0.098906 0.008160
C73   C     C_R   0.395587 0.286603 0.122835 -0.097752
C74   C     C_R   0.396978 0.267853 0.167200 -0.004056
C75   C     C_R   0.318227 0.164312 0.178060 -0.012849
C76   C     C_1   0.310480 0.150588 0.224546 0.082620
C77   C     C_1   0.309235 0.145843 0.264005 0.069942
C78   C     C_R   0.363286 0.720569 0.588802 0.002494
C79   C     C_R   0.316908 0.205368 0.089380 -0.028214
C80   C     C_R   0.785250 0.140450 0.404200 0.034221
C81   C     C_R   0.391565 0.606243 0.876323 -0.144387
C82   C     C_R   0.851874 0.099203 0.381740 -0.004911
C83   C     C_R   0.884177 0.125999 0.338927 -0.147230
C84   C     C_R   0.856578 0.196813 0.319530 0.042286
C85   C     C_R   0.801535 0.247774 0.343772 0.016001
C86   C     C_R   0.766369 0.218539 0.385702 -0.165286
C87   C     C_R   0.880478 0.291408 0.167628 -0.116937
C88   C     C_R   0.889967 0.297648 0.121541 0.040191
C89   C     C_R   0.887120 0.120984 0.111386 -0.131742
C90   C     C_R   0.456710 0.720881 0.611916 -0.039642
C91   C     C_R   0.876573 0.113964 0.157197 0.046572
C92   C     C_R   0.408045 0.634921 0.833362 -0.117905
C93   C     C_R   0.877873 0.202971 0.185570 -0.014256
C94   C     C_1   0.876506 0.205695 0.233226 0.087057
C95   C     C_1   0.871468 0.204109 0.272890 0.102643
C96   C     C_R   0.901786 0.214893 0.093547 -0.020374
C97   C     C_R   0.282856 0.233388 0.921658 0.562649
C98   C     C_R   0.268060 0.551373 0.939156 0.577144
C99   C     C_R   0.944514 0.222113 0.923102 0.553547
C100  C     C_R   0.293551 0.241994 0.048472 0.576314
C101  C     C_R   0.275269 0.558342 0.065085 0.562308
C102  C     C_R   0.454010 0.709380 0.658174 0.008090
C103  C     C_R   0.340396 0.671427 0.814011 0.001126
C104  C     C_R   0.953412 0.232311 0.049942 0.565044
C105  C     C_2   0.181144 0.701993 0.913637 0.289820
C106  C     C_2   0.130673 0.167241 0.691604 0.216536
C107  C     C_2   0.309248 0.967530 0.710890 0.642661
C108  C     C_2   0.516662 0.349903 0.729214 0.267816
C109  C     C_2   0.297319 0.359986 0.773163 0.588984
C110  C     C_2   0.600918 0.072266 0.716994 0.570967
C111  C     C_2   0.203583 0.744857 0.820431 0.579248
C112  C     C_2   0.180153 0.723386 0.213074 0.627680
C113  C     C_2   0.414462 0.893746 0.275207 0.594496
Cr1   Cr    Cr6+3 0.583430 0.162610 0.509470 1.066881
Cr2   Cr    Cr6+3 0.584210 0.916680 0.495400 1.116984
Cr3   Cr    Cr6+3 0.332380 0.920740 0.495100 1.131785
Cr4   Cr    Cr6+3 0.086810 0.177030 0.983130 1.105339
Cr5   Cr    Cr6+3 0.337180 0.419300 0.994610 1.068146
Cr6   Cr    Cr6+3 0.084840 0.422330 0.995830 1.105538
H1    H     H_    0.465963 0.161919 0.782485 0.144602
H2    H     H_    0.177043 0.636622 0.670003 0.186426
H3    H     H_    0.518884 0.280982 0.397659 0.142755
H4    H     H_    0.450606 0.368358 0.115089 0.205454
H5    H     H_    0.484789 0.289554 0.319547 0.122006
H6    H     H_    0.875611 0.356218 0.189861 0.187934
H7    H     H_    0.718182 0.253361 0.402911 0.124014
H8    H     H_    0.890821 0.054846 0.089800 0.208737
H9    H     H_    0.929295 0.089773 0.320118 0.135389
H10   H     H_    0.467930 0.620435 0.813860 0.177907
H11   H     H_    0.437795 0.568044 0.888435 0.157192
H12   H     H_    0.752528 0.285999 0.781639 0.119110
H13   H     H_    0.105486 0.698440 0.898920 0.129533
H14   H     H_    0.071653 0.092585 0.669684 0.092543
H15   H     H_    0.337572 0.878346 0.659852 0.349111
H16   H     H_    0.568763 0.406869 0.758539 0.101867
H17   H     H_    0.225979 0.427434 0.816009 0.332219
H18   H     H_    0.621656 0.203262 0.688923 0.317561
H19   H     H_    0.100328 0.736416 0.769221 0.368493
H20   H     H_    0.084763 0.720829 0.160423 0.371134
H21   H     H_    0.457226 0.017336 0.326786 0.335056
H22   H     H_    0.627417 0.851086 0.242344 0.141948
H23   H     H_    0.934259 0.353581 0.723778 0.157389
H24   H     H_    0.203738 0.315492 0.164191 0.335575
H25   H     H_    0.163506 0.931867 0.998699 0.362887
H26   H     H_    0.154641 0.892460 0.129259 0.148453
H27   H     H_    0.007797 0.836632 0.392633 0.350365
H28   H     H_    0.482958 0.346468 0.236805 0.111767
H29   H     H_    0.832201 0.441392 0.053745 0.345565
H30   H     H_    0.717285 0.351656 0.343804 0.098173
H31   H     H_    0.911940 0.975666 0.378996 0.122537
H32   H     H_    0.994067 0.634323 0.585166 0.349625
H33   H     H_    0.887372 0.879123 0.161023 0.379484
H34   H     H_    0.729096 0.988114 0.770432 0.182716
H35   H     H_    0.642474 0.788288 0.604563 0.094663
H36   H     H_    0.612482 0.696178 0.666343 0.115812
H37   H     H_    0.047261 0.923917 0.727540 0.098467
H38   H     H_    0.906643 0.052706 0.712694 0.120777
H39   H     H_    0.032132 0.254749 0.772785 0.187644
H40   H     H_    0.153308 0.553659 0.271912 0.162097
H41   H     H_    0.476422 0.615636 0.274952 0.153121
H42   H     H_    0.152488 0.010325 0.313026 0.187343
O1    O     O_R   0.493980 0.188910 0.559650 -0.485777
O2    O     O_R   0.170560 0.527890 0.952050 -0.476751
O3    O     O_R   0.987620 0.318470 0.945550 -0.497418
O4    O     O_R   0.678640 0.153520 0.554450 -0.485619
O5    O     O_R   0.976400 0.159270 0.031530 -0.512116
O6    O     O_R   0.194000 0.188570 0.028560 -0.469598
O7    O     O_R   0.365260 0.335720 0.039020 -0.508009
O8    O     O_R   0.330440 0.515580 0.044910 -0.493127
O9    O     O_R   0.177310 0.536200 0.050190 -0.472032
O10   O     O_R   0.993870 0.326170 0.036530 -0.459713
O11   O     O_3   0.169610 0.339550 0.991190 -0.281742
O12   O     O_R   0.480180 0.824400 0.444640 -0.494633
O13   O     O_R   0.698130 0.004030 0.549500 -0.495473
O14   O     O_R   0.481060 0.827210 0.535360 -0.470105
O15   O     O_R   0.309260 0.811560 0.537660 -0.471342
O16   O     O_R   0.341620 0.023400 0.546290 -0.482733
O17   O     O_R   0.493030 0.185890 0.461780 -0.526128
O18   O     O_R   0.677760 0.150720 0.463730 -0.516900
O19   O     O_R   0.697180 0.001010 0.451640 -0.457899
O20   O     O_2   0.207883 0.735563 0.953835 -0.459520
O21   O     O_2   0.123574 0.250887 0.691871 -0.472006
O22   O     O_2   0.296299 0.903087 0.736976 -0.467968
O23   O     O_R   0.308310 0.808540 0.439800 -0.479548
O24   O     O_R   0.326497 0.944919 0.665934 -0.665572
O25   O     O_2   0.548320 0.366274 0.691690 -0.475744
O26   O     O_2   0.331384 0.435143 0.750849 -0.492995
O27   O     O_R   0.242127 0.363498 0.811898 -0.730902
O28   O     O_2   0.536402 0.979224 0.723969 -0.444362
O29   O     O_R   0.560505 0.126859 0.692699 -0.664646
O30   O     O_2   0.208452 0.829100 0.840230 -0.466877
O31   O     O_R   0.139381 0.695315 0.779073 -0.691737
O32   O     O_2   0.136368 0.761186 0.240194 -0.434940
O33   O     O_R   0.148094 0.704055 0.167056 -0.665445
O34   O     O_R   0.340740 0.020600 0.455570 -0.459590
O35   O     O_2   0.432076 0.954595 0.247035 -0.494034
O36   O     O_R   0.430474 0.935412 0.321072 -0.700689
O37   O     O_2   0.574781 0.799442 0.177137 -0.450361
O38   O     O_2   0.249551 0.381188 0.243668 -0.526196
O39   O     O_R   0.235848 0.398276 0.169908 -0.707543
O40   O     O_2   0.074839 0.947223 0.066169 -0.491729
O41   O     O_R   0.221177 0.994526 0.021585 -0.656383
O42   O     O_2   0.133814 0.947155 0.190628 -0.460599
O43   O     O_2   0.138125 0.005208 0.439376 -0.472060
O44   O     O_R   0.070892 0.883977 0.374372 -0.678996
O45   O     O_3   0.500010 0.000010 0.499990 -0.286413
O46   O     O_2   0.540280 0.450607 0.192790 -0.473048
O47   O     O_2   0.926600 0.480627 0.127293 -0.478840
O48   O     O_R   0.830369 0.372416 0.061717 -0.670769
O49   O     O_2   0.813283 0.368272 0.292765 -0.490820
O50   O     O_2   0.906398 0.036446 0.441830 -0.439006
O51   O     O_2   0.133718 0.612104 0.543096 -0.478249
O52   O     O_R   0.064312 0.658190 0.605876 -0.690080
O53   O     O_2   0.840560 0.995064 0.211577 -0.516270
O54   O     O_R   0.895235 0.943114 0.146103 -0.648280
O55   O     O_2   0.547007 0.681431 0.551308 -0.462786
O56   O     O_R   0.969650 0.150960 0.933380 -0.488110
O57   O     O_2   0.577227 0.755097 0.723732 -0.498355
O58   O     O_2   0.067679 0.970992 0.794053 -0.454170
O59   O     O_R   0.187740 0.180870 0.937580 -0.473275
O60   O     O_R   0.358510 0.327410 0.940870 -0.511174
O61   O     O_R   0.324180 0.507870 0.953930 -0.505891

loop_
_geom_bond_atom_site_label_1
_geom_bond_atom_site_label_2
_ccdc_geom_bond_type
C87   C88   A    
C88   C96   A    
C10   C85   S    
C42   C80   S    
C93   C94   S    
C4    C53   S    
C86   H7    S    
C73   C74   A    
C87   C93   A    
C67   C77   S    
C24   C27   S    
C83   H9    S    
C7    O44   S    
C105  O20   D    
C98   O2    A    
C57   C62   S    
C39   C41   S    
C85   C86   A    
C109  O26   D    
C40   C46   S    
H24   O39   S    
C66   O17   A    
C22   C32   T    
C100  O6    A    
C44   H34   S    
Cr2   O12   S    
C54   O12   A    
C108  O25   D    
C72   C79   A    
C9    C88   S    
C5    O40   D    
C64   H3    S    
Cr1   O1    S    
Cr5   O61   S    
C58   C60   S    
C19   C81   A    
C16   O57   D    
Cr3   O23   S    
C3    O37   D    
C49   C57   S    
C56   C57   S    
C14   O53   D    
Cr4   O59   S    
C34   C35   S    
C65   H5    S    
C48   C78   A    
C97   O60   A    
C2    C13   T    
C20   C24   S    
C90   C102  A    
C15   H35   S    
C80   C86   A    
C92   C103  A    
C11   O50   D    
C81   C92   A    
C84   C85   A    
C10   O49   D    
C4    O38   D    
C106  O21   D    
C99   O56   A    
C9    O48   S    
C68   C69   A    
Cr1   O17   S    
C51   C61   T    
Cr2   O14   S    
Cr4   O56   S    
Cr5   O11   S    
C89   C91   A    
C98   O61   A    
C40   C44   S    
Cr2   O19   S    
C17   O58   D    
H20   O33   S    
C12   C48   S    
Cr6   O11   S    
C18   O14   A    
C25   C32   S    
C63   C66   S    
C111  O31   S    
C109  O27   S    
C22   C97   S    
Cr3   O16   S    
H17   O27   S    
Cr5   O60   S    
C27   C108  S    
C41   C43   S    
H15   O24   S    
C60   C113  S    
C12   O52   S    
H27   O44   S    
C8    C74   S    
C29   H1    S    
C19   C98   S    
C52   C54   S    
C66   O34   A    
C105  H13   S    
C20   C106  S    
C53   C55   S    
C11   C82   S    
C25   C29   S    
C6    C71   S    
C112  O32   D    
H33   O54   S    
C1    O13   A    
C74   C75   A    
Cr3   O15   S    
C42   O18   A    
C34   C39   S    
C23   C30   S    
C63   C69   A    
C111  O30   D    
C24   C25   S    
C12   O51   D    
C108  H16   S    
C80   C82   A    
C42   O19   A    
C39   C40   S    
C6    H26   S    
C45   C110  S    
C57   C60   S    
C20   C28   S    
Cr5   O8    S    
C65   C67   A    
C68   H42   S    
C110  O29   S    
C78   C90   A    
C67   C68   A    
C107  O22   D    
C84   C95   S    
C8    O46   D    
C75   C76   S    
C7    O43   D    
C91   C93   A    
C21   C31   S    
C79   C100  S    
C11   H31   S    
C59   C111  S    
C83   C84   A    
C1    O4    A    
Cr4   O5    S    
C18   C78   S    
C16   H36   S    
C50   C112  S    
C73   C79   A    
C97   O59   A    
C101  O9    A    
H21   O36   S    
C76   C77   T    
C37   C48   A    
C101  O8    A    
C43   C45   S    
C112  O33   S    
C38   C47   T    
C1    C38   S    
C104  O10   A    
C41   H38   S    
C16   C102  S    
C28   C33   S    
Cr1   O18   S    
C18   O15   A    
C96   C104  S    
C39   H39   S    
C41   C44   S    
C37   H2    S    
C13   C26   S    
Cr2   O45   S    
C8    H28   S    
C51   C101  S    
C30   O1    A    
Cr6   O2    S    
C35   C45   S    
C35   H12   S    
C87   H6    S    
C44   C45   S    
Cr1   O4    S    
C89   H8    S    
C53   C56   S    
C21   C25   S    
C34   H23   S    
H25   O41   S    
C31   C107  S    
C56   H41   S    
C5    O41   S    
C28   C31   S    
H19   O31   S    
C24   C109  S    
C15   O55   D    
C9    O47   D    
Cr6   O3    S    
C7    C69   S    
C23   C33   T    
C26   C37   A    
C63   C64   A    
C3    H22   S    
Cr2   O13   S    
C107  O24   S    
C110  O28   D    
C50   C55   S    
C70   C105  S    
C100  O7    A    
C50   C60   S    
C64   C65   A    
C106  H14   S    
C89   C96   A    
C92   H10   S    
C59   C103  A    
C6    O42   D    
C10   H30   S    
C52   C62   T    
H29   O48   S    
C26   C102  A    
C15   C90   S    
C71   C75   A    
C36   C46   T    
Cr4   O11   S    
C81   H11   S    
C27   C29   S    
C2    C103  S    
Cr4   O6    S    
C49   C53   S    
C55   C61   S    
Cr5   O7    S    
C99   O3    A    
C113  O35   D    
C30   O16   A    
C56   C58   S    
C14   O54   S    
C35   C40   S    
C36   C99   S    
C54   O23   A    
C94   C95   T    
C17   C21   S    
C14   C91   S    
C59   C70   A    
Cr6   O9    S    
C104  O5    A    
H18   O29   S    
C3    C58   S    
Cr1   O45   S    
C4    O39   S    
C71   C72   A    
C20   C21   S    
C29   C31   S    
C49   C50   S    
H32   O52   S    
C55   C58   S    
Cr6   O10   S    
C27   C28   S    
Cr3   O34   S    
C113  O36   S    
C49   H40   S    
C19   C70   A    
C82   C83   A    
C34   C43   S    
C17   H37   S    
C43   C47   S    
Cr3   O45   S    
C5    C72   S    
C73   H4    S    
