data_mof_unit_40778.cif
_audit_creation_date              2012-12-10T16:46:25-0500
_audit_creation_method            fapswitch 2.2
_symmetry_space_group_name_H-M    P1
_symmetry_Int_Tables_number       1
_space_group_crystal_system       triclinic
_cell_length_a                    18.524346
_cell_length_b                    18.69932
_cell_length_c                    34.22283
_cell_angle_alpha                 89.896733
_cell_angle_beta                  89.851582
_cell_angle_gamma                 89.037205
_cell_volume                      11852.8058199

loop_
_atom_site_label
_atom_site_type_symbol
_atom_type_description
_atom_site_fract_x
_atom_site_fract_y
_atom_site_fract_z
_atom_type_partial_charge
C1    C     C_R   0.500594 0.999910 0.605597 0.576147
C2    C     C_R   0.121418 0.550880 0.229832 0.274846
C3    C     C_R   0.566765 0.001788 0.667979 0.193330
C4    C     C_R   0.495196 0.065637 0.167729 0.207437
C5    C     C_R   0.937877 0.479354 0.168036 0.210815
C6    C     C_R   0.502135 0.934940 0.167849 0.209738
C7    C     C_R   0.062826 0.519180 0.167765 0.211308
C8    C     C_R   0.999523 0.499639 0.648070 0.004333
C9    C     C_R   0.500857 0.999590 0.648030 0.013234
C10   C     C_R   0.499464 0.000295 0.147918 0.013634
C11   C     C_R   0.000186 0.499659 0.147947 0.010852
C12   C     C_R   0.038134 0.444823 0.709141 -0.028569
C13   C     C_R   0.476291 0.130168 0.229805 0.272666
C14   C     C_R   0.566949 0.006779 0.709110 -0.031177
C15   C     C_R   0.960057 0.553838 0.709145 -0.029039
C16   C     C_R   0.434748 0.991236 0.709167 -0.036929
C17   C     C_R   0.505855 0.934487 0.208968 -0.031771
C18   C     C_R   0.062078 0.523485 0.208873 -0.034940
C19   C     C_R   0.489810 0.066038 0.208819 -0.031954
C20   C     C_R   0.938996 0.474424 0.209121 -0.034826
C21   C     C_R   0.999184 0.499381 0.729604 -0.141379
C22   C     C_R   0.500732 0.999123 0.729657 -0.140821
C23   C     C_R   0.497946 0.000337 0.229417 -0.141411
C24   C     C_R   0.880139 0.446039 0.230295 0.274631
C25   C     C_R   0.000523 0.499009 0.229518 -0.141511
C26   C     C_3   0.084732 0.812707 0.482864 0.000940
C27   C     C_3   0.008572 0.816420 0.499505 -0.350688
C28   C     C_3   0.248476 0.126828 0.416641 -0.004918
C29   C     C_3   0.279163 0.105474 0.376976 -0.374192
C30   C     C_3   0.875393 0.161371 0.452817 -0.015912
C31   C     C_3   0.949213 0.148282 0.434389 -0.366459
C32   C     C_3   0.775890 0.895653 0.432856 0.004534
C33   C     C_3   0.751257 0.943337 0.399235 -0.353977
C34   C     C_3   0.865496 0.735320 0.413508 -0.006386
C35   C     C_R   0.512088 0.870263 0.271065 0.250822
C36   C     C_3   0.938052 0.748748 0.394178 -0.363439
C37   C     C_3   0.710903 0.260005 0.415000 -0.012044
C38   C     C_3   0.660912 0.252815 0.380137 -0.378254
C39   C     C_3   0.148716 0.283376 0.409321 -0.012076
C40   C     C_3   0.081582 0.272031 0.384784 -0.353867
C41   C     C_3   0.231689 0.851293 0.421890 -0.018605
C42   C     C_3   0.221267 0.921233 0.399861 -0.368424
C43   C     C_3   0.580269 0.309033 0.989131 0.001185
C44   C     C_3   0.505554 0.306753 0.007631 -0.351685
C45   C     C_3   0.746809 0.627607 0.917047 -0.012850
C46   C     C_R   0.121761 0.548857 0.270785 0.248298
C47   C     C_3   0.778733 0.602161 0.878466 -0.376750
C48   C     C_3   0.419804 0.691030 0.989265 0.001435
C49   C     C_3   0.494319 0.693334 0.007788 -0.351576
C50   C     C_3   0.253496 0.372687 0.916892 -0.012534
C51   C     C_3   0.221570 0.398353 0.878387 -0.376923
C52   C     C_3   0.348777 0.213678 0.909066 -0.011905
C53   C     C_3   0.415045 0.223337 0.883402 -0.355434
C54   C     C_3   0.282242 0.640185 0.927581 -0.015713
C55   C     C_3   0.292241 0.567944 0.908094 -0.369505
C56   C     C_3   0.652529 0.787128 0.909016 -0.012337
C57   C     C_R   0.478870 0.130199 0.270798 0.246875
C58   C     C_3   0.586756 0.777758 0.883148 -0.355155
C59   C     C_3   0.718633 0.360053 0.927548 -0.015626
C60   C     C_3   0.708896 0.432347 0.907974 -0.369497
C61   C     C_3   0.285705 0.583059 0.495572 0.033719
C62   C     C_3   0.298835 0.587992 0.540381 -0.232165
C63   C     C_3   0.304313 0.514361 0.559541 -0.475627
C64   C     C_3   0.320759 0.237498 0.563095 0.039398
C65   C     C_3   0.283368 0.286761 0.592780 -0.243286
C66   C     C_3   0.337860 0.319558 0.620568 -0.498424
C67   C     C_3   0.749571 0.355695 0.562963 0.051691
C68   C     C_R   0.879858 0.447828 0.271253 0.248606
C69   C     C_3   0.809382 0.321752 0.589034 -0.258605
C70   C     C_3   0.809423 0.355734 0.629560 -0.498966
C71   C     C_3   0.672957 0.760516 0.563463 0.043290
C72   C     C_3   0.706987 0.709979 0.593651 -0.247790
C73   C     C_3   0.650387 0.681348 0.621815 -0.499517
C74   C     C_3   0.707195 0.599394 0.480107 -0.018982
C75   C     C_3   0.684963 0.620131 0.438354 -0.282453
C76   C     C_3   0.651890 0.557198 0.416894 -0.484851
C77   C     C_3   0.701390 0.154768 0.576080 0.024998
C78   C     C_3   0.652988 0.214173 0.593925 -0.245395
C79   C     C_R   0.074334 0.390681 0.771313 0.247736
C80   C     C_3   0.588940 0.186355 0.617033 -0.457573
C81   C     C_3   0.299201 0.392817 0.475021 -0.031365
C82   C     C_3   0.346281 0.355952 0.443875 -0.266758
C83   C     C_3   0.386365 0.410569 0.419121 -0.489637
C84   C     C_3   0.414083 0.712443 0.493977 0.030873
C85   C     C_3   0.416216 0.711028 0.448869 -0.284722
C86   C     C_3   0.490265 0.685399 0.434567 -0.496026
C87   C     C_3   0.786525 0.086414 0.994265 0.036499
C88   C     C_3   0.804308 0.094565 0.038394 -0.236698
C89   C     C_3   0.811526 0.022657 0.059206 -0.481874
C90   C     C_R   0.630966 0.016654 0.771187 0.247501
C91   C     C_3   0.809299 0.712117 0.068871 0.038165
C92   C     C_3   0.767848 0.746857 0.102713 -0.254713
C93   C     C_3   0.815676 0.754984 0.138611 -0.497269
C94   C     C_3   0.213523 0.913727 0.994362 0.036394
C95   C     C_3   0.195266 0.905308 0.038478 -0.237114
C96   C     C_3   0.187386 0.977129 0.059205 -0.482991
C97   C     C_3   0.188779 0.284007 0.068221 0.038679
C98   C     C_3   0.229344 0.246743 0.101524 -0.254051
C99   C     C_3   0.180388 0.235476 0.136851 -0.498293
C100  C     C_3   0.200598 0.107898 0.980841 -0.025377
C101  C     C_R   0.924090 0.608094 0.771300 0.248379
C102  C     C_3   0.157979 0.140577 0.946694 -0.277120
C103  C     C_3   0.121269 0.082453 0.923032 -0.500760
C104  C     C_3   0.088913 0.782540 0.981127 0.024868
C105  C     C_3   0.101512 0.774585 0.936590 -0.284478
C106  C     C_3   0.037700 0.804255 0.913314 -0.496410
C107  C     C_3   0.799846 0.891816 0.981257 -0.024789
C108  C     C_3   0.842631 0.859394 0.947036 -0.277491
C109  C     C_3   0.879972 0.917645 0.923548 -0.500905
C110  C     C_3   0.911333 0.217555 0.981347 0.024832
C111  C     C_3   0.899347 0.225878 0.936797 -0.284476
C112  C     C_R   0.999885 0.499907 0.605678 0.545968
C113  C     C_R   0.370042 0.981127 0.771181 0.250279
C114  C     C_3   0.963608 0.196667 0.913592 -0.496762
C115  C     C_3   0.973057 0.661858 0.637024 0.024761
C116  C     C_3   0.932913 0.717513 0.612493 -0.349249
C117  C     C_3   0.344283 0.066938 0.644019 0.011425
C118  C     C_3   0.275143 0.067228 0.620160 -0.348899
C119  C     C_3   0.024227 0.337493 0.637070 0.019126
C120  C     C_3   0.064602 0.279635 0.614250 -0.350377
C121  C     C_3   0.656958 0.931836 0.642793 0.012310
C122  C     C_3   0.723996 0.931924 0.617049 -0.363839
C123  C     C_3   0.563660 0.153414 0.141276 0.006465
C124  C     C_R   0.506010 0.935284 0.291294 -0.008125
C125  C     C_3   0.562792 0.214772 0.112020 -0.342271
C126  C     C_3   0.834966 0.526215 0.141848 0.009800
C127  C     C_3   0.771328 0.510803 0.115376 -0.354184
C128  C     C_3   0.433021 0.848509 0.140802 0.006226
C129  C     C_3   0.433729 0.788426 0.110880 -0.341650
C130  C     C_3   0.165002 0.471466 0.140968 0.009628
C131  C     C_3   0.227934 0.486191 0.113676 -0.353576
C132  C     C_3   0.189862 0.351841 0.711773 0.037118
C133  C     C_3   0.231912 0.281574 0.708129 -0.376875
C134  C     C_3   0.707556 0.104855 0.709126 0.032907
C135  C     C_R   0.060797 0.525122 0.291217 -0.012993
C136  C     C_3   0.779145 0.118024 0.688753 -0.371963
C137  C     C_3   0.807633 0.645391 0.712077 0.036315
C138  C     C_3   0.764868 0.715156 0.708000 -0.375755
C139  C     C_3   0.299077 0.890565 0.707228 0.034464
C140  C     C_3   0.231087 0.875338 0.684098 -0.360192
C141  C     C_3   0.602213 0.790878 0.209233 0.032647
C142  C     C_3   0.615141 0.722275 0.186268 -0.368941
C143  C     C_3   0.172960 0.651976 0.206805 0.036108
C144  C     C_3   0.236895 0.680928 0.184116 -0.362289
C145  C     C_3   0.387716 0.204879 0.207268 0.034361
C146  C     C_R   0.489005 0.065575 0.291198 -0.009042
C147  C     C_3   0.372946 0.275375 0.186309 -0.369981
C148  C     C_3   0.830940 0.344124 0.207145 0.036186
C149  C     C_3   0.767736 0.314119 0.184513 -0.362683
C150  C     C_3   0.446138 0.774948 0.290449 0.001942
C151  C     C_3   0.438727 0.724380 0.324949 -0.391917
C152  C     C_3   0.230949 0.516290 0.295610 -0.002799
C153  C     C_3   0.295650 0.542082 0.318580 -0.380865
C154  C     C_3   0.528803 0.232397 0.293377 -0.001213
C155  C     C_3   0.512725 0.302267 0.314619 -0.378291
C156  C     C_3   0.769053 0.475430 0.296075 -0.001888
C157  C     C_R   0.940272 0.472899 0.291448 -0.011956
C158  C     C_3   0.706505 0.447031 0.320063 -0.381974
C159  C     C_3   0.068123 0.278465 0.796693 -0.008776
C160  C     C_3   0.105124 0.225894 0.824420 -0.393052
C161  C     C_3   0.729743 0.960759 0.796976 -0.006111
C162  C     C_3   0.794899 0.971259 0.823144 -0.382052
C163  C     C_3   0.930079 0.720585 0.796090 -0.008789
C164  C     C_3   0.893760 0.772689 0.824323 -0.393825
C165  C     C_3   0.269777 0.035764 0.796177 -0.005708
C166  C     C_3   0.203533 0.024544 0.821639 -0.380554
C167  C     C_R   0.037268 0.445240 0.791436 -0.010844
C168  C     C_R   0.565669 0.008595 0.791482 -0.011589
C169  C     C_R   0.961801 0.553955 0.791427 -0.010848
C170  C     C_R   0.434991 0.990166 0.791499 -0.011778
C171  C     C_R   0.497974 0.000451 0.270561 -0.050116
C172  C     C_R   0.000023 0.499923 0.105563 0.565387
C173  C     C_R   0.000506 0.499064 0.270651 -0.048654
C174  C     C_R   0.999398 0.499510 0.770721 -0.048357
C175  C     C_R   0.500465 0.999312 0.770801 -0.050004
C176  C     C_R   0.507210 0.936146 0.332141 -0.114762
C177  C     C_R   0.059140 0.526798 0.332062 -0.123644
C178  C     C_R   0.489653 0.064759 0.332091 -0.123075
C179  C     C_R   0.941542 0.472206 0.332297 -0.120101
C180  C     C_R   0.037183 0.446186 0.832225 -0.125043
C181  C     C_R   0.564439 0.009844 0.832330 -0.121552
C182  C     C_R   0.962716 0.553550 0.832211 -0.124897
C183  C     C_R   0.499884 0.000212 0.105630 0.583152
C184  C     C_R   0.435704 0.989768 0.832364 -0.121756
C185  C     C_R   0.499669 0.000520 0.352135 -0.005285
C186  C     C_R   0.000140 0.499939 0.352221 -0.003797
C187  C     C_R   0.000152 0.500008 0.852231 -0.005850
C188  C     C_R   0.499951 0.000085 0.852340 -0.000051
C189  C     C_R   0.499998 0.000302 0.394316 0.497579
C190  C     C_R   0.000049 0.500028 0.394422 0.483746
C191  C     C_R   0.000074 0.500020 0.894349 0.493185
C192  C     C_R   0.499866 0.000049 0.894464 0.486393
C193  C     C_R   0.360426 0.138184 0.500145 0.526869
C194  C     C_R   0.077657 0.391966 0.730385 0.280906
C195  C     C_R   0.861295 0.361360 0.500971 0.508623
C196  C     C_R   0.639971 0.862130 0.500500 0.504871
C197  C     C_R   0.139427 0.636765 0.499295 0.540193
C198  C     C_R   0.639922 0.136323 0.501066 0.540169
C199  C     C_R   0.140806 0.363641 0.498158 0.508855
C200  C     C_R   0.363950 0.860027 0.498776 0.532832
C201  C     C_R   0.859618 0.636699 0.498400 0.506152
C202  C     C_R   0.859997 0.637747 0.000341 0.509556
C203  C     C_R   0.360944 0.862925 0.999590 0.536983
C204  C     C_R   0.139982 0.362153 0.000291 0.511670
C205  C     C_R   0.631382 0.018916 0.730227 0.275875
C206  C     C_R   0.639029 0.137079 0.999511 0.537558
C207  C     C_R   0.137145 0.638899 0.999279 0.534067
C208  C     C_R   0.640544 0.863273 0.998486 0.510467
C209  C     C_R   0.862909 0.361071 0.999334 0.533471
C210  C     C_R   0.359426 0.136778 0.998498 0.511664
C211  C     C_2   0.192990 0.752358 0.492934 0.268981
C212  C     C_2   0.262908 0.205454 0.467782 0.274727
C213  C     C_2   0.803503 0.250325 0.480270 0.261168
C214  C     C_2   0.743366 0.799663 0.470421 0.279516
C215  C     C_2   0.802834 0.745470 0.470882 0.272506
C216  C     C_R   0.920263 0.606468 0.730405 0.280382
C217  C     C_2   0.735126 0.209506 0.475847 0.267086
C218  C     C_2   0.201993 0.258627 0.467925 0.278056
C219  C     C_2   0.250657 0.803098 0.481632 0.270083
C220  C     C_2   0.691831 0.253150 0.995644 0.259260
C221  C     C_2   0.762802 0.705424 0.967984 0.278327
C222  C     C_2   0.308163 0.746897 0.995707 0.259371
C223  C     C_2   0.237377 0.294632 0.967910 0.278146
C224  C     C_2   0.298289 0.241522 0.968143 0.270794
C225  C     C_2   0.252380 0.694342 0.984386 0.268802
C226  C     C_2   0.701926 0.758616 0.968183 0.270433
C227  C     C_R   0.370252 0.978517 0.730265 0.273504
C228  C     C_2   0.747807 0.305736 0.984435 0.269125
C229  C     C_2   0.202622 0.680577 0.492306 0.291536
C230  C     C_2   0.299154 0.189869 0.501427 0.276775
C231  C     C_2   0.802594 0.308677 0.503571 0.284820
C232  C     C_2   0.701594 0.810912 0.502702 0.270690
C233  C     C_2   0.796057 0.682444 0.490424 0.291814
C234  C     C_2   0.704458 0.179003 0.507517 0.307621
C235  C     C_2   0.205440 0.318992 0.489909 0.290378
C236  C     C_2   0.318925 0.797042 0.495432 0.293988
C237  C     C_2   0.701530 0.181557 0.992749 0.288038
C238  C     C_R   0.516248 0.869989 0.230148 0.270813
C239  C     C_2   0.797258 0.687932 0.001918 0.283979
C240  C     C_2   0.298441 0.818541 0.992914 0.288509
C241  C     C_2   0.202531 0.311833 0.001819 0.282985
C242  C     C_2   0.295240 0.182475 0.991242 0.297106
C243  C     C_2   0.182180 0.701273 0.995000 0.293040
C244  C     C_2   0.704741 0.817461 0.991319 0.297894
C245  C     C_2   0.817872 0.298725 0.995163 0.293189
C246  C     C_R   0.962319 0.554462 0.668003 0.210739
C247  C     C_R   0.435037 0.996600 0.668072 0.211614
C248  C     C_R   0.036143 0.444436 0.668003 0.213780
H1    H     H_    0.513823 0.886971 0.348694 0.153121
H2    H     H_    0.101538 0.868428 0.477102 0.183831
H3    H     H_    0.365838 0.276953 0.637733 0.132281
H4    H     H_    0.309458 0.356507 0.641005 0.146111
H5    H     H_    0.378395 0.350519 0.603934 0.148608
H6    H     H_    0.697719 0.351696 0.578870 0.118452
H7    H     H_    0.754502 0.414454 0.560025 0.167828
H8    H     H_    0.801506 0.263562 0.592203 0.190771
H9    H     H_    0.863845 0.328401 0.576303 0.156784
H10   H     H_    0.821068 0.413686 0.627267 0.174129
H11   H     H_    0.851763 0.329680 0.647853 0.127115
H12   H     H_    0.756349 0.348824 0.644127 0.132326
H13   H     H_    0.008102 0.846550 0.527448 0.144331
H14   H     H_    0.631431 0.730577 0.546875 0.167384
H15   H     H_    0.647240 0.805927 0.579406 0.147672
H16   H     H_    0.734029 0.664202 0.578627 0.222420
H17   H     H_    0.748514 0.738926 0.610466 0.153092
H18   H     H_    0.625198 0.725967 0.638684 0.137309
H19   H     H_    0.676405 0.643225 0.642543 0.144265
H20   H     H_    0.607890 0.652756 0.605522 0.147291
H21   H     H_    0.659745 0.576280 0.495156 0.152249
H22   H     H_    0.749383 0.556349 0.479450 0.141231
H23   H     H_    0.645430 0.665246 0.439425 0.178740
H24   H     H_    0.972127 0.844247 0.478506 0.132341
H25   H     H_    0.732840 0.637904 0.421644 0.134161
H26   H     H_    0.691770 0.512355 0.414568 0.141204
H27   H     H_    0.635905 0.574153 0.386988 0.147460
H28   H     H_    0.603166 0.538431 0.432579 0.141275
H29   H     H_    0.741393 0.138673 0.598616 0.128789
H30   H     H_    0.672513 0.104418 0.570019 0.151615
H31   H     H_    0.685809 0.246198 0.614253 0.127570
H32   H     H_    0.631792 0.249935 0.570534 0.201845
H33   H     H_    0.542302 0.179946 0.597268 0.201433
H34   H     H_    0.572625 0.225920 0.639697 0.105158
H35   H     H_    0.988590 0.761656 0.504965 0.204839
H36   H     H_    0.602498 0.135095 0.631622 0.195418
H37   H     H_    0.333787 0.430040 0.491282 0.149731
H38   H     H_    0.256170 0.426011 0.460691 0.091793
H39   H     H_    0.386174 0.319465 0.458205 0.183303
H40   H     H_    0.311849 0.324194 0.424184 0.172206
H41   H     H_    0.347344 0.447266 0.404297 0.139713
H42   H     H_    0.419140 0.382367 0.396521 0.148377
H43   H     H_    0.423027 0.442317 0.437683 0.139852
H44   H     H_    0.427395 0.657498 0.504070 0.127115
H45   H     H_    0.458964 0.744444 0.505548 0.160571
H46   H     H_    0.191353 0.142935 0.412190 0.162858
H47   H     H_    0.374869 0.674426 0.437423 0.201678
H48   H     H_    0.405647 0.765224 0.436634 0.128486
H49   H     H_    0.531671 0.724899 0.442763 0.153943
H50   H     H_    0.490127 0.679609 0.402361 0.147846
H51   H     H_    0.504434 0.632554 0.447565 0.140326
H52   H     H_    0.836519 0.067577 0.979255 0.120249
H53   H     H_    0.747203 0.043767 0.988805 0.135883
H54   H     H_    0.856118 0.122465 0.042099 0.185584
H55   H     H_    0.762172 0.126648 0.053800 0.184054
H56   H     H_    0.764012 0.988934 0.053329 0.202464
H57   H     H_    0.249112 0.079278 0.436137 0.165053
H58   H     H_    0.814977 0.031511 0.091220 0.138924
H59   H     H_    0.861871 0.994654 0.049814 0.126212
H60   H     H_    0.855360 0.747069 0.061082 0.172252
H61   H     H_    0.829045 0.658520 0.078571 0.140512
H62   H     H_    0.747312 0.800508 0.093533 0.203477
H63   H     H_    0.720861 0.713419 0.110489 0.162315
H64   H     H_    0.834700 0.701701 0.149123 0.133911
H65   H     H_    0.784334 0.781503 0.162359 0.141198
H66   H     H_    0.863046 0.788315 0.131530 0.152221
H67   H     H_    0.163692 0.932664 0.979331 0.120343
H68   H     H_    0.335160 0.084354 0.380286 0.191469
H69   H     H_    0.252918 0.956404 0.988930 0.136303
H70   H     H_    0.143590 0.877072 0.042162 0.186243
H71   H     H_    0.237426 0.873439 0.053940 0.183139
H72   H     H_    0.234911 0.011018 0.053441 0.201453
H73   H     H_    0.183325 0.968159 0.091216 0.138404
H74   H     H_    0.137155 0.005024 0.049625 0.126518
H75   H     H_    0.143299 0.249350 0.059276 0.171641
H76   H     H_    0.168127 0.336524 0.079031 0.141735
H77   H     H_    0.250491 0.193992 0.091298 0.205345
H78   H     H_    0.275857 0.279782 0.110359 0.162507
H79   H     H_    0.245349 0.063722 0.363567 0.078429
H80   H     H_    0.160846 0.287804 0.148437 0.135172
H81   H     H_    0.211027 0.207052 0.160180 0.140311
H82   H     H_    0.133371 0.202641 0.128661 0.152088
H83   H     H_    0.162719 0.075805 0.998310 0.152046
H84   H     H_    0.242837 0.070440 0.969297 0.097408
H85   H     H_    0.116614 0.178894 0.958099 0.173972
H86   H     H_    0.194880 0.169511 0.926871 0.162211
H87   H     H_    0.161564 0.041657 0.913191 0.140797
H88   H     H_    0.095396 0.106544 0.896806 0.148491
H89   H     H_    0.079375 0.055967 0.940978 0.135710
H90   H     H_    0.279678 0.152673 0.357229 0.156878
H91   H     H_    0.072550 0.838868 0.987000 0.137921
H92   H     H_    0.041919 0.750512 0.990337 0.151176
H93   H     H_    0.150674 0.803263 0.927481 0.207910
H94   H     H_    0.108739 0.717246 0.928876 0.132463
H95   H     H_    0.987748 0.775473 0.921145 0.153352
H96   H     H_    0.048045 0.796968 0.881581 0.144686
H97   H     H_    0.030339 0.862260 0.919249 0.146208
H98   H     H_    0.837757 0.923394 0.998820 0.152473
H99   H     H_    0.757966 0.929694 0.969796 0.097150
H100  H     H_    0.883637 0.820637 0.958344 0.174303
H101  H     H_    0.834256 0.137171 0.433513 0.161456
H102  H     H_    0.805756 0.831015 0.927115 0.161371
H103  H     H_    0.840081 0.958944 0.913880 0.140730
H104  H     H_    0.905818 0.893824 0.897215 0.148653
H105  H     H_    0.921962 0.943464 0.941556 0.135783
H106  H     H_    0.927601 0.161172 0.987196 0.137460
H107  H     H_    0.958227 0.249460 0.990637 0.151165
H108  H     H_    0.850438 0.197089 0.927591 0.207700
H109  H     H_    0.892014 0.283257 0.929109 0.132726
H110  H     H_    0.013282 0.225726 0.921435 0.153539
H111  H     H_    0.953597 0.204022 0.881846 0.144274
H112  H     H_    0.104120 0.547599 0.348494 0.149798
H113  H     H_    0.874819 0.134482 0.481930 0.131996
H114  H     H_    0.971256 0.138679 0.919576 0.146296
H115  H     H_    0.019893 0.641507 0.619621 0.114414
H116  H     H_    0.993496 0.688341 0.663841 0.148505
H117  H     H_    0.886952 0.740619 0.629417 0.161351
H118  H     H_    0.969999 0.761112 0.604250 0.093823
H119  H     H_    0.912013 0.692511 0.585450 0.165734
H120  H     H_    0.383664 0.102335 0.629231 0.116399
H121  H     H_    0.331496 0.089250 0.673442 0.142221
H122  H     H_    0.234978 0.031702 0.633995 0.169289
H123  H     H_    0.251928 0.122259 0.618750 0.096720
H124  H     H_    0.991779 0.172557 0.452658 0.201000
H125  H     H_    0.286720 0.048288 0.590004 0.164197
H126  H     H_    0.979463 0.358306 0.618415 0.106821
H127  H     H_    0.000959 0.312836 0.663853 0.143575
H128  H     H_    0.108330 0.255914 0.632504 0.164156
H129  H     H_    0.026809 0.236868 0.605848 0.088007
H130  H     H_    0.088569 0.302769 0.587351 0.166742
H131  H     H_    0.616357 0.896766 0.628955 0.121058
H132  H     H_    0.672021 0.909040 0.671790 0.150670
H133  H     H_    0.765355 0.967121 0.629877 0.162705
H134  H     H_    0.746929 0.876871 0.614758 0.107128
H135  H     H_    0.960192 0.089892 0.431958 0.082497
H136  H     H_    0.709896 0.951588 0.587333 0.145746
H137  H     H_    0.600909 0.110925 0.129840 0.127614
H138  H     H_    0.585196 0.173259 0.169512 0.149341
H139  H     H_    0.527267 0.258989 0.122761 0.158990
H140  H     H_    0.618309 0.235133 0.108026 0.115349
H141  H     H_    0.542490 0.195949 0.083369 0.166753
H142  H     H_    0.867037 0.569265 0.127950 0.106064
H143  H     H_    0.813722 0.545797 0.170434 0.146038
H144  H     H_    0.737173 0.468995 0.128698 0.167979
H145  H     H_    0.738180 0.560272 0.111245 0.094514
H146  H     H_    0.950669 0.172352 0.404718 0.149722
H147  H     H_    0.791075 0.492040 0.086416 0.159737
H148  H     H_    0.396647 0.891964 0.129664 0.127584
H149  H     H_    0.410321 0.827854 0.168678 0.151633
H150  H     H_    0.468059 0.743113 0.121367 0.157383
H151  H     H_    0.377966 0.769279 0.106274 0.116107
H152  H     H_    0.455330 0.808080 0.082586 0.166379
H153  H     H_    0.132151 0.428604 0.127606 0.106218
H154  H     H_    0.186948 0.451785 0.169354 0.147149
H155  H     H_    0.262939 0.527679 0.126454 0.167249
H156  H     H_    0.260447 0.436393 0.109277 0.096438
H157  H     H_    0.832343 0.878724 0.426648 0.158410
H158  H     H_    0.207437 0.505083 0.084909 0.160152
H159  H     H_    0.208275 0.378637 0.739012 0.136890
H160  H     H_    0.203105 0.386612 0.686460 0.154030
H161  H     H_    0.216904 0.253809 0.680771 0.146731
H162  H     H_    0.290751 0.291902 0.707696 0.081273
H163  H     H_    0.219623 0.246459 0.733422 0.160780
H164  H     H_    0.709953 0.129158 0.738772 0.153243
H165  H     H_    0.663878 0.131989 0.692147 0.124508
H166  H     H_    0.779959 0.091720 0.659732 0.157957
H167  H     H_    0.786795 0.176373 0.684765 0.080985
H168  H     H_    0.775699 0.928244 0.460099 0.139044
H169  H     H_    0.824221 0.095792 0.706608 0.151352
H170  H     H_    0.789521 0.618944 0.739583 0.136202
H171  H     H_    0.794756 0.610042 0.687041 0.153100
H172  H     H_    0.779675 0.742557 0.680401 0.147085
H173  H     H_    0.706151 0.704229 0.707786 0.082042
H174  H     H_    0.776735 0.750873 0.732998 0.160643
H175  H     H_    0.294305 0.864416 0.736368 0.148020
H176  H     H_    0.346021 0.866636 0.691181 0.139378
H177  H     H_    0.235147 0.899007 0.654406 0.178761
H178  H     H_    0.224311 0.816676 0.681326 0.087856
H179  H     H_    0.695524 0.963472 0.404612 0.214485
H180  H     H_    0.183137 0.898615 0.699277 0.150068
H181  H     H_    0.625165 0.783314 0.239033 0.147601
H182  H     H_    0.631085 0.834850 0.194062 0.136427
H183  H     H_    0.595475 0.729145 0.155839 0.170947
H184  H     H_    0.673752 0.708935 0.185541 0.080394
H185  H     H_    0.586140 0.677479 0.200311 0.153602
H186  H     H_    0.171433 0.678261 0.235983 0.146347
H187  H     H_    0.122694 0.666210 0.190503 0.140370
H188  H     H_    0.239018 0.656834 0.154488 0.179138
H189  H     H_    0.231343 0.739914 0.181170 0.079046
H190  H     H_    0.787616 0.989727 0.396530 0.080813
H191  H     H_    0.287961 0.667965 0.199740 0.149663
H192  H     H_    0.361546 0.207681 0.236581 0.147445
H193  H     H_    0.363038 0.161171 0.189991 0.139272
H194  H     H_    0.395527 0.273188 0.156230 0.168230
H195  H     H_    0.313872 0.285799 0.184637 0.080039
H196  H     H_    0.398188 0.319864 0.202497 0.154098
H197  H     H_    0.833118 0.317312 0.236216 0.147801
H198  H     H_    0.881500 0.331379 0.190647 0.140376
H199  H     H_    0.765028 0.338761 0.154989 0.179318
H200  H     H_    0.774700 0.255319 0.181314 0.080433
H201  H     H_    0.752562 0.912720 0.371454 0.142982
H202  H     H_    0.716400 0.325576 0.200323 0.149212
H203  H     H_    0.440193 0.743921 0.262990 0.171188
H204  H     H_    0.401014 0.815211 0.292522 0.109292
H205  H     H_    0.442107 0.755191 0.352566 0.146823
H206  H     H_    0.385603 0.697876 0.323870 0.093786
H207  H     H_    0.482331 0.682899 0.324212 0.157819
H208  H     H_    0.250558 0.496175 0.266783 0.158542
H209  H     H_    0.206259 0.471464 0.312171 0.108994
H210  H     H_    0.277919 0.562475 0.347585 0.151384
H211  H     H_    0.334813 0.497180 0.322972 0.088121
H212  H     H_    0.822660 0.762229 0.395847 0.152414
H213  H     H_    0.322677 0.585538 0.302276 0.157272
H214  H     H_    0.550213 0.245549 0.263826 0.162731
H215  H     H_    0.570835 0.202009 0.310044 0.113167
H216  H     H_    0.493305 0.291144 0.344721 0.150639
H217  H     H_    0.562370 0.334507 0.316257 0.083647
H218  H     H_    0.470594 0.333496 0.298667 0.160234
H219  H     H_    0.747764 0.493264 0.267183 0.161601
H220  H     H_    0.791574 0.522218 0.311767 0.110400
H221  H     H_    0.725860 0.429835 0.349361 0.145081
H222  H     H_    0.664486 0.489553 0.323737 0.090241
H223  H     H_    0.482736 0.113826 0.348625 0.150304
H224  H     H_    0.856167 0.676667 0.413033 0.132109
H225  H     H_    0.682369 0.400702 0.304963 0.156059
H226  H     H_    0.059608 0.251299 0.768197 0.165125
H227  H     H_    0.014691 0.293688 0.809596 0.113671
H228  H     H_    0.112382 0.251016 0.853512 0.166008
H229  H     H_    0.071584 0.177628 0.827925 0.088103
H230  H     H_    0.158804 0.209673 0.812561 0.149564
H231  H     H_    0.748738 0.938362 0.768550 0.159479
H232  H     H_    0.693631 0.921635 0.811532 0.106075
H233  H     H_    0.777309 0.994634 0.851487 0.150310
H234  H     H_    0.822343 0.919090 0.828737 0.086208
H235  H     H_    0.981823 0.721234 0.410821 0.190290
H236  H     H_    0.833585 0.007815 0.808852 0.159573
H237  H     H_    0.937285 0.747981 0.767475 0.166013
H238  H     H_    0.984113 0.705723 0.808250 0.113886
H239  H     H_    0.888035 0.747401 0.853545 0.165690
H240  H     H_    0.926934 0.821290 0.827263 0.088768
H241  H     H_    0.839423 0.788362 0.813276 0.149916
H242  H     H_    0.251780 0.057636 0.767450 0.158755
H243  H     H_    0.304588 0.075562 0.810939 0.105037
H244  H     H_    0.220075 0.001904 0.850333 0.150375
H245  H     H_    0.174904 0.076351 0.826538 0.085760
H246  H     H_    0.937912 0.727825 0.363831 0.096521
H247  H     H_    0.166237 0.987092 0.807135 0.160583
H248  H     H_    0.948597 0.807029 0.393380 0.124326
H249  H     H_    0.767053 0.263836 0.403749 0.175592
H250  H     H_    0.695518 0.310053 0.430859 0.125488
H251  H     H_    0.604012 0.249728 0.390227 0.157784
H252  H     H_    0.666433 0.299910 0.360647 0.090913
H253  H     H_    0.675115 0.203664 0.363434 0.158026
H254  H     H_    0.196501 0.264313 0.392311 0.137524
H255  H     H_    0.896555 0.451477 0.348920 0.151483
H256  H     H_    0.154265 0.341901 0.414168 0.126175
H257  H     H_    0.032819 0.290561 0.401053 0.207825
H258  H     H_    0.085511 0.302857 0.357112 0.094954
H259  H     H_    0.076412 0.214391 0.377760 0.125023
H260  H     H_    0.187722 0.814509 0.413546 0.110300
H261  H     H_    0.284699 0.827470 0.412683 0.120534
H262  H     H_    0.266562 0.957237 0.406631 0.176908
H263  H     H_    0.220649 0.910947 0.367919 0.088043
H264  H     H_    0.169453 0.947486 0.408544 0.138522
H265  H     H_    0.578120 0.279725 0.960831 0.135225
H266  H     H_    0.064509 0.404393 0.848719 0.148881
H267  H     H_    0.592938 0.365942 0.983465 0.180095
H268  H     H_    0.504733 0.337759 0.035285 0.143686
H269  H     H_    0.464948 0.330281 0.987316 0.138419
H270  H     H_    0.491040 0.250595 0.014089 0.187074
H271  H     H_    0.690940 0.646026 0.910986 0.167078
H272  H     H_    0.743809 0.581611 0.937560 0.159648
H273  H     H_    0.830853 0.574175 0.883875 0.185557
H274  H     H_    0.741465 0.564639 0.864039 0.083576
H275  H     H_    0.787362 0.648377 0.858669 0.184743
H276  H     H_    0.422216 0.720441 0.960941 0.135657
H277  H     H_    0.613501 0.017635 0.848893 0.144999
H278  H     H_    0.407265 0.634126 0.983642 0.180149
H279  H     H_    0.494909 0.662143 0.035440 0.143584
H280  H     H_    0.535187 0.670023 0.987484 0.138275
H281  H     H_    0.508649 0.749478 0.014259 0.186894
H282  H     H_    0.309414 0.354401 0.910718 0.166613
H283  H     H_    0.256364 0.418536 0.937410 0.159483
H284  H     H_    0.169325 0.426100 0.883908 0.185746
H285  H     H_    0.258735 0.436134 0.863908 0.083439
H286  H     H_    0.213131 0.352268 0.858581 0.183611
H287  H     H_    0.300525 0.232588 0.892480 0.137341
H288  H     H_    0.935606 0.595492 0.848684 0.148694
H289  H     H_    0.342855 0.155445 0.914868 0.126723
H290  H     H_    0.464311 0.205373 0.899304 0.194986
H291  H     H_    0.409856 0.191166 0.856331 0.091858
H292  H     H_    0.420379 0.280566 0.875345 0.127278
H293  H     H_    0.329537 0.673633 0.920404 0.107903
H294  H     H_    0.232677 0.665840 0.914966 0.118923
H295  H     H_    0.242793 0.536390 0.912683 0.174216
H296  H     H_    0.300919 0.575160 0.876223 0.087471
H297  H     H_    0.339487 0.538858 0.920724 0.142517
H298  H     H_    0.701072 0.768284 0.892556 0.137693
H299  H     H_    0.386474 0.982066 0.848944 0.144563
H300  H     H_    0.658386 0.845305 0.914882 0.126177
H301  H     H_    0.537189 0.795579 0.898924 0.195504
H302  H     H_    0.592485 0.810200 0.856129 0.091745
H303  H     H_    0.581556 0.720614 0.875009 0.127609
H304  H     H_    0.671404 0.326649 0.920380 0.107420
H305  H     H_    0.768330 0.334407 0.914991 0.118818
H306  H     H_    0.758276 0.463894 0.912596 0.174798
H307  H     H_    0.700657 0.425223 0.876100 0.086923
H308  H     H_    0.661474 0.461390 0.920516 0.142294
H309  H     H_    0.337070 0.564335 0.481937 0.116372
H310  H     H_    0.083123 0.782422 0.454849 0.126944
H311  H     H_    0.246329 0.541381 0.487941 0.135566
H312  H     H_    0.349662 0.615734 0.546654 0.173150
H313  H     H_    0.255521 0.619159 0.555315 0.192951
H314  H     H_    0.256356 0.482130 0.552529 0.212106
H315  H     H_    0.307188 0.520516 0.591766 0.138518
H316  H     H_    0.354132 0.485880 0.549721 0.127659
H317  H     H_    0.362891 0.268755 0.547531 0.170582
H318  H     H_    0.346655 0.192426 0.579270 0.141795
H319  H     H_    0.253795 0.330542 0.577371 0.223897
H320  H     H_    0.243508 0.255861 0.609883 0.149935
O1    O     O_3   0.500000 0.000000 0.500000 -0.439438
O2    O     O_R   0.560130 0.000000 0.087440 -0.540231
O3    O     O_3   0.820821 0.418731 0.211310 -0.524609
O4    O     O_3   0.515050 0.806375 0.291517 -0.564692
O5    O     O_3   0.181163 0.573641 0.290776 -0.564424
O6    O     O_3   0.464650 0.193026 0.290934 -0.566870
O7    O     O_3   0.821676 0.420562 0.291517 -0.564673
O8    O     O_3   0.112483 0.338463 0.791718 -0.575649
O9    O     O_3   0.694471 0.027477 0.791363 -0.564851
O10   O     O_3   0.885970 0.660306 0.791722 -0.575918
O11   O     O_3   0.306410 0.969552 0.791300 -0.561076
O12   O     O_R   0.000000 0.560130 0.087440 -0.535593
O13   O     O_R   0.439870 0.000000 0.087440 -0.541484
O14   O     O_R   0.439940 0.000000 0.412560 -0.557129
O15   O     O_R   1.000000 0.439940 0.412560 -0.553675
O16   O     O_R   0.560060 0.000000 0.412560 -0.543717
O17   O     O_R   0.000000 0.560060 0.412560 -0.556848
O18   O     O_R   0.939940 0.500000 0.912560 -0.557571
O19   O     O_R   0.500000 0.939940 0.912560 -0.555146
O20   O     O_R   0.060060 0.500000 0.912560 -0.558150
O21   O     O_3   1.000000 0.500000 0.500000 -0.444882
O22   O     O_R   0.500000 0.060060 0.912560 -0.556004
O23   O     O_R   0.415450 0.144560 0.522930 -0.579439
O24   O     O_R   0.855440 0.415450 0.522930 -0.582054
O25   O     O_R   0.584550 0.855440 0.522930 -0.590493
O26   O     O_R   0.144560 0.584550 0.522930 -0.576896
O27   O     O_R   0.584550 0.144560 0.522930 -0.570891
O28   O     O_R   0.144560 0.415450 0.522930 -0.554487
O29   O     O_R   0.415450 0.855440 0.522930 -0.546860
O30   O     O_R   0.855440 0.584550 0.522930 -0.542886
O31   O     O_R   0.915450 0.644560 0.022930 -0.587768
O32   O     O_3   1.000000 0.500000 0.000000 -0.444395
O33   O     O_R   0.355440 0.915450 0.022930 -0.579673
O34   O     O_R   0.084550 0.355440 0.022930 -0.587799
O35   O     O_R   0.644560 0.084550 0.022930 -0.578768
O36   O     O_R   0.084550 0.644560 0.022930 -0.539021
O37   O     O_R   0.644560 0.915450 0.022930 -0.544126
O38   O     O_R   0.915450 0.355440 0.022930 -0.540061
O39   O     O_R   0.355440 0.084550 0.022930 -0.544352
O40   O     O_R   0.644640 0.915430 0.477080 -0.534086
O41   O     O_R   0.084570 0.644640 0.477080 -0.556121
O42   O     O_R   0.355360 0.084570 0.477080 -0.530768
O43   O     O_3   0.500000 0.000000 0.000000 -0.439859
O44   O     O_R   0.915430 0.355360 0.477080 -0.495898
O45   O     O_R   0.355360 0.915430 0.477080 -0.524899
O46   O     O_R   0.915430 0.644640 0.477080 -0.540152
O47   O     O_R   0.644640 0.084570 0.477080 -0.532219
O48   O     O_R   0.084570 0.355360 0.477080 -0.524976
O49   O     O_R   0.144640 0.415430 0.977080 -0.530803
O50   O     O_R   0.584570 0.144640 0.977080 -0.556800
O51   O     O_R   0.855360 0.584570 0.977080 -0.530636
O52   O     O_R   0.415430 0.855360 0.977080 -0.556088
O53   O     O_R   0.855360 0.415430 0.977080 -0.532011
O54   O     O_R   0.500000 0.939870 0.587440 -0.536587
O55   O     O_R   0.415430 0.144640 0.977080 -0.538309
O56   O     O_R   0.144640 0.584570 0.977080 -0.532799
O57   O     O_R   0.584570 0.855360 0.977080 -0.538296
O58   O     O_3   0.130907 0.780130 0.510713 -0.583133
O59   O     O_3   0.290512 0.182686 0.431995 -0.600242
O60   O     O_3   0.862999 0.235819 0.456387 -0.574406
O61   O     O_3   0.729632 0.836099 0.435702 -0.584267
O62   O     O_3   0.866749 0.762414 0.452126 -0.599694
O63   O     O_3   0.703984 0.199187 0.439177 -0.586200
O64   O     O_3   0.142069 0.245312 0.445020 -0.583492
O65   O     O_R   0.060130 0.500000 0.587440 -0.521492
O66   O     O_3   0.229664 0.865127 0.462436 -0.577504
O67   O     O_3   0.631020 0.278917 0.015465 -0.592823
O68   O     O_3   0.790283 0.682537 0.932223 -0.604549
O69   O     O_3   0.368744 0.720986 0.015561 -0.593142
O70   O     O_3   0.210109 0.317560 0.932143 -0.604824
O71   O     O_3   0.357309 0.253124 0.944077 -0.592224
O72   O     O_3   0.276347 0.630335 0.968426 -0.572810
O73   O     O_3   0.643274 0.747411 0.943978 -0.592005
O74   O     O_3   0.724070 0.369799 0.968385 -0.572554
O75   O     O_3   0.266290 0.649576 0.477710 -0.607139
O76   O     O_R   0.500000 0.060130 0.587440 -0.575037
O77   O     O_3   0.268577 0.210769 0.537074 -0.608866
O78   O     O_3   0.739945 0.322147 0.525957 -0.606923
O79   O     O_3   0.727841 0.786234 0.538671 -0.609110
O80   O     O_3   0.728138 0.659882 0.501981 -0.608149
O81   O     O_3   0.740741 0.181081 0.543514 -0.623971
O82   O     O_3   0.271993 0.342905 0.502372 -0.609230
O83   O     O_3   0.345743 0.732919 0.510654 -0.575254
O84   O     O_3   0.763627 0.151489 0.975979 -0.602576
O85   O     O_3   0.761960 0.704804 0.037004 -0.605678
O86   O     O_3   0.236593 0.848768 0.976084 -0.602159
O87   O     O_R   0.939870 0.500000 0.587440 -0.530355
O88   O     O_3   0.237173 0.294653 0.036966 -0.606551
O89   O     O_3   0.229034 0.160914 0.005784 -0.592737
O90   O     O_3   0.151190 0.766853 0.004522 -0.580346
O91   O     O_3   0.770763 0.838646 0.006062 -0.589689
O92   O     O_3   0.848745 0.233071 0.004685 -0.580632
O93   O     O_3   0.925254 0.606407 0.646752 -0.520490
O94   O     O_3   0.371506 0.996050 0.646840 -0.524081
O95   O     O_3   0.072761 0.392170 0.646777 -0.518555
O96   O     O_3   0.630356 0.002720 0.646640 -0.551678
O97   O     O_3   0.492580 0.128460 0.146215 -0.529294
O98   O     O_R   1.000000 0.439870 0.087440 -0.535720
O99   O     O_3   0.876712 0.462914 0.146900 -0.519407
O100  O     O_3   0.504402 0.872091 0.146448 -0.528758
O101  O     O_3   0.124029 0.535185 0.146350 -0.519585
O102  O     O_3   0.115181 0.337405 0.711571 -0.529234
O103  O     O_3   0.696150 0.030455 0.711209 -0.523073
O104  O     O_3   0.882132 0.660631 0.711603 -0.529600
O105  O     O_3   0.306086 0.965268 0.711231 -0.525003
O106  O     O_3   0.527258 0.805459 0.211171 -0.530654
O107  O     O_3   0.181267 0.577096 0.210641 -0.523375
O108  O     O_3   0.463080 0.194191 0.210587 -0.527758
Zn1   Zn    Zn3+2 0.414160 0.000000 0.467250 0.935522
Zn2   Zn    Zn3+2 0.914220 0.500000 0.532750 0.910329
Zn3   Zn    Zn3+2 0.500000 0.914220 0.532750 0.916105
Zn4   Zn    Zn3+2 0.085780 0.500000 0.532750 0.911678
Zn5   Zn    Zn3+2 1.000000 0.585780 0.032750 0.923659
Zn6   Zn    Zn3+2 0.414220 0.000000 0.032750 0.914096
Zn7   Zn    Zn3+2 1.000000 0.414220 0.032750 0.923492
Zn8   Zn    Zn3+2 0.585780 0.000000 0.032750 0.914738
Zn9   Zn    Zn3+2 1.000000 0.414160 0.467250 0.927969
Zn10  Zn    Zn3+2 0.585840 0.000000 0.467250 0.930143
Zn11  Zn    Zn3+2 1.000000 0.585840 0.467250 0.897307
Zn12  Zn    Zn3+2 0.914160 0.500000 0.967250 0.921700
Zn13  Zn    Zn3+2 0.500000 0.914160 0.967250 0.901674
Zn14  Zn    Zn3+2 0.085840 0.500000 0.967250 0.921839
Zn15  Zn    Zn3+2 0.500000 0.085840 0.967250 0.901657
Zn16  Zn    Zn3+2 0.500000 0.085780 0.532750 0.897288

loop_
_geom_bond_atom_site_label_1
_geom_bond_atom_site_label_2
_ccdc_geom_bond_type
C34   O62   S    
C168  C175  A    
O57   Zn13  S    
C126  C127  S    
C58   H303  S    
C39   H254  S    
C106  H96   S    
C223  C224  S    
O30   Zn2   S    
C29   H68   S    
C95   H71   S    
C87   O84   S    
C1    O76   A    
C172  O98   A    
C97   H75   S    
C204  C241  S    
C59   O74   S    
O26   Zn4   S    
C99   H81   S    
C88   H55   S    
C79   C194  A    
O40   Zn10  S    
O27   Zn16  S    
C225  O72   S    
C153  H213  S    
C135  C173  A    
C35   C124  A    
C126  H143  S    
C30   H113  S    
C161  O9    S    
C143  H186  S    
O1    Zn1   S    
C86   H51   S    
C33   H179  S    
C106  H97   S    
C40   H258  S    
C108  C109  S    
C41   H260  S    
C53   H292  S    
C157  C179  A    
C110  C111  S    
C140  H178  S    
C89   H56   S    
C74   H21   S    
C155  H218  S    
C118  H122  S    
C215  C233  D    
C169  C174  A    
C117  O94   S    
C232  O79   S    
C211  C229  D    
C32   O61   S    
C159  H226  S    
C122  H133  S    
C167  C180  A    
C80   H33   S    
C243  O90   S    
C160  H228  S    
C18   C25   A    
C193  C230  S    
C158  H225  S    
C161  H231  S    
C55   H296  S    
C79   O8    S    
C91   H61   S    
C119  O95   S    
C139  H176  S    
C228  O74   S    
C150  H203  S    
C172  O12   A    
O22   Zn15  S    
C56   H298  S    
C176  C185  A    
C88   H54   S    
C210  C242  S    
C199  O28   A    
C132  H159  S    
C83   H43   S    
C131  H158  S    
C84   H45   S    
C85   H48   S    
C192  O22   A    
C159  O8    S    
C177  C186  A    
C41   O66   S    
C36   H248  S    
C19   C23   A    
C43   C44   S    
O18   Zn12  S    
C37   C38   S    
C180  C187  A    
C199  C235  S    
C206  O35   A    
C156  H220  S    
C90   C205  A    
C226  C244  D    
C37   O63   S    
C66   H5    S    
C100  O89   S    
C139  C140  S    
C43   H267  S    
C154  O6    S    
C166  H245  S    
C82   H39   S    
C223  O70   S    
C154  C155  S    
C152  O5    S    
C167  C174  A    
C133  H161  S    
C70   H11   S    
C238  O106  S    
C192  O19   A    
C102  H85   S    
C203  O33   A    
C108  H100  S    
C43   O67   S    
C91   C92   S    
C51   H285  S    
C67   C69   S    
C114  H111  S    
C28   C29   S    
O21   Zn9   S    
O32   Zn5   S    
C170  C184  A    
C59   H305  S    
C134  H164  S    
C72   C73   S    
C189  O14   A    
C246  O93   S    
C199  O48   A    
C165  H243  S    
C113  C170  A    
O1    Zn3   S    
C86   H49   S    
C156  C158  S    
C160  H229  S    
C144  H191  S    
C112  O65   A    
C123  H138  S    
C89   H58   S    
C32   C33   S    
C141  H181  S    
C151  H206  S    
C144  H188  S    
C196  O40   A    
C127  H147  S    
C207  O56   A    
C223  C241  D    
C229  O75   S    
C119  H126  S    
C120  H130  S    
O52   Zn13  S    
C130  C131  S    
C136  H169  S    
O47   Zn10  S    
C150  O4    S    
C69   C70   S    
C169  C182  A    
C73   H18   S    
C61   O75   S    
O1    Zn10  S    
C25   C173  A    
C194  O102  S    
C23   C171  A    
C88   C89   S    
C117  H120  S    
C140  H180  S    
C98   C99   S    
C142  H184  S    
C105  H94   S    
C79   C167  A    
C143  C144  S    
C91   O85   S    
C236  O83   S    
O41   Zn11  S    
C149  H202  S    
C44   H268  S    
C56   H300  S    
C241  O88   S    
C42   H264  S    
O49   Zn14  S    
C128  C129  S    
C96   H72   S    
C22   C175  A    
C83   H41   S    
O53   Zn12  S    
C203  O52   A    
C5    C20   A    
C30   O60   S    
C85   C86   S    
C94   H67   S    
C31   H146  S    
C113  O11   S    
C211  O58   S    
C17   C23   A    
C90   O9    S    
O35   Zn8   S    
C221  C239  D    
C112  O87   A    
C28   O59   S    
C77   O81   S    
O33   Zn6   S    
C159  H227  S    
C216  O104  S    
C78   C80   S    
C113  C227  A    
C13   C57   A    
C111  H108  S    
C115  C116  S    
C43   H265  S    
C146  C178  A    
C215  O62   S    
C153  H210  S    
C220  O67   S    
C125  H141  S    
C148  H197  S    
C92   C93   S    
C149  H200  S    
C163  O10   S    
C164  H241  S    
C144  H189  S    
C62   C63   S    
C196  C232  S    
C224  O71   S    
C163  H237  S    
C74   O80   S    
O34   Zn7   S    
C107  C108  S    
C129  H151  S    
C31   H135  S    
C54   H294  S    
C107  H98   S    
C108  H102  S    
C56   O73   S    
C213  C231  D    
C7    C18   A    
C177  H112  S    
C4    O97   S    
C118  H125  S    
O21   Zn11  S    
O32   Zn7   S    
C146  C171  A    
C75   H25   S    
C166  H244  S    
C198  O27   A    
C125  H140  S    
C195  O44   A    
C9    C247  A    
C189  O16   A    
C201  O46   A    
C231  O78   S    
C209  O53   A    
C110  H107  S    
C122  H136  S    
C81   O82   S    
C93   H64   S    
C46   O5    S    
O29   Zn3   S    
C49   H280  S    
C191  O20   A    
C240  O86   S    
C39   C40   S    
C104  H92   S    
C138  H172  S    
O43   Zn8   S    
C127  H145  S    
C222  C225  S    
O21   Zn2   S    
C227  O105  S    
C213  O60   S    
O15   Zn9   S    
C76   H27   S    
C218  O64   S    
C35   O4    S    
C77   H30   S    
C26   O58   S    
C3    C9    A    
C73   H20   S    
C116  H118  S    
C1    O54   A    
C130  H154  S    
C107  O91   S    
O54   Zn3   S    
C84   H44   S    
C15   C246  A    
C206  O50   A    
C247  O94   S    
C96   H74   S    
C63   H315  S    
C158  H221  S    
O76   Zn16  S    
C138  H173  S    
C168  C181  A    
C30   H101  S    
C44   H270  S    
C137  H170  S    
C87   H53   S    
C81   H37   S    
C42   H262  S    
C156  O7    S    
C61   H309  S    
C52   C53   S    
C69   H9    S    
C123  O97   S    
C67   H6    S    
C6    C17   A    
C109  H105  S    
C54   C55   S    
C234  O81   S    
C127  H144  S    
C137  O104  S    
C90   C168  A    
C208  O37   A    
C32   H157  S    
C2    O107  S    
O32   Zn14  S    
C124  C176  A    
C197  C229  S    
C211  C219  S    
O32   Zn12  S    
C221  O68   S    
C188  C192  S    
C180  H266  S    
C14   C22   A    
C62   H313  S    
C48   H278  S    
C71   C72   S    
C117  C118  S    
C123  H137  S    
C109  H104  S    
C205  O103  S    
C233  O80   S    
C64   H317  S    
C56   C58   S    
C53   H291  S    
C34   C36   S    
C61   C62   S    
O42   Zn1   S    
C128  O100  S    
C151  H207  S    
C59   C60   S    
C118  H123  S    
C11   C172  S    
O44   Zn9   S    
C58   H301  S    
C119  H127  S    
C150  C151  S    
C45   H272  S    
C197  O26   A    
C202  O51   A    
C60   H307  S    
C69   H8    S    
C92   H63   S    
C122  H134  S    
C244  O91   S    
C87   C88   S    
C190  O17   A    
C80   H34   S    
C10   C183  S    
C202  O31   A    
C41   C42   S    
C40   H257  S    
C214  C232  D    
C50   H282  S    
C235  O82   S    
C55   H295  S    
C161  C162  S    
C57   O6    S    
O37   Zn8   S    
O43   Zn6   S    
C77   C78   S    
O21   Zn4   S    
C139  H175  S    
C150  H204  S    
C26   C27   S    
C154  H214  S    
C74   H22   S    
C130  O101  S    
C87   H52   S    
C47   H274  S    
C115  H116  S    
C78   H31   S    
C5    C11   A    
O20   Zn14  S    
C8    C112  S    
C71   O79   S    
C30   C31   S    
C132  H160  S    
C110  O92   S    
C123  C125  S    
C20   C25   A    
C85   H47   S    
C31   H124  S    
C162  H233  S    
C220  C228  S    
C29   H79   S    
C104  C105  S    
C37   H250  S    
C26   H2    S    
C46   C135  A    
C64   O77   S    
C95   C96   S    
C182  C187  A    
C121  H132  S    
C65   H320  S    
C117  H121  S    
C179  H255  S    
C101  C169  A    
C50   O70   S    
O16   Zn10  S    
C147  H196  S    
C82   H40   S    
C61   H311  S    
C164  H240  S    
C62   H312  S    
C17   C238  A    
C70   H12   S    
C134  O103  S    
C8    C246  A    
C141  O106  S    
C45   O68   S    
C57   C146  A    
O55   Zn15  S    
C106  H95   S    
C102  H86   S    
C207  O36   A    
C183  O13   A    
C237  O84   S    
C107  H99   S    
C97   H76   S    
O24   Zn2   S    
C145  C147  S    
C181  C188  A    
C97   C98   S    
C212  O59   S    
C66   H4    S    
C170  C175  A    
C99   H82   S    
C71   H15   S    
C111  H109  S    
C72   H16   S    
C13   C19   A    
C94   O86   S    
C104  O90   S    
C131  H156  S    
C67   O78   S    
C1    C9    S    
C84   C85   S    
C126  H142  S    
C222  O69   S    
C176  H1    S    
C179  C186  A    
C206  C237  S    
C86   H50   S    
C54   O72   S    
C221  C226  S    
C82   C83   S    
C32   H168  S    
O17   Zn11  S    
O2    Zn8   S    
C97   O88   S    
O43   Zn15  S    
C28   H46   S    
O28   Zn4   S    
O38   Zn7   S    
C100  H84   S    
O12   Zn5   S    
C151  H205  S    
C201  C233  S    
C159  C160  S    
O36   Zn5   S    
C134  H165  S    
C50   C51   S    
C76   H26   S    
C101  O10   S    
C185  C189  S    
C145  H192  S    
C135  C177  A    
C121  C122  S    
C3    C14   A    
C178  H223  S    
C193  O23   A    
C165  O11   S    
C48   C49   S    
C190  O15   A    
C80   H36   S    
C220  C237  D    
C142  H185  S    
C105  H93   S    
C68   C157  A    
C161  H232  S    
C209  C245  S    
C33   H190  S    
C208  O57   A    
C152  H208  S    
O56   Zn14  S    
C137  C138  S    
C16   C247  A    
O65   Zn4   S    
C66   H3    S    
C16   C22   A    
C120  H128  S    
C136  H167  S    
C59   H304  S    
C208  C244  S    
C34   H212  S    
C15   C216  A    
C197  O41   A    
C217  C234  D    
C6    C10   A    
O1    Zn16  S    
C119  C120  S    
C131  H155  S    
O48   Zn9   S    
C210  O39   A    
C145  O108  S    
C67   H7    S    
C225  C243  D    
C105  C106  S    
C121  O96   S    
C64   C65   S    
C103  H89   S    
C49   H281  S    
C12   C248  A    
C156  H219  S    
C224  C242  D    
C124  C171  A    
C75   H23   S    
C24   O3    S    
C196  O25   A    
C222  C240  D    
C72   H17   S    
C193  O42   A    
C111  C114  S    
C181  H277  S    
C147  H194  S    
C148  H198  S    
C94   C95   S    
O19   Zn13  S    
C149  H199  S    
C200  O45   A    
C24   C68   A    
C33   H201  S    
C133  H162  S    
C70   H10   S    
C8    C248  A    
C21   C174  A    
C14   C205  A    
C40   H259  S    
C98   H78   S    
O23   Zn16  S    
C248  O95   S    
C129  H150  S    
C95   H70   S    
C38   H253  S    
C226  O73   S    
C6    O100  S    
C217  O63   S    
C51   H286  S    
C157  C173  A    
C219  O66   S    
O31   Zn5   S    
C99   H80   S    
C114  H110  S    
C16   C227  A    
C186  C190  S    
C165  C166  S    
C2    C18   A    
C28   H57   S    
C125  H139  S    
C160  H230  S    
C163  C164  S    
C75   C76   S    
C60   H306  S    
C81   C82   S    
C230  O77   S    
O87   Zn2   S    
C92   H62   S    
C2    C46   A    
C7    C11   A    
C184  H299  S    
C55   H297  S    
C3    O96   S    
C140  H177  S    
C52   H287  S    
C49   H279  S    
C83   H42   S    
O43   Zn13  S    
C36   H235  S    
C89   H59   S    
C27   H35   S    
C141  H182  S    
C152  H209  S    
O51   Zn12  S    
C239  O85   S    
C101  C216  A    
C77   H29   S    
C39   O64   S    
C27   H13   S    
C120  H129  S    
C76   H28   S    
C45   C47   S    
C47   H275  S    
C198  O47   A    
C73   H19   S    
C104  H91   S    
C48   O69   S    
C4    C19   A    
C116  H117  S    
C63   H316  S    
C20   C24   A    
C103  H87   S    
C132  C133  S    
C162  H236  S    
C142  H183  S    
C158  H222  S    
C187  C191  S    
C68   O7    S    
C138  H174  S    
C91   H60   S    
C27   H24   S    
C128  H148  S    
C29   H90   S    
C114  H114  S    
C133  H163  S    
C148  O3    S    
C178  C185  A    
C115  O93   S    
C102  C103  S    
C35   C238  A    
C42   H263  S    
C245  O92   S    
C143  O107  S    
C52   O71   S    
O25   Zn3   S    
C100  H83   S    
C121  H131  S    
C74   C75   S    
C39   H256  S    
C139  O105  S    
C148  C149  S    
C84   O83   S    
C198  C234  S    
O14   Zn1   S    
C202  C239  S    
C213  C217  S    
C214  C215  S    
C134  C136  S    
C228  C245  D    
C98   H77   S    
O46   Zn11  S    
C5    O99   S    
C12   C21   A    
C132  O102  S    
C195  O24   A    
C184  C188  A    
C93   H65   S    
C153  H211  S    
O45   Zn1   S    
C209  O38   A    
C191  O18   A    
C207  C243  S    
C212  C230  D    
C109  H103  S    
C155  H217  S    
C163  H238  S    
C64   H318  S    
C210  O55   A    
C100  C102  S    
C94   H69   S    
C195  C231  S    
C53   H290  S    
C129  H152  S    
C152  C153  S    
C54   H293  S    
C38   H251  S    
C203  C240  S    
C51   H284  S    
C155  H216  S    
C214  O61   S    
C164  H239  S    
C58   H302  S    
C45   H271  S    
C48   H276  S    
C4    C10   A    
C60   H308  S    
C41   H261  S    
O50   Zn15  S    
C38   H252  S    
C13   O108  S    
C110  H106  S    
C183  O2    A    
C52   H289  S    
C12   C194  A    
C219  C236  D    
C200  C236  S    
C204  O34   A    
C50   H283  S    
C204  O49   A    
C182  H288  S    
C7    O101  S    
C143  H187  S    
C218  C235  D    
C103  H88   S    
C128  H149  S    
C154  H215  S    
C136  H166  S    
C47   H273  S    
C115  H115  S    
C200  O29   A    
C78   H32   S    
C165  H242  S    
C141  C142  S    
C126  O99   S    
C130  H153  S    
C116  H119  S    
C63   H314  S    
C212  C218  S    
C71   H14   S    
C96   H73   S    
C162  H234  S    
O98   Zn7   S    
O13   Zn6   S    
C93   H66   S    
C36   H246  S    
C201  O30   A    
O39   Zn6   S    
C37   H249  S    
C26   H310  S    
C15   C21   A    
C65   C66   S    
C65   H319  S    
C44   H269  S    
C137  H171  S    
C34   H224  S    
C81   H38   S    
C147  H195  S    
C166  H247  S    
C242  O89   S    
C145  H193  S    
