data_mof_unit_49882.cif
_audit_creation_date              2012-12-10T17:37:15-0500
_audit_creation_method            fapswitch 2.2
_symmetry_space_group_name_H-M    P1
_symmetry_Int_Tables_number       1
_space_group_crystal_system       triclinic
_cell_length_a                    12.513756
_cell_length_b                    13.237401
_cell_length_c                    15.841406
_cell_angle_alpha                 74.776018
_cell_angle_beta                  101.587571
_cell_angle_gamma                 117.367066
_cell_volume                      2238.78891615

loop_
_atom_site_label
_atom_site_type_symbol
_atom_type_description
_atom_site_fract_x
_atom_site_fract_y
_atom_site_fract_z
_atom_type_partial_charge
C1    C     C_R   0.854876 0.286332 0.508330 0.812807
C2    C     C_3   0.001851 0.500563 0.916966 0.099645
C3    C     C_3   0.102339 0.588892 0.023845 0.150810
C4    C     C_3   0.000652 0.503676 0.082362 0.107048
C5    C     C_3   0.007339 0.603599 0.948653 -0.143480
C6    C     C_3   0.904632 0.516942 0.008090 -0.245545
C7    C     C_1   0.002067 0.499741 0.825476 -0.041700
C8    C     C_1   0.999637 0.502970 0.174172 -0.021885
C9    C     C_R   0.275837 0.041532 0.401294 0.050900
C10   C     C_R   0.227926 0.839409 0.472449 -0.136599
C11   C     C_R   0.805393 0.079828 0.574201 -0.225094
C12   C     C_R   0.000484 0.499656 0.659855 0.831920
C13   C     C_R   0.718959 0.971151 0.610725 0.162287
C14   C     C_R   0.595781 0.950727 0.597752 0.115748
C15   C     C_R   0.558184 0.019028 0.522585 0.077607
C16   C     C_R   0.647288 0.126898 0.483964 0.054166
C17   C     C_R   0.435565 0.986674 0.486457 0.048808
C18   C     C_R   0.400429 0.069288 0.426692 0.092375
C19   C     C_R   0.491219 0.174304 0.389220 -0.220392
C20   C     C_R   0.611887 0.198684 0.413219 -0.167147
C21   C     C_R   0.349814 0.871507 0.501962 -0.313636
C22   C     C_R   0.189680 0.924830 0.424238 0.356339
C23   C     C_R   0.145021 0.714371 0.486694 0.829928
C24   C     C_R   0.769824 0.162119 0.518298 -0.153967
C25   C     C_R   0.324684 0.300718 0.619779 -0.262490
C26   C     C_R   0.761685 0.647183 0.379494 0.652833
C27   C     C_R   0.663766 0.674822 0.349050 -0.389021
C28   C     C_R   0.559411 0.616537 0.391962 -0.161909
C29   C     C_R   0.550212 0.530992 0.468593 -0.037645
C30   C     C_R   0.649485 0.499363 0.495850 0.124767
C31   C     C_R   0.443355 0.471100 0.515951 -0.035918
C32   C     C_R   0.429123 0.368476 0.577401 -0.055068
C33   C     C_R   0.520160 0.333474 0.599515 -0.307961
C34   C     C_R   0.999947 0.500960 0.340076 0.798309
C35   C     C_R   0.632100 0.401058 0.566823 0.455823
C36   C     C_R   0.348724 0.506528 0.505329 0.481767
C37   C     C_R   0.234102 0.335943 0.605752 0.528241
C38   C     C_3   0.995219 0.403442 0.048641 0.428598
C39   C     C_3   0.898501 0.413952 0.974446 -0.208167
C40   C     C_1   0.001752 0.499484 0.749857 -0.167701
C41   C     C_1   0.999322 0.502125 0.249940 -0.158379
C42   C     C_3   0.098540 0.487109 0.990727 -0.234890
Cu1   Cu    Cu3+1 0.098270 0.475420 0.519690 0.947130
Cu2   Cu    Cu3+1 0.901730 0.524580 0.480310 1.029783
H1    H     H_    0.815444 0.340718 0.953656 0.142756
H2    H     H_    0.379559 0.804640 0.531949 0.214865
H3    H     H_    0.900284 0.102772 0.594748 0.204819
H4    H     H_    0.677343 0.275498 0.375735 0.159352
H5    H     H_    0.506730 0.255045 0.648665 0.141516
H6    H     H_    0.313593 0.220237 0.665537 0.172168
H7    H     H_    0.484949 0.635955 0.359759 0.206674
H8    H     H_    0.666966 0.739945 0.290267 0.149084
H9    H     H_    0.825735 0.529495 0.016230 0.154464
H10   H     H_    0.012806 0.686741 0.905900 0.138388
H11   H     H_    0.177058 0.473482 0.983294 0.139575
H12   H     H_    0.470839 0.236360 0.337480 0.152121
N1    N     N_R   0.246280 0.438200 0.549540 -0.265761
N2    N     N_R   0.754330 0.561180 0.450980 -0.207972
O1    O     O_R   0.972510 0.318130 0.524770 -0.576548
O2    O     O_R   0.806530 0.359650 0.491510 -0.536614
O3    O     O_R   0.082970 0.479240 0.637550 -0.614378
O4    O     O_R   0.916990 0.520750 0.604290 -0.510878
O5    O     O_R   0.193470 0.640350 0.508490 -0.581460
O6    O     O_R   0.027490 0.681870 0.475230 -0.484950
O7    O     O_R   0.083010 0.479250 0.395710 -0.607356
O8    O     O_R   0.917030 0.520760 0.362450 -0.541636
C43   C     C_3   0.518545 0.882133 0.675396 -0.416521
C44   C     C_3   0.462191 0.949909 0.700758 -0.827606
H13   H     H_    0.532208 0.038113 0.708179 0.243155
H14   H     H_    0.388573 0.957510 0.651290 0.261354
H15   H     H_    0.422688 0.903806 0.764440 0.239188
H16   H     H_    0.448783 0.795656 0.665006 0.203392
H17   H     H_    0.575573 0.864611 0.735408 0.199268
C45   C     C_3   0.761274 0.881998 0.667129 -0.449574
C46   C     C_3   0.826207 0.849027 0.614381 -0.748969
H18   H     H_    0.766061 0.815704 0.556367 0.263697
H19   H     H_    0.910330 0.924761 0.591923 0.256534
H20   H     H_    0.850971 0.779885 0.656301 0.237008
H21   H     H_    0.823012 0.917243 0.723961 0.206744
H22   H     H_    0.684366 0.800317 0.692861 0.203711
O9    O     O_3   0.133172 0.263156 0.649552 -0.756220
H23   H     H_    0.095979 0.309772 0.658821 0.364160
O10   O     O_3   0.364512 0.613832 0.457045 -0.752091
H24   H     H_    0.291663 0.602230 0.415435 0.347532
O11   O     O_3   0.864431 0.702209 0.335668 -0.679712
H25   H     H_    0.854820 0.760265 0.284335 0.289746
O12   O     O_3   0.988476 0.299127 0.103061 -0.731012
H26   H     H_    0.986642 0.251635 0.063259 0.312956
O13   O     O_3   0.722846 0.370281 0.607816 -0.689361
H27   H     H_    0.695102 0.300871 0.655640 0.293595
C47   C     C_3   0.217146 0.688205 0.053652 -0.402008
C48   C     C_3   0.299603 0.756911 0.979705 -0.832867
H28   H     H_    0.327177 0.699847 0.957897 0.251115
H29   H     H_    0.252665 0.795282 0.922950 0.249216
H30   H     H_    0.382039 0.828194 0.003524 0.241895
H31   H     H_    0.191926 0.746964 0.075419 0.202659
H32   H     H_    0.266225 0.652025 0.110242 0.204809
O14   O     O_3   0.069010 0.891920 0.396508 -0.690847
H33   H     H_    0.063212 0.918408 0.331843 0.311845
C49   C     C_3   0.234198 0.135208 0.352396 -0.407989
C50   C     C_3   0.260786 0.222770 0.409085 -0.773767
H34   H     H_    0.216946 0.177410 0.471208 0.264225
H35   H     H_    0.359307 0.271300 0.424685 0.249747
H36   H     H_    0.224382 0.286261 0.373272 0.243227
H37   H     H_    0.277081 0.179973 0.289940 0.189772
H38   H     H_    0.135671 0.099433 0.333257 0.230719

loop_
_geom_bond_atom_site_label_1
_geom_bond_atom_site_label_2
_ccdc_geom_bond_type
C19   H12   S    
O12   H26   S    
C3    C42   S    
C50   H34   S    
C22   O14   S    
Cu2   O8    S    
C19   C20   A    
C4    C8    S    
Cu1   O7    S    
C34   O8    A    
O9    H23   S    
Cu1   O5    S    
O11   H25   S    
C10   C22   A    
C26   C27   A    
C30   C35   A    
C28   C29   A    
Cu2   O2    S    
C38   C42   S    
C1    O1    A    
C5    C6    S    
C28   H7    S    
C9    C22   A    
C36   O10   S    
C33   H5    S    
C15   C16   A    
C11   C24   A    
C3    C47   S    
C18   C19   A    
C46   H19   S    
C25   H6    S    
C48   H28   S    
C2    C7    S    
C25   C37   A    
C47   H31   S    
C7    C40   T    
C11   H3    S    
C2    C39   S    
C31   C32   A    
Cu2   N2    S    
C44   H13   S    
C14   C43   S    
C43   H17   S    
Cu1   O1    S    
C39   H1    S    
C25   C32   A    
C23   O5    A    
C16   C24   A    
C45   H22   S    
C13   C14   A    
C37   O9    S    
C34   C41   S    
C34   O7    A    
C10   C21   A    
C45   C46   S    
C43   C44   S    
C5    H10   S    
C43   H16   S    
C8    C41   T    
C4    C6    S    
C36   N1    A    
C1    O2    A    
C47   C48   S    
Cu2   O4    S    
C48   H30   S    
C17   C21   A    
C12   C40   S    
C46   H18   S    
C29   C30   A    
C42   H11   S    
C12   O4    A    
O10   H24   S    
C14   C15   A    
C16   C20   A    
C48   H29   S    
C17   C18   A    
C49   H37   S    
C47   H32   S    
C26   N2    A    
C20   H4    S    
C35   O13   S    
C23   O6    A    
C4    C38   S    
C50   H36   S    
C45   H21   S    
Cu1   Cu2   S    
C2    C5    S    
C6    H9    S    
C3    C4    S    
Cu2   O6    S    
C27   H8    S    
Cu1   O3    S    
C21   H2    S    
C50   H35   S    
C15   C17   A    
C6    C39   S    
C3    C5    S    
C44   H15   S    
C10   C23   S    
C9    C49   S    
C49   H38   S    
C38   O12   S    
C32   C33   A    
C29   C31   A    
C12   O3    A    
C11   C13   A    
C38   C39   S    
C2    C42   S    
C26   O11   S    
C30   N2    A    
C49   C50   S    
C33   C35   A    
C46   H20   S    
Cu1   N1    S    
C9    C18   A    
C13   C45   S    
C1    C24   S    
C44   H14   S    
O14   H33   S    
C27   C28   A    
C31   C36   A    
O13   H27   S    
C37   N1    A    
