data_mof_unit_29746.cif
_audit_creation_date              2012-12-10T19:47:23-0500
_audit_creation_method            fapswitch 2.2
_symmetry_space_group_name_H-M    P1
_symmetry_Int_Tables_number       1
_space_group_crystal_system       triclinic
_cell_length_a                    15.074616
_cell_length_b                    14.262065
_cell_length_c                    10.628323
_cell_angle_alpha                 90.451563
_cell_angle_beta                  92.07438
_cell_angle_gamma                 90.305705
_cell_volume                      2283.43345818

loop_
_atom_site_label
_atom_site_type_symbol
_atom_type_description
_atom_site_fract_x
_atom_site_fract_y
_atom_site_fract_z
_atom_type_partial_charge
C1    C     C_R   0.327329 0.499741 0.495670 0.964223
C2    C     C_R   0.949284 0.488836 0.473063 -0.193720
C3    C     C_R   0.486679 0.104374 0.386424 0.356786
C4    C     C_R   0.515217 0.105561 0.612096 0.356907
C5    C     C_R   0.476807 0.202432 0.392473 0.457200
C6    C     C_R   0.525067 0.203808 0.606480 0.433958
C7    C     C_R   0.500550 0.052675 0.499068 -0.284049
C8    C     C_R   0.569038 0.894352 0.562106 0.231009
C9    C     C_R   0.432382 0.892621 0.433798 0.220801
C10   C     C_R   0.560157 0.796052 0.574201 0.486488
C11   C     C_R   0.440610 0.793963 0.423896 0.477582
C12   C     C_R   0.671759 0.500147 0.498652 1.005253
C13   C     C_R   0.500577 0.945779 0.498339 -0.209903
C14   C     C_R   0.499164 0.499884 0.260571 0.851710
C15   C     C_R   0.500191 0.500087 0.739553 0.852097
C16   C     C_R   0.660194 0.552853 0.140474 -0.117756
C17   C     C_R   0.664671 0.535644 0.879691 -0.144727
C18   C     C_R   0.739073 0.569866 0.079868 -0.138544
C19   C     C_R   0.741685 0.559854 0.949775 -0.117493
C20   C     C_R   0.583902 0.520849 0.939593 0.049214
C21   C     C_R   0.582491 0.525461 0.070974 0.087539
C22   C     C_R   0.503377 0.500245 0.128710 -0.065134
C23   C     C_R   0.230366 0.498856 0.480274 -0.444183
C24   C     C_R   0.504223 0.499472 0.872192 -0.076560
C25   C     C_R   0.426655 0.474280 0.060368 -0.188023
C26   C     C_R   0.426700 0.475258 0.931435 -0.153168
C27   C     C_R   0.089367 0.579117 0.484202 0.486541
C28   C     C_R   0.911116 0.528199 0.579769 0.489834
C29   C     C_R   0.181773 0.581073 0.504412 0.362345
C30   C     C_R   0.820924 0.547295 0.575575 0.275400
C31   C     C_3   0.594043 0.766261 0.779486 -0.232649
C32   C     C_3   0.404252 0.757335 0.219881 -0.224770
C33   C     C_3   0.010127 0.691818 0.379964 -0.395282
C34   C     C_R   0.766593 0.499424 0.486835 -0.347386
C35   C     C_3   0.972156 0.479641 0.765399 -0.267143
C36   C     C_3   0.214488 0.740145 0.498829 -0.052902
C37   C     C_3   0.810484 0.698807 0.640636 -0.096346
C38   C     C_R   0.185540 0.415335 0.441621 0.348305
C39   C     C_R   0.802895 0.448526 0.387399 0.334311
C40   C     C_R   0.094417 0.409002 0.449632 0.389511
C41   C     C_R   0.894931 0.451825 0.372842 0.274307
C42   C     C_R   0.045727 0.491815 0.467012 -0.236356
H1    H     H_    0.366492 0.455077 0.107130 0.137280
H2    H     H_    0.605834 0.841005 0.805636 0.200680
H3    H     H_    0.637139 0.724174 0.843583 0.185604
H4    H     H_    0.476315 0.747197 0.204348 0.139468
H5    H     H_    0.383388 0.828160 0.188169 0.211715
H6    H     H_    0.367358 0.705202 0.159903 0.169660
H7    H     H_    0.954804 0.647211 0.341632 0.173807
H8    H     H_    0.064054 0.695109 0.311203 0.152060
H9    H     H_    0.983862 0.763815 0.390755 0.206777
H10   H     H_    0.008829 0.421320 0.720887 0.161191
H11   H     H_    0.906512 0.454353 0.796503 0.160677
H12   H     H_    0.366433 0.457261 0.877584 0.154732
H13   H     H_    0.011323 0.502595 0.850595 0.197238
H14   H     H_    0.213740 0.729111 0.394925 0.155625
H15   H     H_    0.154966 0.779100 0.527408 0.187029
H16   H     H_    0.271763 0.786061 0.525014 0.185850
H17   H     H_    0.781267 0.722591 0.548729 0.168429
H18   H     H_    0.883703 0.708644 0.642730 0.194758
H19   H     H_    0.785219 0.744712 0.715791 0.202317
H20   H     H_    0.269468 0.360527 0.334016 0.314870
H21   H     H_    0.781335 0.364886 0.242523 0.398095
H22   H     H_    0.997531 0.321086 0.476214 0.342606
H23   H     H_    0.660956 0.560329 0.241651 0.154064
H24   H     H_    0.988154 0.446665 0.250360 0.349591
H25   H     H_    0.510584 0.001699 0.271577 0.343587
H26   H     H_    0.492681 0.003436 0.726557 0.342877
H27   H     H_    0.402907 0.294596 0.316945 0.349222
H28   H     H_    0.602206 0.297329 0.678144 0.350003
H29   H     H_    0.668285 0.527659 0.779020 0.183708
H30   H     H_    0.798536 0.589502 0.134174 0.148519
H31   H     H_    0.803471 0.571323 0.903522 0.193498
H32   H     H_    0.654418 0.996989 0.571857 0.362492
H33   H     H_    0.347439 0.994432 0.421430 0.368830
H34   H     H_    0.523903 0.746515 0.796131 0.148862
N1    N     N_R   0.500000 0.252470 0.500000 -0.265153
N2    N     N_R   0.500000 0.747550 0.500000 -0.221265
O1    O     O_R   0.369060 0.579480 0.500010 -0.533174
O2    O     O_3   0.357278 0.933148 0.380100 -0.717642
O3    O     O_3   0.616698 0.747027 0.654130 -0.551601
O4    O     O_3   0.383008 0.742317 0.346410 -0.572075
O5    O     O_3   0.041097 0.660538 0.499378 -0.564373
O6    O     O_3   0.962857 0.556490 0.683552 -0.555672
O7    O     O_3   0.223575 0.656076 0.567102 -0.580032
O8    O     O_3   0.785140 0.605355 0.664917 -0.622515
O9    O     O_3   0.229182 0.337616 0.398777 -0.661248
O10   O     O_3   0.746403 0.401318 0.302806 -0.730152
O11   O     O_3   0.055706 0.321220 0.436059 -0.656866
O12   O     O_R   0.630940 0.579480 0.499990 -0.582394
O13   O     O_3   0.928680 0.419016 0.261603 -0.740580
O14   O     O_3   0.478809 0.062234 0.269073 -0.649552
O15   O     O_3   0.524290 0.064454 0.729017 -0.652630
O16   O     O_3   0.443657 0.246148 0.286738 -0.650931
O17   O     O_3   0.561720 0.248957 0.710392 -0.656474
O18   O     O_R   0.369050 0.420520 0.500010 -0.621677
O19   O     O_R   0.630950 0.420520 0.499990 -0.609039
O20   O     O_R   0.500000 0.579490 0.316770 -0.628777
O21   O     O_R   0.500000 0.579490 0.683230 -0.601469
O22   O     O_R   0.499990 0.420540 0.316770 -0.581522
O23   O     O_R   0.500010 0.420540 0.683230 -0.595301
O24   O     O_3   0.644763 0.936348 0.613990 -0.714592
Zn1   Zn    Zn3+2 0.500000 0.606140 0.500000 1.015558
Zn2   Zn    Zn3+2 0.500000 0.393860 0.500000 1.000202

loop_
_geom_bond_atom_site_label_1
_geom_bond_atom_site_label_2
_ccdc_geom_bond_type
O21   Zn1   S    
C8    C13   A    
H21   O10   S    
C35   H11   S    
C25   H1    S    
C5    O16   S    
C10   N2    A    
C39   C41   A    
C16   C21   A    
C23   C29   A    
C12   O12   A    
C24   C26   A    
C36   H16   S    
C28   O6    S    
C2    C41   A    
C33   H7    S    
O20   Zn1   S    
O22   Zn2   S    
C17   C20   A    
C27   C29   A    
C18   C19   A    
C9    C13   A    
C20   C24   A    
C17   H29   S    
C40   O11   S    
C30   O8    S    
H33   O2    S    
C29   O7    S    
H32   O24   S    
C40   C42   A    
C21   C22   A    
C32   H6    S    
O1    Zn1   S    
C39   O10   S    
C4    C7    A    
C26   H12   S    
C14   O20   A    
C11   O4    S    
C18   H30   S    
C31   H2    S    
C30   C34   A    
C35   H13   S    
C34   C39   A    
O19   Zn2   S    
C37   O8    S    
C19   H31   S    
C4    C6    A    
C36   H15   S    
C6    N1    A    
C25   C26   A    
C22   C25   A    
C3    O14   S    
C9    O2    S    
C36   H14   S    
C11   N2    A    
C9    C11   A    
C15   O23   A    
C33   O5    S    
C12   O19   A    
C37   H17   S    
C16   C18   A    
C15   C24   S    
C41   O13   S    
C1    C23   S    
O23   Zn2   S    
O18   Zn2   S    
C1    O1    A    
C32   H5    S    
C12   C34   S    
H22   O11   S    
N2    Zn1   S    
C32   H4    S    
C15   O21   A    
C3    C5    A    
C37   H19   S    
C35   O6    S    
C14   O22   A    
H24   O13   S    
C36   O7    S    
C33   H9    S    
C23   C38   A    
C32   O4    S    
H20   O9    S    
C10   O3    S    
C3    C7    A    
H26   O15   S    
C31   O3    S    
C38   O9    S    
C14   C22   S    
C28   C30   A    
H28   O17   S    
C33   H8    S    
C38   C40   A    
C27   C42   A    
C31   H34   S    
C8    O24   S    
C2    C42   S    
C1    O18   A    
C27   O5    S    
H25   O14   S    
C17   C19   A    
O12   Zn1   S    
C37   H18   S    
C4    O15   S    
C7    C13   S    
C20   C21   A    
C8    C10   A    
C6    O17   S    
C31   H3    S    
C35   H10   S    
N1    Zn2   S    
C2    C28   A    
C16   H23   S    
H27   O16   S    
C5    N1    A    
