data_mof_unit_49405.cif
_audit_creation_date              2012-12-11T14:33:09-0500
_audit_creation_method            fapswitch 2.2
_symmetry_space_group_name_H-M    P1
_symmetry_Int_Tables_number       1
_space_group_crystal_system       triclinic
_cell_length_a                    6.944816
_cell_length_b                    13.737565
_cell_length_c                    17.952434
_cell_angle_alpha                 112.33004
_cell_angle_beta                  95.475858
_cell_angle_gamma                 90.250505
_cell_volume                      1575.54553072

loop_
_atom_site_label
_atom_site_type_symbol
_atom_type_description
_atom_site_fract_x
_atom_site_fract_y
_atom_site_fract_z
_atom_type_partial_charge
O1    O     O_R   0.484560 0.544530 0.414330 -0.536929
O2    O     O_R   0.197040 0.638810 0.585080 -0.539593
O3    O     O_R   0.026800 0.455470 0.585670 -0.541871
C1    C     C_R   0.373902 0.679043 0.610216 0.684559
O4    O     O_R   0.155000 0.556150 0.414940 -0.542924
O5    O     O_R   0.984450 0.372220 0.414320 -0.533707
C2    C     C_R   0.317672 0.565086 0.386587 0.758322
O6    O     O_R   0.526900 0.627780 0.585680 -0.539013
O7    O     O_3   0.339170 0.439750 0.499990 -0.374123
V1    V     V_3+5 0.064350 0.511180 0.500000 1.372135
O8    O     O_R   0.654880 0.361190 0.414920 -0.543948
C3    C     C_R   0.817319 0.324106 0.387125 0.769164
O9    O     O_R   0.696930 0.443850 0.585060 -0.541737
C4    C     C_R   0.873191 0.433902 0.612511 0.691610
V2    V     V_3+5 0.564340 0.488820 0.500000 1.371076
O10   O     O_3   0.839390 0.560250 0.500010 -0.375152
C5    C     C_R   0.041683 0.860747 0.822626 -0.051068
C6    C     C_R   0.906280 0.397763 0.679904 -0.050801
C7    C     C_R   0.921363 0.821333 0.683010 -0.126427
C8    C     C_R   0.973570 0.787940 0.745866 -0.153132
C9    C     C_R   0.052910 0.968543 0.836713 -0.184464
C10   C     C_R   0.997874 0.005074 0.773637 0.079114
C11   C     C_R   0.933291 0.928509 0.695983 0.120518
C12   C     C_R   0.002889 0.114252 0.784791 0.059868
C13   C     C_R   0.945408 0.144270 0.717762 0.070668
C14   C     C_R   0.885299 0.064141 0.641865 -0.178487
C15   C     C_R   0.879219 0.958869 0.631530 -0.215561
C16   C     C_R   0.062941 0.194385 0.860695 -0.180340
C17   C     C_R   0.068989 0.299661 0.871023 -0.217214
C18   C     C_R   0.014943 0.330016 0.806559 0.121750
C19   C     C_R   0.950407 0.253445 0.728905 0.097130
C20   C     C_R   0.026774 0.437193 0.819519 -0.129395
C21   C     C_R   0.974410 0.470580 0.756664 -0.145266
C22   C     C_R   0.895355 0.289960 0.665816 -0.213242
H1    H     H_    0.830178 0.900326 0.572167 0.117489
H2    H     H_    0.846929 0.237280 0.604903 0.092181
H3    H     H_    0.989066 0.553527 0.767863 0.089328
H4    H     H_    0.117952 0.358211 0.930392 0.117184
H5    H     H_    0.869284 0.763091 0.624026 0.138811
H6    H     H_    0.958818 0.704997 0.734668 0.092448
H7    H     H_    0.101446 0.021211 0.897621 0.108404
H8    H     H_    0.840322 0.079922 0.588684 0.122155
H9    H     H_    0.107807 0.178601 0.913887 0.128609
H10   H     H_    0.078850 0.495444 0.878500 0.135503
H11   H     H_    0.117319 0.215896 0.317415 0.143199
C23   C     C_2   0.131670 0.035725 0.186145 -0.360849
C24   C     C_2   0.980345 0.064102 0.231622 0.399207
H12   H     H_    0.673932 0.177911 0.297232 0.135594
C25   C     C_2   0.814000 0.218358 0.322181 -0.349096
C26   C     C_2   0.978945 0.172453 0.294574 -0.238750
H13   H     H_    0.255579 0.090224 0.198629 0.087022
C27   C     C_R   0.409190 0.784914 0.677389 -0.050775
C28   C     C_R   0.539406 0.472973 0.825639 -0.055344
C29   C     C_R   0.531701 0.884995 0.817043 -0.084106
C30   C     C_R   0.478766 0.789145 0.754016 -0.179586
C31   C     C_R   0.398076 0.880370 0.664326 -0.187110
C32   C     C_R   0.453257 0.980693 0.728350 0.033969
C33   C     C_R   0.519251 0.980783 0.805755 0.077981
C34   C     C_R   0.446744 0.080312 0.718521 0.061594
C35   C     C_R   0.503445 0.177503 0.786057 0.028987
C36   C     C_R   0.564796 0.171940 0.861216 -0.268883
C37   C     C_R   0.573915 0.075756 0.871502 0.304704
C38   C     C_R   0.385598 0.086066 0.643267 -0.159784
C39   C     C_R   0.377760 0.181856 0.633924 -0.220766
C40   C     C_R   0.431094 0.276606 0.698762 0.116947
C41   C     C_R   0.496766 0.277285 0.776171 0.119536
C42   C     C_R   0.417476 0.371027 0.686049 -0.128508
C43   C     C_R   0.469598 0.467578 0.748571 -0.141987
C44   C     C_R   0.551305 0.378092 0.839653 -0.210353
H14   H     H_    0.600701 0.386015 0.900473 0.093276
H15   H     H_    0.453492 0.538692 0.736638 0.092318
H16   H     H_    0.327904 0.181735 0.574786 0.117033
H17   H     H_    0.584458 0.883412 0.875197 0.186619
H18   H     H_    0.494330 0.717507 0.765251 0.092786
H19   H     H_    0.348748 0.873371 0.603719 0.090912
H20   H     H_    0.608332 0.241923 0.913620 0.118649
H21   H     H_    0.341210 0.017383 0.589858 0.121076
H22   H     H_    0.364467 0.370205 0.627103 0.143510
H23   H     H_    0.334193 0.667604 0.194657 0.152793
H24   H     H_    0.615093 0.591052 0.308222 0.154288
C45   C     C_2   0.314201 0.602413 0.318942 -0.350532
C46   C     C_2   0.476606 0.611164 0.285465 -0.128219
H25   H     H_    0.773204 0.636263 0.207016 0.125212
C47   C     C_2   0.635015 0.656117 0.183818 -0.348393
C48   C     C_2   0.472697 0.647471 0.217384 -0.131216
H26   H     H_    0.176054 0.622268 0.295709 0.126731
O11   O     O_R   0.421600 0.630430 0.917010 -0.545049
O12   O     O_R   0.793840 0.702190 0.087630 -0.541226
O13   O     O_R   0.964010 0.886170 0.088190 -0.494509
C49   C     C_R   0.631303 0.693304 0.116095 0.778463
O14   O     O_R   0.751460 0.619510 0.917500 -0.545080
O15   O     O_R   0.921330 0.802900 0.916840 -0.541660
C50   C     C_R   0.574599 0.579280 0.892331 0.664559
O16   O     O_R   0.464290 0.713700 0.088350 -0.542191
O17   O     O_3   0.609200 0.818520 0.002630 -0.353737
V3    V     V_3+5 0.884140 0.747190 0.002530 1.433805
O18   O     O_R   0.251150 0.814630 0.917340 -0.544271
C51   C     C_R   0.074840 0.824583 0.889987 0.692635
O19   O     O_R   0.293530 0.897310 0.087470 -0.540353
C52   C     C_R   0.131480 0.932669 0.117372 0.807227
V4    V     V_3+5 0.384070 0.769710 0.002370 1.429681
O20   O     O_3   0.109180 0.698190 0.002460 -0.389131
O21   O     O_3   0.830941 0.990999 0.220118 -0.628635
H27   H     H_    0.760377 0.013841 0.268876 0.279888
O22   O     O_3   0.637564 0.072836 0.946047 -0.657524
H28   H     H_    0.672870 0.145268 0.985662 0.283792

loop_
_geom_bond_atom_site_label_1
_geom_bond_atom_site_label_2
_ccdc_geom_bond_type
C33   C37   A    
O12   V3    S    
C13   C19   A    
V4    O20   S    
V3    O20   S    
C4    C6    S    
O2    C1    A    
O17   V3    S    
C1    O6    A    
C28   C44   A    
C3    C25   S    
O15   C51   A    
C37   O22   S    
C14   C15   A    
C1    C27   S    
H25   C47   S    
C16   C17   A    
O5    C3    A    
C18   C19   A    
C8    H6    S    
C32   C34   A    
C41   C44   A    
V2    O10   S    
O18   C51   A    
O15   V3    S    
C5    C8    A    
C31   C32   A    
C23   C24   D    
C28   C43   A    
O14   V3    S    
O11   V4    S    
C30   H18   S    
O8    V2    S    
C7    C8    A    
O16   V4    S    
C40   C42   A    
C17   H4    S    
O1    V2    S    
C11   C15   A    
C5    C51   S    
C45   H26   S    
C27   C30   A    
C38   H21   S    
C35   C41   A    
C34   C35   A    
C31   H19   S    
O9    C4    A    
C36   C37   A    
C42   H22   S    
C47   C49   S    
C49   O16   A    
C24   C26   S    
C36   H20   S    
C24   O21   S    
O13   C52   A    
C28   C50   S    
C42   C43   A    
C12   C13   A    
H24   C46   S    
O4    C2    A    
C15   H1    S    
C13   C14   A    
C23   H13   S    
C45   C46   D    
C35   C36   A    
C7    C11   A    
C17   C18   A    
O14   C50   A    
C29   H17   S    
O19   C52   A    
C29   C33   A    
C20   H10   S    
C19   C22   A    
C47   C48   D    
C6    C22   A    
O3    C4    A    
C7    H5    S    
C9    H7    S    
H12   C25   S    
O19   V4    S    
O12   C49   A    
C40   C41   A    
O6    V2    S    
O9    V2    S    
C10   C12   A    
O2    V1    S    
H23   C48   S    
C14   H8    S    
O7    V1    S    
C23   C52   S    
C29   C30   A    
C2    C45   S    
O1    C2    A    
C12   C16   A    
O5    V1    S    
O8    C3    A    
C46   C48   S    
O22   H28   S    
C16   H9    S    
C34   C38   A    
C20   C21   A    
O13   V3    S    
O7    V2    S    
O4    V1    S    
O3    V1    S    
V1    O10   S    
C39   C40   A    
C18   C20   A    
C32   C33   A    
H11   C26   S    
C43   H15   S    
O11   C50   A    
C22   H2    S    
C39   H16   S    
C44   H14   S    
C6    C21   A    
C21   H3    S    
C38   C39   A    
C27   C31   A    
C25   C26   D    
O21   H27   S    
C10   C11   A    
C9    C10   A    
O18   V4    S    
O17   V4    S    
C5    C9    A    
