data_mof_unit_57380.cif
_audit_creation_date              2013-03-05T16:00:43-0500
_audit_creation_method            fapswitch 2.2
_symmetry_space_group_name_H-M    P1
_symmetry_Int_Tables_number       1
_space_group_crystal_system       triclinic
_cell_length_a                    21.190713
_cell_length_b                    21.289994
_cell_length_c                    14.012938
_cell_angle_alpha                 90.272123
_cell_angle_beta                  90.348439
_cell_angle_gamma                 90.14521
_cell_volume                      6321.73014345

loop_
_atom_site_label
_atom_site_type_symbol
_atom_site_description
_atom_site_fract_x
_atom_site_fract_y
_atom_site_fract_z
_atom_type_partial_charge
O1    O     O_R   0.066090 0.433930 0.580280 -0.620406
O2    O     O_R   0.933910 0.566070 0.419720 -0.619337
O3    O     O_R   0.933910 0.566070 0.580280 -0.620264
O4    O     O_R   0.066090 0.433930 0.419720 -0.618916
O5    O     O_R   0.933910 0.433930 0.419720 -0.625649
O6    O     O_R   0.066090 0.566070 0.580280 -0.619975
O7    O     O_R   0.066090 0.566070 0.419720 -0.617544
O8    O     O_R   0.933910 0.433930 0.580280 -0.615661
O9    O     O_R   0.566090 0.933930 0.580280 -0.617328
O10   O     O_R   0.433910 0.066070 0.419720 -0.621769
O11   O     O_R   0.433910 0.066070 0.580280 -0.618754
O12   O     O_R   0.566090 0.933930 0.419720 -0.620671
O13   O     O_R   0.433910 0.933930 0.419720 -0.619352
O14   O     O_R   0.566090 0.066070 0.580280 -0.617810
O15   O     O_R   0.566090 0.066070 0.419720 -0.624044
O16   O     O_R   0.433910 0.933930 0.580280 -0.618346
C1    C     C_R   0.086503 0.413545 0.500219 0.895579
C2    C     C_R   0.913908 0.586710 0.499935 0.905058
C3    C     C_R   0.913354 0.413088 0.499451 0.894483
C4    C     C_R   0.086212 0.586769 0.500208 0.892447
C5    C     C_R   0.586660 0.913604 0.499751 0.894389
C6    C     C_R   0.413562 0.086548 0.499823 0.892220
C7    C     C_R   0.413779 0.913249 0.499796 0.894413
C8    C     C_R   0.585698 0.087471 0.500808 0.891117
Zn1   Zn    Zn3+2 0.000000 0.500000 0.607200 0.939333
Zn2   Zn    Zn3+2 0.000000 0.500000 0.392800 0.934867
Zn3   Zn    Zn3+2 0.500000 1.000000 0.607200 0.938528
Zn4   Zn    Zn3+2 0.500000 0.000000 0.392800 0.938176
C9    C     C_R   0.127511 0.686798 0.560856 0.089921
C10   C     C_R   0.872153 0.313912 0.563594 0.102717
C11   C     C_R   0.876013 0.689036 0.446389 0.095314
C12   C     C_R   0.125886 0.312451 0.442778 0.095326
C13   C     C_R   0.616001 0.196601 0.465994 0.094020
C14   C     C_R   0.372648 0.813094 0.439477 0.088439
C15   C     C_R   0.373970 0.187441 0.558223 0.096575
C16   C     C_R   0.624912 0.811030 0.552599 0.097156
C17   C     C_R   0.133968 0.634545 0.500019 -0.087418
C18   C     C_R   0.865452 0.364487 0.499697 -0.092004
C19   C     C_R   0.866148 0.634148 0.499612 -0.102920
C20   C     C_R   0.134075 0.365680 0.501347 -0.105984
C21   C     C_R   0.631224 0.137755 0.505780 -0.076603
C22   C     C_R   0.366044 0.865467 0.500006 -0.087932
C23   C     C_R   0.366029 0.134494 0.498875 -0.104548
C24   C     C_R   0.634213 0.865546 0.498040 -0.101252
C25   C     C_R   0.185921 0.627662 0.438369 0.096602
C26   C     C_R   0.810270 0.372246 0.443987 0.062485
C27   C     C_R   0.810165 0.623478 0.550687 0.091648
C28   C     C_R   0.187246 0.373214 0.561612 0.088217
C29   C     C_R   0.685879 0.128893 0.562767 0.093727
C30   C     C_R   0.314008 0.872420 0.561444 0.096323
C31   C     C_R   0.312998 0.127183 0.438237 0.088563
C32   C     C_R   0.687787 0.873696 0.439559 0.088530
C33   C     C_R   0.227850 0.678463 0.428698 0.062193
C34   C     C_R   0.756835 0.335756 0.465520 0.077443
C35   C     C_R   0.766807 0.673118 0.559440 0.103659
C36   C     C_R   0.230238 0.323093 0.569400 0.104013
C37   C     C_R   0.726225 0.180511 0.580274 0.062781
C38   C     C_R   0.272171 0.821569 0.571281 0.062503
C39   C     C_R   0.269971 0.177287 0.430657 0.103614
C40   C     C_R   0.731466 0.823978 0.431995 0.103126
C41   C     C_R   0.226482 0.726746 0.499121 -0.030699
C42   C     C_R   0.764665 0.282048 0.523525 -0.026101
C43   C     C_R   0.772978 0.725622 0.497799 -0.047802
C44   C     C_R   0.226552 0.273415 0.501322 -0.047506
C45   C     C_R   0.716861 0.236017 0.526335 -0.034646
C46   C     C_R   0.273609 0.773209 0.500992 -0.030338
C47   C     C_R   0.273584 0.226843 0.498954 -0.047890
C48   C     C_R   0.726096 0.772437 0.495902 -0.048402
C49   C     C_R   0.177902 0.728905 0.567650 0.070461
C50   C     C_R   0.820946 0.272993 0.576024 0.066335
C51   C     C_R   0.826148 0.731540 0.438091 0.096545
C52   C     C_R   0.175722 0.269917 0.435738 0.095903
C53   C     C_R   0.660643 0.245229 0.473286 0.076360
C54   C     C_R   0.322252 0.771003 0.432576 0.070627
C55   C     C_R   0.324259 0.230183 0.564844 0.095648
C56   C     C_R   0.673831 0.767186 0.557704 0.096379
C57   C     C_R   0.271795 0.682902 0.352838 0.102350
C58   C     C_R   0.695535 0.350310 0.431368 0.097368
C59   C     C_R   0.717504 0.672212 0.626919 0.103878
C60   C     C_R   0.277397 0.321070 0.641402 0.105613
C61   C     C_R   0.776876 0.179216 0.647419 0.105171
C62   C     C_R   0.228257 0.817162 0.647159 0.102123
C63   C     C_R   0.222802 0.179394 0.358635 0.105853
C64   C     C_R   0.781166 0.824101 0.364465 0.107558
C65   C     C_R   0.823847 0.224312 0.642699 -0.200913
C66   C     C_R   0.181144 0.772300 0.642796 -0.197862
C67   C     C_R   0.175859 0.224384 0.363477 -0.265004
C68   C     C_R   0.828361 0.779466 0.370466 -0.262725
C69   C     C_R   0.319018 0.727654 0.357387 -0.197562
C70   C     C_R   0.649386 0.304136 0.431820 -0.200558
C71   C     C_R   0.671540 0.718335 0.624292 -0.261766
C72   C     C_R   0.324128 0.275856 0.636956 -0.264236
H1    H     H_    0.862389 0.220955 0.693440 0.170824
H2    H     H_    0.148255 0.770403 0.701564 0.172104
H3    H     H_    0.140395 0.224154 0.307544 0.159592
H4    H     H_    0.865975 0.781955 0.318700 0.159638
H5    H     H_    0.351950 0.729585 0.298671 0.172218
H6    H     H_    0.604312 0.315921 0.400178 0.167434
H7    H     H_    0.634721 0.715945 0.677334 0.159974
H8    H     H_    0.359490 0.276161 0.693019 0.160074
C73   C     C_R   0.944070 0.501606 0.797217 -0.045532
C74   C     C_R   0.055906 0.497894 0.202748 -0.049473
C75   C     C_R   0.055853 0.498469 0.798326 -0.024259
C76   C     C_R   0.944157 0.502108 0.201663 -0.034209
C77   C     C_R   0.444045 0.000107 0.797218 -0.052248
C78   C     C_R   0.555916 0.000341 0.202642 -0.021323
C79   C     C_R   0.555894 0.000085 0.798365 -0.023042
C80   C     C_R   0.444081 0.999640 0.201690 -0.030197
N1    N     N_R   0.000000 0.500000 0.750030 -0.111165
N2    N     N_R   0.000000 0.500000 0.249970 -0.109913
N3    N     N_R   0.500000 0.000000 0.750030 -0.111782
N4    N     N_R   0.500000 0.000000 0.249970 -0.121277
C81   C     C_R   0.057485 0.498176 0.899116 -0.010719
C82   C     C_R   0.942511 0.501971 0.100856 -0.008714
C83   C     C_R   0.942245 0.501807 0.898146 -0.035219
C84   C     C_R   0.057740 0.497973 0.101815 -0.035786
C85   C     C_R   0.557541 0.000211 0.899219 0.009081
C86   C     C_R   0.442395 0.999845 0.100853 -0.010279
C87   C     C_R   0.442189 0.999996 0.898138 -0.035575
C88   C     C_R   0.557593 0.000260 0.101779 0.009249
C89   C     C_R   0.999922 0.499969 0.949374 0.010522
C90   C     C_R   0.000066 0.499962 0.050597 0.012077
C91   C     C_R   0.499892 0.000077 0.949382 0.011624
C92   C     C_R   0.499963 0.000062 0.050559 -0.009144
C93   C     C_R   0.115060 0.496167 0.950125 0.092772
C94   C     C_R   0.884929 0.503821 0.049820 0.093348
C95   C     C_R   0.884616 0.503776 0.948934 0.052790
C96   C     C_R   0.115371 0.496093 0.050997 0.054268
C97   C     C_R   0.615204 0.000464 0.950334 0.050026
C98   C     C_R   0.384793 0.999830 0.049818 0.096072
C99   C     C_R   0.384503 0.999857 0.948934 0.055680
C100  C     C_R   0.615228 0.000411 0.051693 0.053327
H9    H     H_    0.901190 0.502741 0.755157 0.135005
H10   H     H_    0.098760 0.496120 0.244770 0.135941
H11   H     H_    0.098988 0.497548 0.757526 0.158687
H12   H     H_    0.901026 0.503941 0.242447 0.161736
H13   H     H_    0.401168 0.000386 0.755176 0.136609
H14   H     H_    0.599072 0.000717 0.244249 0.162534
H15   H     H_    0.599057 0.000068 0.757531 0.160703
H16   H     H_    0.400938 0.999147 0.242513 0.161076
C101  C     C_3   0.067309 0.698591 0.617025 -0.877325
H17   H     H_    0.025489 0.674717 0.585783 0.243606
H18   H     H_    0.073687 0.682880 0.691896 0.249085
H19   H     H_    0.055299 0.749336 0.616123 0.229857
C102  C     C_3   0.935310 0.299847 0.611539 -0.879270
H20   H     H_    0.975426 0.326511 0.581579 0.244545
H21   H     H_    0.932434 0.310144 0.689137 0.245627
H22   H     H_    0.947867 0.249731 0.600490 0.229198
C103  C     C_3   0.939230 0.703008 0.399523 -0.881491
H23   H     H_    0.978640 0.674421 0.427697 0.240365
H24   H     H_    0.935618 0.694888 0.321354 0.245552
H25   H     H_    0.953178 0.752522 0.413720 0.232049
C104  C     C_3   0.063991 0.299768 0.389998 -0.876438
H26   H     H_    0.051010 0.249349 0.395590 0.230263
H27   H     H_    0.023385 0.325325 0.420733 0.242301
H28   H     H_    0.068743 0.312723 0.313719 0.245132
C105  C     C_3   0.552998 0.208333 0.416064 -0.908920
H29   H     H_    0.519259 0.168808 0.418427 0.256133
H30   H     H_    0.528498 0.248216 0.451092 0.233247
H31   H     H_    0.561152 0.219458 0.339784 0.247047
C106  C     C_3   0.433024 0.801217 0.383810 -0.874575
H32   H     H_    0.474791 0.824698 0.415972 0.243774
H33   H     H_    0.444754 0.750403 0.384179 0.230154
H34   H     H_    0.427107 0.817387 0.309086 0.249334
C107  C     C_3   0.435368 0.199603 0.612668 -0.879337
H35   H     H_    0.476073 0.173228 0.584064 0.250667
H36   H     H_    0.449153 0.249781 0.606499 0.229203
H37   H     H_    0.429373 0.187388 0.689023 0.245477
C108  C     C_3   0.562499 0.798062 0.602606 -0.878596
H38   H     H_    0.522753 0.826744 0.575785 0.242483
H39   H     H_    0.547539 0.748715 0.589501 0.230821
H40   H     H_    0.567825 0.806432 0.680508 0.245579
C109  C     C_3   0.200933 0.563855 0.394835 -0.896664
H41   H     H_    0.184524 0.561265 0.319758 0.231908
H42   H     H_    0.252208 0.554087 0.400832 0.234572
H43   H     H_    0.178261 0.524630 0.433143 0.232650
C110  C     C_3   0.812211 0.412356 0.354563 -0.886773
H44   H     H_    0.772191 0.403403 0.305494 0.233207
H45   H     H_    0.814334 0.463030 0.373513 0.237999
H46   H     H_    0.853698 0.399310 0.310895 0.262277
C111  C     C_3   0.794604 0.557754 0.586217 -0.835465
H47   H     H_    0.808451 0.553041 0.662343 0.250469
H48   H     H_    0.743598 0.547376 0.576479 0.239521
H49   H     H_    0.818784 0.520598 0.544553 0.212049
C112  C     C_3   0.200472 0.436056 0.610411 -0.821758
H50   H     H_    0.186159 0.434132 0.686368 0.262226
H51   H     H_    0.251213 0.448441 0.604340 0.238510
H52   H     H_    0.175360 0.475870 0.577228 0.217230
C113  C     C_3   0.704350 0.063132 0.594683 -0.894290
H53   H     H_    0.754571 0.054066 0.577523 0.234325
H54   H     H_    0.694733 0.056599 0.671589 0.243237
H55   H     H_    0.678081 0.025452 0.557563 0.230035
C114  C     C_3   0.298805 0.936309 0.604503 -0.897629
H56   H     H_    0.247522 0.945973 0.598186 0.234592
H57   H     H_    0.314991 0.939094 0.679650 0.231369
H58   H     H_    0.321552 0.975460 0.566125 0.232710
C115  C     C_3   0.299831 0.064464 0.388995 -0.820632
H59   H     H_    0.249051 0.052134 0.394573 0.237819
H60   H     H_    0.314457 0.066512 0.313172 0.262111
H61   H     H_    0.324691 0.024521 0.422254 0.217361
C116  C     C_3   0.700223 0.936494 0.391058 -0.826171
H62   H     H_    0.749974 0.951204 0.402919 0.238676
H63   H     H_    0.689106 0.932941 0.313735 0.262915
H64   H     H_    0.672098 0.975852 0.419135 0.220777
N5    N     N_3   0.265528 0.649145 0.264414 -0.470899
H65   H     H_    0.283868 0.603936 0.270724 0.193925
H66   H     H_    0.218354 0.648658 0.242201 0.197359
N6    N     N_3   0.675643 0.413099 0.408946 -0.469347
H67   H     H_    0.706991 0.446747 0.436061 0.206435
H68   H     H_    0.670836 0.417545 0.335026 0.182486
N7    N     N_3   0.715743 0.627425 0.702994 -0.468097
H69   H     H_    0.718075 0.651836 0.767864 0.186098
H70   H     H_    0.672408 0.603856 0.699861 0.183770
N8    N     N_3   0.276560 0.361959 0.722995 -0.467592
H71   H     H_    0.272757 0.334428 0.784313 0.185931
H72   H     H_    0.319612 0.386028 0.726409 0.182642
N9    N     N_3   0.778730 0.138535 0.728673 -0.474950
H73   H     H_    0.734100 0.135720 0.759729 0.198812
H74   H     H_    0.796560 0.094547 0.710171 0.194908
N10   N     N_3   0.234445 0.851105 0.735429 -0.470982
H75   H     H_    0.281612 0.851676 0.757671 0.196846
H76   H     H_    0.216080 0.896289 0.728853 0.193908
N11   N     N_3   0.223823 0.138819 0.276689 -0.467643
H77   H     H_    0.180866 0.114597 0.273031 0.181702
H78   H     H_    0.227525 0.166606 0.215624 0.186209
N12   N     N_3   0.783135 0.866953 0.285907 -0.470106
H79   H     H_    0.825939 0.891487 0.288895 0.181528
H80   H     H_    0.782035 0.840957 0.222397 0.185178
N13   N     N_3   0.173547 0.494115 0.899103 -0.480231
H81   H     H_    0.200809 0.532913 0.919762 0.206439
H82   H     H_    0.197651 0.453344 0.918799 0.204164
N14   N     N_3   0.826434 0.505673 0.100825 -0.480090
H83   H     H_    0.802064 0.546207 0.080771 0.203776
H84   H     H_    0.799435 0.466624 0.080468 0.202338
N15   N     N_3   0.825009 0.505888 0.899872 -0.478278
H85   H     H_    0.820847 0.466035 0.856391 0.185124
H86   H     H_    0.823889 0.545977 0.857093 0.185507
N16   N     N_3   0.175000 0.494282 0.099995 -0.478325
H87   H     H_    0.176251 0.454393 0.143181 0.183979
H88   H     H_    0.179091 0.534363 0.142979 0.175436
N17   N     N_3   0.673567 0.000881 0.898822 -0.492422
H89   H     H_    0.699150 0.041069 0.918021 0.183837
H90   H     H_    0.699638 0.961199 0.917734 0.187097
N18   N     N_3   0.326261 0.999845 0.100811 -0.480185
H91   H     H_    0.300730 0.039732 0.081048 0.203861
H92   H     H_    0.300391 0.960111 0.080176 0.206146
N19   N     N_3   0.324850 0.999532 0.899905 -0.478920
H93   H     H_    0.322199 0.959288 0.857044 0.175064
H94   H     H_    0.322192 0.039301 0.856603 0.183819
N20   N     N_3   0.673607 0.000412 0.104233 -0.486268
H95   H     H_    0.699587 0.040280 0.085776 0.188706
H96   H     H_    0.699266 0.960409 0.085476 0.186291

loop_
_geom_bond_atom_site_label_1
_geom_bond_atom_site_label_2
_geom_bond_distance
_ccdc_geom_bond_type
C63   C67   1.384431 A    
C74   N2    1.361208 A    
C68   H4    1.082361 S    
C105  H29   1.103554 S    
C83   C89   1.414388 A    
C113  H55   1.101926 S    
N15   H86   1.045552 S    
C108  H38   1.106531 S    
C65   H1    1.082339 S    
N11   H77   1.045948 S    
C14   C22   1.405536 A    
C27   C111  1.523439 S    
C14   C106  1.523542 S    
C64   N12   1.433803 S    
C87   C91   1.414249 A    
C102  H22   1.110654 S    
N10   H76   1.042884 S    
C106  H32   1.107773 S    
C116  H63   1.109625 S    
C100  N20   1.435751 S    
C91   C92   1.417780 A    
C12   C52   1.396519 A    
C78   N4    1.361419 A    
N5    H65   1.042873 S    
O10   C6    1.279906 A    
C12   C104  1.524707 S    
C59   N7    1.434200 S    
C10   C18   1.410545 A    
C16   C108  1.525687 S    
C107  H35   1.106577 S    
O7    Zn2   2.015151 S    
C84   C90   1.414368 A    
C32   C40   1.411911 A    
O12   Zn4   2.022595 S    
C54   C69   1.398624 A    
C27   C35   1.407538 A    
C75   C81   1.412615 A    
C39   C63   1.417052 A    
C53   C70   1.405039 A    
N17   H89   1.044998 S    
C93   N13   1.435244 S    
C101  H18   1.110281 S    
C94   N14   1.435149 S    
C82   C94   1.411302 A    
C30   C114  1.521435 S    
N8    H72   1.045951 S    
C78   H14   1.081550 S    
O6    Zn1   2.020833 S    
C29   C113  1.523127 S    
C96   N16   1.435101 S    
C46   C54   1.412684 A    
C45   C53   1.414949 A    
N18   H91   1.045611 S    
O13   C7    1.282383 A    
O3    C2    1.280696 A    
C113  H54   1.107354 S    
C32   C116  1.525727 S    
C116  H62   1.110352 S    
O14   C8    1.276689 A    
C115  H60   1.109613 S    
C75   H11   1.081239 S    
C42   C50   1.411597 A    
C16   C56   1.398460 A    
C10   C50   1.402042 A    
C43   C48   1.409260 A    
C98   N18   1.435197 S    
C41   C46   1.403913 A    
C38   C46   1.421967 A    
C6    C23   1.435933 S    
C11   C19   1.405124 A    
N6    H67   1.044398 S    
C110  H45   1.110566 S    
C62   N10   1.434719 S    
C35   C43   1.422137 A    
C93   C96   1.413493 A    
C87   C99   1.418271 A    
N15   H85   1.045454 S    
C36   C44   1.422626 A    
O13   Zn4   2.020836 S    
C79   C85   1.413457 A    
O14   Zn3   2.020833 S    
C104  H27   1.107513 S    
C31   C115  1.524460 S    
Zn2   N2    2.001469 S    
N9    H74   1.042922 S    
C59   C71   1.385294 A    
O9    Zn3   2.023280 S    
Zn1   N1    2.001468 S    
C97   C100  1.420342 A    
C39   C47   1.422667 A    
C85   C97   1.412601 A    
C24   C32   1.414980 A    
O16   Zn3   2.015154 S    
C111  H48   1.110124 S    
C77   N3    1.361151 A    
C83   C95   1.417784 A    
Zn3   N3    2.001468 S    
C107  H36   1.110707 S    
C81   C93   1.411112 A    
C109  H41   1.107098 S    
O1    Zn1   2.023280 S    
C8    C21   1.440426 S    
C108  H39   1.110756 S    
C26   C110  1.520443 S    
C115  H59   1.110282 S    
C33   C41   1.422034 A    
C21   C29   1.416334 A    
N10   H75   1.045179 S    
C102  H21   1.110299 S    
C13   C105  1.525240 S    
C102  H20   1.106949 S    
C9    C49   1.394995 A    
N19   H94   1.045440 S    
C66   H2    1.082907 S    
N16   H88   1.045260 S    
O8    C3    1.287542 A    
N12   H79   1.046065 S    
C30   C38   1.405370 A    
C44   C47   1.408049 A    
C80   C86   1.413279 A    
O3    Zn1   2.022596 S    
C74   C84   1.415146 A    
C38   C62   1.420520 A    
C103  H25   1.110808 S    
C80   H16   1.081455 S    
N8    H71   1.045834 S    
C112  H52   1.104942 S    
C106  H33   1.110659 S    
C34   C42   1.415556 A    
C114  H57   1.106770 S    
N20   H95   1.044928 S    
C111  H47   1.109718 S    
C77   H13   1.079908 S    
O12   C5    1.278504 A    
C101  H19   1.110686 S    
C58   C70   1.384926 A    
C82   C90   1.412725 A    
C51   C68   1.396701 A    
C69   H5    1.082967 S    
N17   H90   1.044935 S    
C1    C20   1.435304 S    
C64   C68   1.383775 A    
C60   C72   1.384236 A    
C115  H61   1.104951 S    
C33   C57   1.420792 A    
C2    C19   1.431601 S    
C74   H10   1.080148 S    
N13   H81   1.045529 S    
C86   C98   1.410944 A    
C3    C18   1.447686 S    
C57   N5    1.434763 S    
C67   H3    1.082536 S    
C5    C24   1.438108 S    
C35   C59   1.413561 A    
O4    Zn2   2.022595 S    
N7    H69   1.045804 S    
O11   Zn3   2.022596 S    
C22   C30   1.410748 A    
C110  H46   1.109339 S    
C9    C101  1.523797 S    
C26   C34   1.406655 A    
N14   H84   1.045557 S    
C81   C89   1.412723 A    
O2    Zn2   2.023280 S    
C86   C92   1.412567 A    
C48   C56   1.414604 A    
C104  H28   1.110281 S    
C7    C22   1.432795 S    
C89   C90   1.418420 A    
C109  H42   1.109568 S    
C99   N19   1.435045 S    
C55   C72   1.399052 A    
C14   C54   1.394961 A    
C76   C82   1.412811 A    
O4    C1    1.283581 A    
C13   C53   1.403583 A    
O15   C8    1.288315 A    
N7    H70   1.045919 S    
C43   C51   1.413209 A    
O7    C4    1.279307 A    
O16   C7    1.279182 A    
N12   H80   1.045898 S    
C12   C20   1.405827 A    
C73   C83   1.415072 A    
C116  H64   1.101996 S    
C37   C61   1.423441 A    
C16   C24   1.406969 A    
C47   C55   1.413390 A    
C17   C25   1.411037 A    
C52   C67   1.398496 A    
C15   C23   1.406788 A    
C72   H8    1.082359 S    
C106  H34   1.110278 S    
C19   C27   1.407727 A    
N5    H66   1.045177 S    
C111  H49   1.109281 S    
O10   Zn4   2.023280 S    
C28   C36   1.409029 A    
N16   H87   1.045446 S    
C76   H12   1.081588 S    
C42   C45   1.408516 A    
C78   C88   1.414028 A    
C88   C100  1.412333 A    
C57   C69   1.380957 A    
C79   N3    1.360828 A    
C77   C87   1.414977 A    
C15   C55   1.396991 A    
C37   C45   1.419511 A    
O2    C2    1.279954 A    
C29   C37   1.410306 A    
C60   N8    1.433972 S    
N19   H93   1.045183 S    
N11   H78   1.045825 S    
N20   H96   1.044999 S    
C61   N9    1.434251 S    
O5    C3    1.282414 A    
C73   H9    1.080444 S    
C105  H31   1.110392 S    
C107  H37   1.110266 S    
O6    C4    1.282407 A    
O11   C6    1.283288 A    
C95   N15   1.435327 S    
C36   C60   1.416653 A    
C75   N1    1.360360 A    
Zn4   N4    2.001469 S    
C41   C49   1.412760 A    
C103  H24   1.110275 S    
C98   C99   1.413667 A    
C85   C91   1.413139 A    
C13   C21   1.411006 A    
C28   C112  1.524209 S    
N13   H82   1.045610 S    
N6    H68   1.044988 S    
C62   C66   1.380772 A    
C103  H23   1.106607 S    
O8    Zn1   2.015154 S    
C114  H58   1.105323 S    
C76   N2    1.360650 A    
C4    C17   1.433006 S    
C40   C64   1.420142 A    
O9    C5    1.285669 A    
C112  H50   1.109438 S    
C97   N17   1.435811 S    
C63   N11   1.433971 S    
C23   C31   1.412553 A    
C94   C95   1.413672 A    
C11   C103  1.524755 S    
N9    H73   1.045175 S    
C11   C51   1.397613 A    
N14   H83   1.045554 S    
C109  H43   1.105309 S    
N18   H92   1.045535 S    
C44   C52   1.413252 A    
C79   H15   1.081850 S    
C113  H53   1.109672 S    
C58   N6    1.438286 S    
C18   C26   1.412518 A    
C112  H51   1.110320 S    
C110  H44   1.104152 S    
C56   C71   1.401503 A    
C25   C33   1.405548 A    
O5    Zn2   2.020836 S    
O15   Zn4   2.015151 S    
C10   C102  1.524851 S    
C80   N4    1.360910 A    
C25   C109  1.521642 S    
C31   C39   1.409036 A    
O1    C1    1.279199 A    
C40   C48   1.424392 A    
C105  H30   1.110323 S    
C114  H56   1.109619 S    
C84   C96   1.417981 A    
C9    C17   1.405796 A    
C15   C107  1.525194 S    
C108  H40   1.110271 S    
C71   H7    1.082135 S    
C104  H26   1.110682 S    
C101  H17   1.107364 S    
C50   C65   1.399885 A    
C73   N1    1.361104 A    
C20   C28   1.412314 A    
C70   H6    1.081201 S    
C61   C65   1.383274 A    
C49   C66   1.398819 A    
C88   C92   1.412744 A    
C34   C58   1.417132 A    
