data_mof_unit_20660.cif
_audit_creation_date              2012-12-10T17:31:14-0500
_audit_creation_method            fapswitch 2.2
_symmetry_space_group_name_H-M    P1
_symmetry_Int_Tables_number       1
_space_group_crystal_system       triclinic
_cell_length_a                    12.075025
_cell_length_b                    12.983241
_cell_length_c                    15.796225
_cell_angle_alpha                 85.145785
_cell_angle_beta                  114.394345
_cell_angle_gamma                 91.917245
_cell_volume                      2247.24464232

loop_
_atom_site_label
_atom_site_type_symbol
_atom_type_description
_atom_site_fract_x
_atom_site_fract_y
_atom_site_fract_z
_atom_type_partial_charge
C1    C     C_R   0.474906 0.301463 0.489210 0.899163
C2    C     C_R   0.653120 0.963981 0.517186 -0.247873
C3    C     C_R   0.344160 0.146687 0.457539 0.488263
C4    C     C_R   0.648795 0.858579 0.536531 0.478122
C5    C     C_R   0.553523 0.132444 0.473951 -0.088940
C6    C     C_R   0.433621 0.871781 0.504324 -0.082645
C7    C     C_R   0.549029 0.025211 0.491363 -0.002494
C8    C     C_R   0.439472 0.978992 0.488249 -0.002250
C9    C     C_R   0.993991 0.582380 0.399251 -0.247121
C10   C     C_R   0.007415 0.421915 0.604870 -0.253811
C11   C     C_R   0.113789 0.575023 0.407313 -0.015656
C12   C     C_R   0.523387 0.699747 0.507911 0.922871
C13   C     C_R   0.885323 0.424568 0.592714 -0.011515
C14   C     C_R   0.166700 0.465496 0.546866 0.640633
C15   C     C_R   0.836618 0.542450 0.459672 0.700345
C16   C     C_R   0.574640 0.493641 0.678971 0.871910
C17   C     C_R   0.424595 0.501361 0.320786 0.869483
C18   C     C_R   0.044477 0.472335 0.539341 -0.112462
C19   C     C_R   0.958016 0.533459 0.465707 -0.108799
C20   C     C_R   0.619391 0.493602 0.779773 -0.066024
C21   C     C_R   0.379205 0.502963 0.218867 -0.071718
C22   C     C_R   0.781617 0.510649 0.930730 -0.148718
C23   C     C_R   0.650955 0.513887 0.105144 -0.256622
C24   C     C_R   0.223955 0.543997 0.064755 -0.137002
C25   C     C_R   0.742553 0.507825 0.835225 -0.211699
C26   C     C_R   0.258909 0.528262 0.160421 -0.239183
C27   C     C_R   0.535686 0.486937 0.820040 -0.155672
C28   C     C_R   0.460195 0.484297 0.179511 -0.152663
C29   C     C_R   0.570646 0.507435 0.912979 0.057673
C30   C     C_R   0.433080 0.514305 0.085399 0.040573
C31   C     C_R   0.696676 0.506347 0.970829 0.052227
C32   C     C_R   0.310971 0.541447 0.026839 0.032237
C33   C     C_R   0.483908 0.526025 0.949825 -0.069306
C34   C     C_R   0.362357 0.561664 0.892887 -0.149453
C35   C     C_R   0.522999 0.516155 0.048164 -0.066506
C36   C     C_3   0.905306 0.403997 0.142433 -0.291474
C37   C     C_3   0.156576 0.712617 0.882667 -0.294981
C38   C     C_2   0.859099 0.374454 0.669991 0.977786
C39   C     C_2   0.136307 0.624769 0.327736 0.973697
C40   C     C_2   0.701920 0.545281 0.200690 1.050255
C41   C     C_2   0.324711 0.608242 0.796125 0.948519
C42   C     C_2   0.325556 0.826206 0.515779 0.973798
C43   C     C_2   0.652178 0.180106 0.450240 0.980613
C44   C     C_3   0.794046 0.779253 0.666667 -0.260707
C45   C     C_R   0.736125 0.504722 0.067125 0.430523
C46   C     C_3   0.182289 0.230011 0.343803 -0.287471
C47   C     C_3   0.792813 0.715158 0.413963 -0.150213
C48   C     C_3   0.235664 0.302304 0.613904 -0.235955
C49   C     C_R   0.277725 0.569729 0.932144 0.450825
C50   C     C_R   0.535921 0.810887 0.518217 -0.254589
C51   C     C_R   0.456478 0.192870 0.471112 -0.256897
C52   C     C_R   0.337212 0.040942 0.467963 -0.247904
H1    H     H_    0.928092 0.624672 0.338520 0.239736
H2    H     H_    0.740234 0.996511 0.526095 0.205902
H3    H     H_    0.908889 0.374926 0.079506 0.156588
H4    H     H_    0.851645 0.349390 0.168640 0.140330
H5    H     H_    0.999715 0.404337 0.196851 0.195596
H6    H     H_    0.215166 0.755114 0.852655 0.175656
H7    H     H_    0.061864 0.739709 0.841517 0.184645
H8    H     H_    0.183026 0.732584 0.955615 0.156214
H9    H     H_    0.760878 0.271684 0.713127 0.326775
H10   H     H_    0.240692 0.715773 0.280685 0.328433
H11   H     H_    0.760477 0.401213 0.257636 0.299220
H12   H     H_    0.073004 0.380392 0.666549 0.215850
H13   H     H_    0.192303 0.623707 0.665661 0.322242
H14   H     H_    0.257237 0.761123 0.603244 0.333229
H15   H     H_    0.830137 0.214538 0.491623 0.335165
H16   H     H_    0.725813 0.731595 0.682799 0.162530
H17   H     H_    0.814462 0.850919 0.704406 0.165795
H18   H     H_    0.878892 0.733078 0.692735 0.195981
H19   H     H_    0.153597 0.159709 0.304267 0.168279
H20   H     H_    0.240476 0.279917 0.318061 0.159150
H21   H     H_    0.099102 0.274578 0.330202 0.178571
H22   H     H_    0.864048 0.723955 0.485559 0.157975
H23   H     H_    0.543726 0.445408 0.223846 0.170976
H24   H     H_    0.712771 0.762359 0.403434 0.212418
H25   H     H_    0.826666 0.748804 0.362315 0.166063
H26   H     H_    0.319358 0.267017 0.616397 0.216429
H27   H     H_    0.157199 0.280474 0.549611 0.177624
H28   H     H_    0.221925 0.267109 0.675311 0.154121
H29   H     H_    0.442556 0.467056 0.777936 0.190125
H30   H     H_    0.192275 0.536554 0.188378 0.203404
H31   H     H_    0.808431 0.516603 0.805120 0.208238
H32   H     H_    0.878068 0.519193 0.972386 0.186745
H33   H     H_    0.129559 0.562586 0.021227 0.189104
H34   H     H_    0.250636 0.009676 0.462104 0.194870
N1    N     N_R   0.799120 0.480200 0.517090 -0.175880
N2    N     N_R   0.200880 0.519800 0.482910 -0.172958
O1    O     O_R   0.580150 0.341050 0.504560 -0.569273
O2    O     O_3   0.160646 0.604927 0.876856 -0.569461
O3    O     O_2   0.924229 0.393226 0.750089 -0.644157
O4    O     O_R   0.767503 0.300837 0.653789 -0.742246
O5    O     O_2   0.058218 0.619448 0.248520 -0.622814
O6    O     O_R   0.239352 0.684292 0.341240 -0.734444
O7    O     O_2   0.688929 0.634466 0.213756 -0.563582
O8    O     O_R   0.765815 0.474706 0.275778 -0.780149
O9    O     O_2   0.391044 0.670244 0.777130 -0.597377
O10   O     O_R   0.210789 0.584330 0.727985 -0.739965
O11   O     O_2   0.225921 0.828299 0.449849 -0.632345
O12   O     O_R   0.419850 0.658950 0.495440 -0.563830
O13   O     O_R   0.338380 0.782886 0.603080 -0.752622
O14   O     O_2   0.626034 0.224925 0.373159 -0.648449
O15   O     O_R   0.772860 0.177584 0.516244 -0.788129
O16   O     O_3   0.755831 0.802833 0.569960 -0.631777
O17   O     O_3   0.241567 0.203793 0.440496 -0.617349
O18   O     O_3   0.753586 0.612222 0.395874 -0.555194
O19   O     O_3   0.254327 0.409862 0.621856 -0.606649
O20   O     O_R   0.388090 0.353760 0.493600 -0.581785
O21   O     O_R   0.611910 0.646240 0.506400 -0.570371
O22   O     O_R   0.650890 0.490020 0.640860 -0.640456
O23   O     O_R   0.349110 0.509980 0.359140 -0.634751
O24   O     O_R   0.458830 0.502730 0.629890 -0.560228
O25   O     O_R   0.541170 0.497270 0.370110 -0.556658
O26   O     O_3   0.859404 0.505966 0.124571 -0.563702
Zn1   Zn    Zn3+2 0.628240 0.491510 0.507320 1.049216
Zn2   Zn    Zn3+2 0.371760 0.508490 0.492680 1.032216

loop_
_geom_bond_atom_site_label_1
_geom_bond_atom_site_label_2
_ccdc_geom_bond_type
C21   C26   A    
O1    Zn1   S    
C23   C45   A    
C29   C33   A    
C27   C29   A    
C14   C18   A    
C2    C7    A    
O12   Zn2   S    
C49   O2    S    
C36   O26   S    
C44   O16   S    
C16   O22   A    
C7    C8    A    
C3    O17   S    
C15   C19   A    
C48   H27   S    
C30   C35   A    
C15   O18   S    
C24   C26   A    
C47   H24   S    
C48   O19   S    
C20   C25   A    
C23   C40   S    
C46   O17   S    
C38   O4    S    
C18   C19   A    
C48   H26   S    
C39   O5    D    
C45   O26   S    
C9    C19   A    
C22   C25   A    
C44   H18   S    
O23   Zn2   S    
C24   H33   S    
C8    C52   A    
C46   H20   S    
C37   H6    S    
H9    O4    S    
C5    C43   S    
C26   H30   S    
H14   O13   S    
C34   C41   S    
C40   O8    S    
C17   O23   A    
C12   O21   A    
C22   C31   A    
C17   O25   A    
C27   H29   S    
C36   H5    S    
C2    H2    S    
C5    C7    A    
C3    C51   A    
C6    C8    A    
H15   O15   S    
C38   O3    D    
C17   C21   S    
C4    C50   A    
C22   H32   S    
N2    Zn2   S    
C2    C4    A    
C24   C32   A    
C39   O6    S    
C36   H4    S    
C1    C51   S    
C11   N2    A    
C16   C20   S    
C47   O18   S    
C13   N1    A    
C33   C34   A    
C13   C38   S    
C44   H17   S    
C6    C50   A    
C11   C39   S    
C9    C11   A    
C46   H19   S    
C37   H7    S    
C37   O2    S    
C14   O19   S    
C21   C28   A    
C23   C35   A    
H10   O6    S    
C31   C45   A    
C41   O9    D    
C44   H16   S    
C9    H1    S    
C47   H25   S    
C40   O7    D    
C42   O13   S    
O24   Zn2   S    
C16   O24   A    
C15   N1    A    
C34   C49   A    
C1    O1    A    
N1    Zn1   S    
C10   H12   S    
C47   H22   S    
C10   C13   A    
H13   O10   S    
C12   C50   S    
C3    C52   A    
C20   C27   A    
O20   Zn2   S    
C52   H34   S    
C43   O14   D    
C14   N2    A    
C29   C31   A    
C36   H3    S    
C42   O11   D    
C30   C32   A    
C48   H28   S    
C10   C18   A    
H11   O8    S    
C28   C30   A    
C33   C35   A    
C4    O16   S    
C43   O15   S    
C32   C49   A    
C12   O12   A    
C37   H8    S    
O21   Zn1   S    
C1    O20   A    
C6    C42   S    
C25   H31   S    
C41   O10   S    
C5    C51   A    
C28   H23   S    
O22   Zn1   S    
C46   H21   S    
O25   Zn1   S    
