data_mof_unit_36928.cif
_audit_creation_date              2012-12-10T19:09:26-0500
_audit_creation_method            fapswitch 2.2
_symmetry_space_group_name_H-M    P1
_symmetry_Int_Tables_number       1
_space_group_crystal_system       triclinic
_cell_length_a                    15.360776
_cell_length_b                    15.170617
_cell_length_c                    9.831377
_cell_angle_alpha                 90.013908
_cell_angle_beta                  89.661289
_cell_angle_gamma                 89.969957
_cell_volume                      2290.98944776

loop_
_atom_site_label
_atom_site_type_symbol
_atom_type_description
_atom_site_fract_x
_atom_site_fract_y
_atom_site_fract_z
_atom_type_partial_charge
C1    C     C_R   0.121678 0.379476 0.499907 1.159001
C2    C     C_R   0.122802 0.619458 0.499765 1.166070
C3    C     C_R   0.621678 0.879476 0.499907 1.158999
C4    C     C_R   0.622802 0.119458 0.499765 1.166072
C5    C     C_3   0.910400 0.519672 0.082111 0.911366
C6    C     C_3   0.909410 0.514153 0.921270 0.866141
C7    C     C_3   0.410399 0.019672 0.082111 0.911366
C8    C     C_3   0.409410 0.014153 0.921270 0.866144
C9    C     C_R   0.881175 0.376982 0.500474 1.133731
C10   C     C_R   0.878116 0.620077 0.500028 1.154359
C11   C     C_R   0.381175 0.876982 0.500474 1.133729
C12   C     C_R   0.378115 0.120077 0.500028 1.154360
C13   C     C_3   0.822448 0.249443 0.632409 0.935756
C14   C     C_3   0.825836 0.247521 0.374274 0.908755
C15   C     C_3   0.843018 0.769721 0.416714 0.907314
C16   C     C_3   0.787854 0.715974 0.648277 0.943211
C17   C     C_3   0.322446 0.749446 0.632412 0.935756
C18   C     C_3   0.325838 0.747519 0.374277 0.908749
C19   C     C_3   0.343017 0.269720 0.416711 0.907312
C20   C     C_3   0.287854 0.215975 0.648277 0.943204
C21   C     C_3   0.245022 0.683097 0.638999 0.524728
C22   C     C_3   0.257380 0.672357 0.375529 0.522293
C23   C     C_3   0.274214 0.345883 0.423109 0.514068
C24   C     C_3   0.215111 0.286158 0.651448 0.497218
C25   C     C_3   0.745023 0.183096 0.638998 0.524728
C26   C     C_3   0.757379 0.172358 0.375527 0.522294
C27   C     C_3   0.774212 0.845881 0.423105 0.514070
C28   C     C_3   0.715112 0.786159 0.651449 0.497220
C29   C     C_3   0.722784 0.352641 0.498262 0.948318
C30   C     C_3   0.725557 0.651207 0.432355 0.970978
C31   C     C_3   0.222784 0.852641 0.498257 0.948315
C32   C     C_3   0.225556 0.151207 0.432356 0.970981
C33   C     C_3   0.814172 0.307717 0.501699 -0.675894
C34   C     C_3   0.809800 0.688233 0.499238 -0.696680
C35   C     C_3   0.314172 0.807717 0.501699 -0.675890
C36   C     C_3   0.309800 0.188232 0.499238 -0.696680
C37   C     C_3   0.192623 0.687303 0.499827 -0.399634
C38   C     C_3   0.190324 0.310656 0.499975 -0.378044
C39   C     C_3   0.692623 0.187303 0.499827 -0.399632
C40   C     C_3   0.690324 0.810655 0.499975 -0.378048
C41   C     C_3   0.149419 0.781461 0.486244 0.506828
C42   C     C_3   0.154694 0.225148 0.426059 0.481886
C43   C     C_3   0.649419 0.281461 0.486247 0.506829
C44   C     C_3   0.654693 0.725146 0.426063 0.481892
C45   C     C_3   0.025821 0.412236 0.079999 0.631475
C46   C     C_3   0.030844 0.414507 0.918053 0.753331
C47   C     C_3   0.055290 0.571739 0.919724 0.636886
C48   C     C_3   0.059846 0.567311 0.081604 0.751302
C49   C     C_3   0.525822 0.912237 0.079999 0.631475
C50   C     C_3   0.530845 0.914507 0.918053 0.753330
C51   C     C_3   0.555290 0.071739 0.919724 0.636887
C52   C     C_3   0.559845 0.067311 0.081604 0.751304
N1    N     N_3   0.998760 0.500000 0.138610 -0.371102
N2    N     N_3   0.998760 0.500000 0.861390 -0.382947
N3    N     N_3   0.498760 0.000000 0.138610 -0.371103
N4    N     N_3   0.498760 0.000000 0.861390 -0.382944
O1    O     O_R   0.092530 0.407440 0.616040 -0.516471
O2    O     O_R   0.092530 0.407440 0.383960 -0.554868
O3    O     O_R   0.092530 0.592560 0.383960 -0.521173
O4    O     O_R   0.092530 0.592560 0.616040 -0.582319
O5    O     O_R   0.592530 0.907440 0.616040 -0.516471
O6    O     O_R   0.592530 0.907440 0.383960 -0.554868
O7    O     O_R   0.592530 0.092560 0.383960 -0.521172
O8    O     O_R   0.592530 0.092560 0.616040 -0.582320
O9    O     O_R   0.907330 0.407420 0.616040 -0.500962
O10   O     O_R   0.907330 0.407420 0.383960 -0.553653
O11   O     O_R   0.907330 0.592580 0.383960 -0.499738
O12   O     O_R   0.907330 0.592580 0.616040 -0.561564
O13   O     O_R   0.407330 0.907420 0.616040 -0.500962
O14   O     O_R   0.407330 0.907420 0.383960 -0.553653
O15   O     O_R   0.407330 0.092580 0.383960 -0.499739
O16   O     O_R   0.407330 0.092580 0.616040 -0.561561
Zn1   Zn    Zn3+2 0.999890 0.500000 0.654960 1.218237
Zn2   Zn    Zn3+2 0.999890 0.500000 0.345040 1.224428
Zn3   Zn    Zn3+2 0.499890 0.000000 0.654960 1.218238
Zn4   Zn    Zn3+2 0.499890 0.000000 0.345040 1.224427
F1    F     F_    0.820475 0.301342 0.748581 -0.474491
F2    F     F_    0.815547 0.297450 0.256934 -0.496514
F3    F     F_    0.857215 0.745881 0.282059 -0.472222
F4    F     F_    0.759961 0.642660 0.720834 -0.471197
F5    F     F_    0.320469 0.801347 0.748581 -0.474488
F6    F     F_    0.315552 0.797445 0.256935 -0.496518
F7    F     F_    0.357209 0.245880 0.282055 -0.472218
F8    F     F_    0.259962 0.142660 0.720836 -0.471195
F9    F     F_    0.902639 0.207261 0.632327 -0.566653
F10   F     F_    0.909387 0.212976 0.370408 -0.636234
F11   F     F_    0.922976 0.796499 0.465992 -0.634821
F12   F     F_    0.862479 0.748069 0.710583 -0.564296
F13   F     F_    0.402638 0.707265 0.632336 -0.566651
F14   F     F_    0.409388 0.712973 0.370417 -0.636235
F15   F     F_    0.422978 0.296496 0.465983 -0.634820
F16   F     F_    0.362479 0.248071 0.710580 -0.564305
O17   O     O_3   0.272151 0.595800 0.668160 -0.593997
H1    H     H_    0.326655 0.581401 0.619301 0.420495
O18   O     O_3   0.297470 0.589221 0.387853 -0.693333
H2    H     H_    0.333868 0.578326 0.305782 0.398764
O19   O     O_3   0.306334 0.422439 0.488096 -0.675279
H3    H     H_    0.347654 0.406929 0.561053 0.415948
O20   O     O_3   0.243931 0.362126 0.721168 -0.615425
H4    H     H_    0.260163 0.344952 0.815158 0.435488
O21   O     O_3   0.772151 0.095798 0.668158 -0.594002
H5    H     H_    0.826654 0.081399 0.619299 0.420494
O22   O     O_3   0.797470 0.089223 0.387850 -0.693331
H6    H     H_    0.833867 0.078328 0.305778 0.398767
O23   O     O_3   0.806330 0.922441 0.488085 -0.675284
H7    H     H_    0.847649 0.906935 0.561045 0.415950
O24   O     O_3   0.743934 0.862128 0.721165 -0.615435
H8    H     H_    0.760165 0.844955 0.815156 0.435489
O25   O     O_3   0.189298 0.709543 0.746011 -0.553180
H9    H     H_    0.219499 0.697816 0.833286 0.441983
O26   O     O_3   0.211530 0.674584 0.252049 -0.594499
H10   H     H_    0.253019 0.662721 0.176277 0.405818
O27   O     O_3   0.252189 0.370402 0.289459 -0.509869
H11   H     H_    0.302890 0.402042 0.249613 0.415559
O28   O     O_3   0.140774 0.252350 0.718973 -0.585427
H12   H     H_    0.155657 0.242493 0.815944 0.408507
O29   O     O_3   0.689300 0.209543 0.746011 -0.553184
H13   H     H_    0.719502 0.197814 0.833285 0.441984
O30   O     O_3   0.711528 0.174584 0.252048 -0.594500
H14   H     H_    0.753018 0.162723 0.176275 0.405817
O31   O     O_3   0.752187 0.870394 0.289453 -0.509869
H15   H     H_    0.802885 0.902037 0.249605 0.415565
O32   O     O_3   0.640775 0.752353 0.718977 -0.585425
H16   H     H_    0.655660 0.742496 0.815948 0.408507
F17   F     F_    0.711291 0.402145 0.615885 -0.494537
F18   F     F_    0.718641 0.410881 0.389467 -0.509007
F19   F     F_    0.743622 0.619945 0.302509 -0.482583
F20   F     F_    0.695212 0.579751 0.506855 -0.525123
F21   F     F_    0.211290 0.902148 0.615876 -0.494540
F22   F     F_    0.218643 0.910878 0.389458 -0.509004
F23   F     F_    0.243621 0.119940 0.302512 -0.482584
F24   F     F_    0.195209 0.079753 0.506860 -0.525120
O33   O     O_3   0.086330 0.792810 0.590030 -0.605206
H17   H     H_    0.061741 0.853105 0.581889 0.417995
O34   O     O_3   0.107544 0.787888 0.359103 -0.598662
H18   H     H_    0.075825 0.844856 0.355678 0.414811
O35   O     O_3   0.135950 0.245150 0.289124 -0.599587
H19   H     H_    0.105804 0.193885 0.247950 0.393676
O36   O     O_3   0.077222 0.197495 0.491411 -0.598402
H20   H     H_    0.055917 0.143614 0.444968 0.413763
O37   O     O_3   0.586330 0.292809 0.590032 -0.605210
H21   H     H_    0.561740 0.353104 0.581892 0.417992
O38   O     O_3   0.607545 0.287890 0.359105 -0.598662
H22   H     H_    0.575826 0.344857 0.355681 0.414812
O39   O     O_3   0.635944 0.745148 0.289129 -0.599593
H23   H     H_    0.605800 0.693881 0.247957 0.393678
O40   O     O_3   0.577224 0.697492 0.491420 -0.598400
H24   H     H_    0.555917 0.643611 0.444979 0.413764
O41   O     O_3   0.967349 0.345953 0.121458 -0.632829
H25   H     H_    0.988766 0.321249 0.208242 0.429192
O42   O     O_3   0.983597 0.344480 0.860739 -0.563193
H26   H     H_    0.011664 0.288828 0.890277 0.404668
O43   O     O_3   0.025039 0.656206 0.882642 -0.622912
H27   H     H_    0.010675 0.656203 0.785220 0.438464
O44   O     O_3   0.040457 0.650053 0.139433 -0.561611
H28   H     H_    0.084391 0.692613 0.105149 0.429930
O45   O     O_3   0.467349 0.845952 0.121457 -0.632827
H29   H     H_    0.488766 0.821249 0.208242 0.429193
O46   O     O_3   0.483598 0.844480 0.860738 -0.563193
H30   H     H_    0.511665 0.788828 0.890277 0.404671
O47   O     O_3   0.525037 0.156206 0.882642 -0.622916
H31   H     H_    0.510678 0.156205 0.785220 0.438466
O48   O     O_3   0.540456 0.150053 0.139433 -0.561610
H32   H     H_    0.584390 0.192614 0.105148 0.429929
F25   F     F_    0.107997 0.389510 0.126613 -0.483388
F26   F     F_    0.116790 0.403312 0.880572 -0.530673
F27   F     F_    0.138922 0.562658 0.868680 -0.489086
F28   F     F_    0.144137 0.545531 0.118774 -0.521767
F29   F     F_    0.607997 0.889510 0.126613 -0.483388
F30   F     F_    0.616791 0.903313 0.880572 -0.530673
F31   F     F_    0.638922 0.062660 0.868680 -0.489090
F32   F     F_    0.644136 0.045531 0.118773 -0.521769
F33   F     F_    0.849130 0.462342 0.135966 -0.436702
F34   F     F_    0.853366 0.447957 0.880720 -0.434461
F35   F     F_    0.874230 0.591368 0.873186 -0.482439
F36   F     F_    0.883726 0.603134 0.121222 -0.448083
F37   F     F_    0.349131 0.962341 0.135966 -0.436702
F38   F     F_    0.353366 0.947957 0.880720 -0.434462
F39   F     F_    0.374229 0.091367 0.873186 -0.482436
F40   F     F_    0.383726 0.103133 0.121222 -0.448083

loop_
_geom_bond_atom_site_label_1
_geom_bond_atom_site_label_2
_ccdc_geom_bond_type
C16   C28   S    
O21   H5    S    
C29   F17   S    
C24   O20   S    
C22   O18   S    
C43   O38   S    
O48   H32   S    
C2    C37   S    
C7    N3    S    
C30   C44   S    
C52   F32   S    
C14   C33   S    
C41   O33   S    
O19   H3    S    
C27   O31   S    
C28   O32   S    
O32   H16   S    
C45   C46   S    
O5    Zn3   S    
C20   F16   S    
C4    O7    A    
O45   H29   S    
C32   C36   S    
C5    N1    S    
C38   C42   S    
C31   F22   S    
C19   C36   S    
O46   H30   S    
C5    C6    S    
C2    O4    A    
C26   C39   S    
O7    Zn4   S    
C27   O23   S    
C28   O24   S    
O38   H22   S    
O10   Zn2   S    
C29   C33   S    
O4    Zn1   S    
C44   O40   S    
O9    Zn1   S    
C7    F37   S    
C51   N4    S    
O1    Zn1   S    
C9    O10   A    
O40   H24   S    
C16   C34   S    
O37   H21   S    
C15   F3    S    
C20   C24   S    
C24   C38   S    
O24   H8    S    
O13   Zn3   S    
C12   C36   S    
C31   C41   S    
C18   C35   S    
C15   C34   S    
C45   O41   S    
C52   N3    S    
C46   O42   S    
C12   O16   A    
O35   H19   S    
C45   N1    S    
N4    Zn3   S    
C29   F18   S    
C29   C43   S    
C42   O35   S    
C9    C33   S    
C8    N4    S    
C49   O45   S    
C1    O2    A    
C6    N2    S    
O16   Zn3   S    
C19   F7    S    
O39   H23   S    
O44   H28   S    
C30   F20   S    
C3    O5    A    
C48   N1    S    
C13   F1    S    
C11   O14   A    
C30   C34   S    
C51   C52   S    
C18   F14   S    
O34   H18   S    
C17   F13   S    
C26   O30   S    
C14   F10   S    
C10   C34   S    
C2    O3    A    
C39   C43   S    
C47   O43   S    
O12   Zn1   S    
C10   O11   A    
C22   C37   S    
C50   N4    S    
C16   F4    S    
C19   C23   S    
C13   C33   S    
O6    Zn4   S    
C1    O1    A    
C26   O22   S    
C23   O27   S    
N2    Zn1   S    
C47   F27   S    
C15   C27   S    
C47   C48   S    
C48   F28   S    
C4    C39   S    
C27   C40   S    
O42   H26   S    
C49   N3    S    
C46   N2    S    
C9    O9    A    
C44   O39   S    
C50   F30   S    
O11   Zn2   S    
C14   C26   S    
O30   H14   S    
O3    Zn2   S    
O31   H15   S    
C1    C38   S    
C47   N2    S    
N3    Zn4   S    
C23   O19   S    
C48   O44   S    
C3    C40   S    
C49   C50   S    
C20   F8    S    
O14   Zn4   S    
O33   H17   S    
C5    F36   S    
C31   C35   S    
C43   O37   S    
C41   O34   S    
O2    Zn2   S    
C15   F11   S    
O27   H11   S    
O23   H7    S    
C3    O6    A    
C30   F19   S    
C32   C42   S    
C46   F26   S    
O26   H10   S    
C42   O36   S    
C18   C22   S    
C5    F33   S    
C12   O15   A    
C19   F15   S    
C13   C25   S    
C25   O29   S    
C21   O25   S    
O36   H20   S    
C11   O13   A    
C10   O12   A    
C50   O46   S    
C23   C38   S    
C6    F34   S    
O17   H1    S    
C4    O8    A    
O29   H13   S    
O20   H4    S    
C51   F31   S    
O18   H2    S    
C31   F21   S    
O47   H31   S    
O41   H25   S    
C25   C39   S    
C49   F29   S    
C8    F39   S    
C25   O21   S    
O15   Zn4   S    
C21   O17   S    
C11   C35   S    
C18   F6    S    
O8    Zn3   S    
C7    F40   S    
C51   O47   S    
C17   F5    S    
C14   F2    S    
C37   C41   S    
C17   C21   S    
C7    C8    S    
C52   O48   S    
C20   C36   S    
C8    F38   S    
C40   C44   S    
C21   C37   S    
C24   O28   S    
C22   O26   S    
C6    F35   S    
C13   F9    S    
O22   H6    S    
C16   F12   S    
C28   C40   S    
C32   F24   S    
C17   C35   S    
O43   H27   S    
O25   H9    S    
C45   F25   S    
C32   F23   S    
O28   H12   S    
N1    Zn2   S    
