data_mof_unit_66086.cif
_audit_creation_date              2012-12-10T17:16:14-0500
_audit_creation_method            fapswitch 2.2
_symmetry_space_group_name_H-M    P1
_symmetry_Int_Tables_number       1
_space_group_crystal_system       triclinic
_cell_length_a                    19.365598
_cell_length_b                    13.096422
_cell_length_c                    11.759835
_cell_angle_alpha                 99.776896
_cell_angle_beta                  92.913689
_cell_angle_gamma                 93.564527
_cell_volume                      2927.80730069

loop_
_atom_site_label
_atom_site_type_symbol
_atom_type_description
_atom_site_fract_x
_atom_site_fract_y
_atom_site_fract_z
_atom_type_partial_charge
C1    C     C_R   0.501142 0.299237 0.477979 0.891577
C2    C     C_R   0.498857 0.700763 0.522021 0.891596
C3    C     C_R   0.496669 0.814532 0.536104 -0.371819
C4    C     C_R   0.503329 0.185468 0.463897 -0.371813
C5    C     C_R   0.495727 0.013502 0.345056 0.732838
C6    C     C_R   0.504272 0.986498 0.654946 0.732841
C7    C     C_R   0.499699 0.120969 0.353397 0.126070
C8    C     C_R   0.500303 0.879031 0.646605 0.126070
C9    C     C_R   0.508390 0.139671 0.563683 0.685854
C10   C     C_R   0.491603 0.860329 0.436319 0.685824
C11   C     C_R   0.503504 0.031794 0.555037 -0.326541
C12   C     C_R   0.496491 0.968206 0.444965 -0.326533
C13   C     C_R   0.431157 0.402517 0.027154 0.612251
C14   C     C_R   0.568849 0.597472 0.972845 0.612221
C15   C     C_R   0.438632 0.412170 0.147182 0.712195
C16   C     C_R   0.561374 0.587820 0.852817 0.712173
C17   C     C_R   0.529688 0.543944 0.155761 0.496817
C18   C     C_R   0.470310 0.456058 0.844239 0.496891
C19   C     C_R   0.525126 0.536103 0.032818 -0.361594
C20   C     C_R   0.474875 0.463892 0.967181 -0.361580
C21   C     C_R   0.367608 0.505405 0.501065 0.908683
C22   C     C_R   0.632390 0.494581 0.498934 0.908738
C23   C     C_R   0.255738 0.494398 0.597424 0.548268
C24   C     C_R   0.744278 0.505644 0.402642 0.548280
C25   C     C_R   0.183986 0.494508 0.596237 0.580803
C26   C     C_R   0.816028 0.505484 0.403847 0.580808
C27   C     C_R   0.145939 0.517413 0.500576 -0.315104
C28   C     C_R   0.854045 0.482438 0.499463 -0.315080
C29   C     C_R   0.180841 0.546795 0.407638 0.211419
C30   C     C_R   0.819115 0.452972 0.592329 0.211456
C31   C     C_R   0.253711 0.547516 0.408639 0.200150
C32   C     C_R   0.746247 0.452287 0.591301 0.200069
C33   C     C_R   0.291617 0.515900 0.502067 -0.390161
C34   C     C_R   0.708374 0.484044 0.497931 -0.390116
C35   C     C_R   0.930053 0.489981 0.500559 0.536610
C36   C     C_R   0.069930 0.509822 0.499510 0.536589
Cu1   Cu    Cu3+1 0.505120 0.507730 0.615930 1.139332
Cu2   Cu    Cu3+1 0.494880 0.492270 0.384070 1.139308
N1    N     N_R   0.031381 0.456601 0.406166 -0.145122
N2    N     N_R   0.968602 0.543192 0.593908 -0.145118
N3    N     N_R   0.962608 0.447324 0.406420 -0.112779
N4    N     N_R   0.037375 0.552472 0.593653 -0.112721
N5    N     N_R   0.512830 0.519350 0.790130 -0.336868
N6    N     N_R   0.487170 0.480650 0.209870 -0.336882
O1    O     O_R   0.503640 0.354460 0.582000 -0.518159
O2    O     O_R   0.496360 0.645540 0.418000 -0.518161
O3    O     O_R   0.494980 0.341410 0.386200 -0.538916
O4    O     O_R   0.505020 0.658590 0.613800 -0.538906
O5    O     O_R   0.404470 0.506520 0.597930 -0.535775
O6    O     O_R   0.595530 0.493480 0.402070 -0.535815
O7    O     O_R   0.395820 0.493460 0.402130 -0.521044
O8    O     O_R   0.604180 0.506540 0.597870 -0.521033
F1    F     F_    0.289568 0.472157 0.692716 -0.543085
F2    F     F_    0.710475 0.528035 0.307408 -0.543076
F3    F     F_    0.379919 0.333415 0.973337 -0.511899
F4    F     F_    0.620096 0.666560 0.026659 -0.511902
F5    F     F_    0.151286 0.468447 0.687874 -0.530273
F6    F     F_    0.848756 0.531633 0.312280 -0.530293
Br1   Br    Br    0.129371 0.592303 0.282468 -0.199573
Br2   Br    Br    0.870549 0.407317 0.717437 -0.199673
Br3   Br    Br    0.299430 0.600826 0.285839 -0.247144
Br4   Br    Br    0.700479 0.398833 0.713963 -0.247264
F7    F     F_    0.480607 0.799950 0.330122 -0.537952
F8    F     F_    0.519378 0.200050 0.669882 -0.537925
Br5   Br    Br    0.496788 0.829433 0.791888 -0.181999
Br6   Br    Br    0.503226 0.170567 0.208116 -0.182028
F9    F     F_    0.492013 0.953665 0.238139 -0.500230
F10   F     F_    0.507988 0.046335 0.761864 -0.500225
Br7   Br    Br    0.405859 0.352727 0.752258 -0.104172
Br8   Br    Br    0.594128 0.647292 0.247740 -0.104073
F11   F     F_    0.604143 0.646950 0.798403 -0.552658
F12   F     F_    0.395868 0.353031 0.201595 -0.552649

loop_
_geom_bond_atom_site_label_1
_geom_bond_atom_site_label_2
_ccdc_geom_bond_type
Cu1   N5    S    
C14   F4    S    
C11   C12   A    
C31   C33   A    
Cu2   N6    S    
Cu1   Cu2   S    
Cu2   O6    S    
Cu1   O1    S    
C27   C36   S    
C27   C29   A    
C9    F8    S    
Cu1   O5    S    
C31   Br3   S    
C36   N4    A    
C19   C20   A    
C5    F9    S    
C22   O6    A    
C1    C4    S    
C2    O4    A    
C18   Br7   S    
C6    F10   S    
C35   N2    A    
C17   N6    A    
C32   Br4   S    
C8    Br5   S    
N1    N3    A    
C3    C10   A    
C18   N5    A    
C2    O2    A    
C7    Br6   S    
C30   C32   A    
C15   F12   S    
C9    C11   A    
C16   N5    A    
C1    O1    A    
Cu2   O3    S    
C16   F11   S    
C25   F5    S    
C4    C7    A    
C22   C34   S    
C21   O5    A    
C10   C12   A    
C23   F1    S    
C28   C30   A    
C17   C19   A    
C24   C26   A    
C15   N6    A    
C2    C3    S    
C18   C20   A    
C13   C15   A    
C17   Br8   S    
C35   N3    A    
C14   C16   A    
Cu2   O2    S    
C25   C27   A    
C24   F2    S    
C21   O7    A    
C23   C25   A    
C21   C33   S    
C5    C12   A    
C22   O8    A    
C3    C8    A    
C6    C11   A    
C5    C7    A    
Cu1   O8    S    
C1    O3    A    
C6    C8    A    
Cu2   O7    S    
Cu1   O4    S    
C13   C20   A    
C23   C33   A    
C4    C9    A    
C29   C31   A    
C26   C28   A    
C14   C19   A    
C26   F6    S    
C36   N1    A    
C24   C34   A    
C10   F7    S    
C29   Br1   S    
C28   C35   S    
C32   C34   A    
N2    N4    A    
C13   F3    S    
C30   Br2   S    
