data_mof_unit_35037.cif
_audit_creation_date              2012-12-10T19:46:54-0500
_audit_creation_method            fapswitch 2.2
_symmetry_space_group_name_H-M    P1
_symmetry_Int_Tables_number       1
_space_group_crystal_system       triclinic
_cell_length_a                    10.947771
_cell_length_b                    10.956054
_cell_length_c                    13.114908
_cell_angle_alpha                 91.116394
_cell_angle_beta                  90.665186
_cell_angle_gamma                 91.127497
_cell_volume                      1572.34309628

loop_
_atom_site_label
_atom_site_type_symbol
_atom_type_description
_atom_site_fract_x
_atom_site_fract_y
_atom_site_fract_z
_atom_type_partial_charge
C1    C     C_R   0.491386 0.259215 0.498714 0.833076
C2    C     C_R   0.511695 0.740226 0.501503 0.858271
C3    C     C_R   0.873485 0.509750 0.504472 -0.074362
C4    C     C_R   0.127368 0.506205 0.498075 -0.090729
C5    C     C_R   0.940154 0.458223 0.585340 -0.003544
C6    C     C_R   0.061646 0.563161 0.418995 0.009902
C7    C     C_R   0.377590 0.173823 0.156810 -0.186100
C8    C     C_R   0.626128 0.788618 0.837506 -0.161831
C9    C     C_R   0.383150 0.133993 0.257561 0.391431
C10   C     C_R   0.622604 0.828890 0.736803 0.409510
C11   C     C_R   0.497195 0.110720 0.303095 0.068947
C12   C     C_R   0.518112 0.888889 0.699973 0.054260
C13   C     C_R   0.604506 0.129575 0.247438 -0.205119
C14   C     C_R   0.419668 0.907515 0.766186 -0.228149
C15   C     C_R   0.598219 0.170682 0.147359 -0.134886
C16   C     C_R   0.424290 0.866829 0.866356 -0.144490
C17   C     C_R   0.484829 0.191719 0.101801 -0.175577
C18   C     C_R   0.527530 0.807818 0.902070 -0.180636
C19   C     C_R   0.516887 0.931877 0.410418 -0.291508
C20   C     C_R   0.500339 0.067900 0.591071 -0.263175
C21   C     C_R   0.516817 0.873043 0.504195 -0.063134
C22   C     C_R   0.495837 0.126265 0.497133 -0.069090
C23   C     C_R   0.259381 0.498044 0.499020 0.822947
C24   C     C_R   0.740664 0.505586 0.501221 0.860048
C25   C     C_R   0.512888 0.942146 0.596440 0.066556
C26   C     C_R   0.504458 0.057342 0.405573 0.049300
C27   C     C_1   0.499869 0.500130 0.173560 0.156010
C28   C     C_1   0.499791 0.499741 0.826431 0.159376
C29   C     C_1   0.499720 0.500065 0.050678 -0.102426
C30   C     C_1   0.499692 0.499754 0.949302 -0.108540
C31   C     C_R   0.256766 0.779470 0.261281 -0.106827
C32   C     C_R   0.758095 0.233860 0.743085 -0.133905
C33   C     C_R   0.195558 0.730284 0.345168 0.119347
C34   C     C_R   0.820047 0.284716 0.660240 0.116525
C35   C     C_R   0.122030 0.622090 0.330728 0.072773
C36   C     C_R   0.881080 0.399395 0.673499 0.070796
C37   C     C_R   0.106758 0.570700 0.230364 0.118105
C38   C     C_R   0.885695 0.457105 0.771550 0.122977
C39   C     C_R   0.171931 0.622029 0.149704 -0.169090
C40   C     C_R   0.824417 0.402349 0.852812 -0.170266
C41   C     C_R   0.246306 0.724940 0.165070 -0.184991
C42   C     C_R   0.760291 0.292295 0.838332 -0.185007
C43   C     C_R   0.934634 0.565084 0.424299 -0.252550
C44   C     C_R   0.066242 0.455565 0.580167 -0.226657
Cu1   Cu    Cu3+1 0.499990 0.499990 0.592680 0.995994
Cu2   Cu    Cu3+1 0.500010 0.500010 0.407320 0.986121
H1    H     H_    0.295458 0.763340 0.101690 0.138310
H2    H     H_    0.712352 0.251804 0.901426 0.137837
H3    H     H_    0.692802 0.111293 0.281101 0.137599
H4    H     H_    0.339709 0.955242 0.740562 0.145885
H5    H     H_    0.681201 0.184916 0.104730 0.135472
H6    H     H_    0.348102 0.882025 0.916609 0.143679
H7    H     H_    0.522589 0.879369 0.339725 0.160506
H8    H     H_    0.495670 0.120996 0.661523 0.155763
H9    H     H_    0.314453 0.860239 0.270127 0.162514
H10   H     H_    0.707469 0.148416 0.733989 0.142996
H11   H     H_    0.165004 0.582175 0.073894 0.141562
H12   H     H_    0.825896 0.445594 0.927833 0.130951
H13   H     H_    0.882950 0.611425 0.366167 0.144468
H14   H     H_    0.117006 0.410550 0.639586 0.147939
H15   H     H_    0.480042 0.221947 0.023801 0.147264
H16   H     H_    0.531204 0.776998 0.979937 0.147355
H17   H     H_    0.290242 0.189756 0.120552 0.149950
H18   H     H_    0.705670 0.742644 0.866151 0.144327
N1    N     N_1   0.500030 0.500030 0.268070 -0.135698
N2    N     N_1   0.499970 0.499970 0.731930 -0.130573
O1    O     O_R   0.499980 0.319630 0.578260 -0.594351
O2    O     O_R   0.500020 0.680370 0.421740 -0.596133
O3    O     O_R   0.500000 0.319650 0.421740 -0.565380
O4    O     O_R   0.500000 0.680350 0.578260 -0.563376
O5    O     O_R   0.319630 0.500000 0.578260 -0.589299
O6    O     O_R   0.680370 0.500000 0.421740 -0.596250
O7    O     O_R   0.319650 0.500020 0.421740 -0.569521
O8    O     O_R   0.680350 0.499980 0.578260 -0.549307
C45   C     C_3   0.216078 0.793049 0.448471 -0.405627
C46   C     C_3   0.101649 0.849175 0.493011 -0.328212
C47   C     C_3   0.127755 0.900040 0.600464 -0.829495
H19   H     H_    0.173510 0.830961 0.647431 0.247566
H20   H     H_    0.187208 0.983178 0.597076 0.257654
H21   H     H_    0.041065 0.923109 0.638420 0.263096
H22   H     H_    0.072855 0.924167 0.443066 0.259819
H23   H     H_    0.026498 0.780703 0.497484 0.242060
H24   H     H_    0.255613 0.729199 0.503115 0.190489
H25   H     H_    0.283461 0.868930 0.441886 0.232333
C48   C     C_3   0.814055 0.217844 0.557886 -0.442922
C49   C     C_3   0.873112 0.092998 0.560854 -0.323189
C50   C     C_3   0.843265 0.019676 0.463250 -0.800130
H26   H     H_    0.744832 0.022992 0.445134 0.263743
H27   H     H_    0.895537 0.056721 0.398347 0.245036
H28   H     H_    0.864704 0.922377 0.473363 0.266317
H29   H     H_    0.973608 0.106159 0.568853 0.230914
H30   H     H_    0.839462 0.041030 0.626830 0.261498
H31   H     H_    0.717386 0.206800 0.536057 0.202130
H32   H     H_    0.857927 0.268984 0.495745 0.201398
C51   C     C_3   0.018595 0.465309 0.204534 -0.466762
C52   C     C_3   0.062969 0.342798 0.243234 -0.251897
C53   C     C_3   0.969830 0.240892 0.217241 -0.838707
H33   H     H_    0.881709 0.259386 0.255206 0.244288
H34   H     H_    0.954396 0.233539 0.133456 0.242182
H35   H     H_    0.003788 0.152301 0.244183 0.282876
H36   H     H_    0.151301 0.321742 0.206903 0.235826
H37   H     H_    0.077313 0.346158 0.327035 0.249259
H38   H     H_    0.926483 0.484560 0.233979 0.206114
H39   H     H_    0.005911 0.456262 0.120386 0.184006
C54   C     C_3   0.955794 0.575783 0.792743 -0.375153
C55   C     C_3   0.075032 0.551632 0.850923 -0.377241
C56   C     C_3   0.154212 0.667250 0.863030 -0.832757
H40   H     H_    0.181090 0.700815 0.787143 0.260920
H41   H     H_    0.104095 0.739450 0.904773 0.253907
H42   H     H_    0.238802 0.646818 0.906440 0.240081
H43   H     H_    0.053290 0.516315 0.927523 0.204598
H44   H     H_    0.128304 0.481339 0.809810 0.223620
H45   H     H_    0.976488 0.624633 0.721453 0.244070
H46   H     H_    0.898534 0.637998 0.838953 0.201724
Cl1   Cl    Cl    0.246677 0.111051 0.324742 -0.763314
Cl2   Cl    Cl    0.751100 0.803563 0.660393 -0.756296

loop_
_geom_bond_atom_site_label_1
_geom_bond_atom_site_label_2
_ccdc_geom_bond_type
C50   H26   S    
C52   H37   S    
C27   C29   S    
C51   C52   S    
C24   O8    A    
C53   H33   S    
C39   C41   A    
C55   H44   S    
C47   H19   S    
C3    C43   A    
C54   H45   S    
C35   C37   A    
C2    O2    A    
C49   H29   S    
C48   C49   S    
C33   C35   A    
C45   H25   S    
Cu1   O5    S    
C20   C25   A    
C39   H11   S    
C5    C36   S    
C6    C35   S    
C37   C51   S    
C15   C17   A    
C19   C26   A    
Cu2   O3    S    
C17   H15   S    
C48   H31   S    
C33   C45   S    
C7    C17   A    
Cu1   O1    S    
C56   H40   S    
C31   C33   A    
C15   H5    S    
Cu2   O6    S    
C43   H13   S    
C19   H7    S    
C40   C42   A    
C1    C22   S    
C52   H36   S    
C56   H41   S    
C3    C24   S    
C23   O7    A    
C53   H34   S    
C51   H38   S    
C55   H43   S    
C47   H20   S    
C40   H12   S    
C9    Cl1   S    
C23   O5    A    
C54   H46   S    
C46   C47   S    
Cu2   N1    S    
C20   H8    S    
C46   H23   S    
C4    C23   S    
C49   C50   S    
C18   H16   S    
C4    C44   A    
C11   C26   S    
Cu1   Cu2   S    
C8    C18   A    
Cu1   O8    S    
C34   C48   S    
C32   C34   A    
C28   N2    T    
C45   C46   S    
Cu2   O2    S    
C29   C30   T    
C27   N1    T    
C48   H32   S    
C52   C53   S    
C2    C21   S    
C41   H1    S    
C16   C18   A    
C42   H2    S    
C55   C56   S    
C9    C11   A    
C7    H17   S    
C10   C12   A    
C8    H18   S    
C13   H3    S    
C4    C6    A    
C5    C44   A    
C12   C14   A    
C6    C43   A    
C13   C15   A    
C56   H42   S    
C14   C16   A    
C53   H35   S    
C10   Cl2   S    
C51   H39   S    
C24   O6    A    
C47   H21   S    
C7    C9    A    
C21   C25   A    
C31   C41   A    
C19   C21   A    
Cu1   O4    S    
C16   H6    S    
C20   C22   A    
C3    C5    A    
C46   H22   S    
C54   C55   S    
C12   C25   S    
C38   C54   S    
C36   C38   A    
C37   C39   A    
C49   H30   S    
C38   C40   A    
C11   C13   A    
C45   H24   S    
C14   H4    S    
C44   H14   S    
C28   C30   S    
C1    O1    A    
C34   C36   A    
C1    O3    A    
C8    C10   A    
C22   C26   A    
C50   H28   S    
Cu1   N2    S    
C50   H27   S    
C32   C42   A    
C31   H9    S    
C2    O4    A    
C32   H10   S    
Cu2   O7    S    
