data_mof_unit_57729.cif
_audit_creation_date              2013-03-05T16:06:47-0500
_audit_creation_method            fapswitch 2.2
_symmetry_space_group_name_H-M    P1
_symmetry_Int_Tables_number       1
_space_group_crystal_system       triclinic
_cell_length_a                    6.951469
_cell_length_b                    14.54743
_cell_length_c                    16.199031
_cell_angle_alpha                 90.477521
_cell_angle_beta                  90.31044
_cell_angle_gamma                 89.90777
_cell_volume                      1638.06040683

loop_
_atom_site_label
_atom_site_type_symbol
_atom_site_description
_atom_site_fract_x
_atom_site_fract_y
_atom_site_fract_z
_atom_type_partial_charge
O1    O     O_R   0.505830 0.583360 0.413880 -0.595826
O2    O     O_R   0.175830 0.595460 0.585520 -0.563035
O3    O     O_R   0.005520 0.416640 0.586120 -0.580259
C1    C     C_R   0.344809 0.617087 0.614733 0.976181
O4    O     O_R   0.176120 0.594390 0.414490 -0.605827
O5    O     O_R   0.005810 0.415570 0.413870 -0.602107
C2    C     C_R   0.344628 0.616232 0.385837 0.920286
O6    O     O_R   0.505540 0.584430 0.586130 -0.603953
O7    O     O_3   0.339200 0.441330 0.500000 -0.280803
V1    V     V_3+5 0.064350 0.510880 0.500000 1.175475
O8    O     O_R   0.676100 0.404540 0.414480 -0.599825
C3    C     C_R   0.844958 0.382548 0.385690 0.917982
O9    O     O_R   0.675810 0.405610 0.585510 -0.604809
C4    C     C_R   0.845750 0.383100 0.613035 1.109228
V2    V     V_3+5 0.564340 0.489120 0.500000 1.160997
O10   O     O_3   0.839360 0.558670 0.500000 -0.282627
C5    C     C_2   0.715543 0.200156 0.776033 0.347108
C6    C     C_2   0.876264 0.182377 0.822372 -0.486922
H1    H     H_    0.005586 0.222418 0.813166 0.147801
C7    C     C_2   0.708510 0.275415 0.713878 -0.084491
C8    C     C_2   0.863061 0.312432 0.677586 -0.469303
H2    H     H_    0.566778 0.298951 0.694761 0.149048
H3    H     H_    0.006895 0.289133 0.693079 0.153862
C9    C     C_R   0.728736 0.180846 0.243040 0.155931
C10   C     C_R   0.882863 0.180432 0.187599 -0.224450
C11   C     C_R   0.033772 0.242775 0.203150 -0.150787
H4    H     H_    0.155940 0.244952 0.162290 0.142401
C12   C     C_R   0.022077 0.307496 0.268137 -0.153537
H5    H     H_    0.136359 0.357264 0.275599 0.134012
C13   C     C_R   0.858800 0.312046 0.319338 -0.217797
C14   C     C_R   0.716733 0.245132 0.307131 0.161583
C15   C     C_3   0.505509 0.256777 0.295160 -0.473609
C16   C     C_3   0.518424 0.186303 0.225671 -0.452823
H6    H     H_    0.468190 0.326878 0.273464 0.190695
H7    H     H_    0.422072 0.232271 0.349000 0.192859
H8    H     H_    0.487673 0.215268 0.163695 0.198208
H9    H     H_    0.443286 0.120855 0.239501 0.183551
C17   C     C_R   0.498333 0.676714 0.746284 0.119192
C18   C     C_R   0.352710 0.681769 0.686168 -0.253109
C19   C     C_R   0.204838 0.746592 0.700106 -0.092183
H10   H     H_    0.085455 0.751577 0.657263 0.114675
C20   C     C_R   0.215579 0.809738 0.766711 -0.167655
H11   H     H_    0.103952 0.861223 0.772950 0.123535
C21   C     C_R   0.375057 0.810389 0.821137 -0.213134
C22   C     C_R   0.510322 0.739995 0.811036 0.151833
C23   C     C_3   0.724512 0.742132 0.809375 -0.586173
C24   C     C_3   0.712500 0.671535 0.739252 0.190668
H12   H     H_    0.789493 0.715747 0.867419 0.233638
H13   H     H_    0.779616 0.809916 0.789233 0.169795
H14   H     H_    0.767805 0.696103 0.679084 0.062416
C25   C     C_R   0.506992 0.680932 0.260260 0.171558
C26   C     C_R   0.352490 0.681194 0.315586 -0.225359
C27   C     C_R   0.201493 0.743453 0.299914 -0.161626
H15   H     H_    0.079013 0.746286 0.340608 0.136758
C28   C     C_R   0.213361 0.807292 0.235045 -0.155073
H16   H     H_    0.098787 0.856937 0.227564 0.131224
C29   C     C_R   0.376951 0.811174 0.183965 -0.230758
C30   C     C_R   0.519160 0.744320 0.196306 0.183114
C31   C     C_3   0.730278 0.755896 0.208496 -0.477475
C32   C     C_3   0.717212 0.686441 0.277777 -0.462265
H17   H     H_    0.767341 0.826281 0.230438 0.184360
H18   H     H_    0.813995 0.730510 0.154643 0.204821
H19   H     H_    0.747643 0.716278 0.339870 0.189992
H20   H     H_    0.792549 0.620712 0.263797 0.192379
O11   O     O_R   0.229930 0.912420 0.917160 -0.592567
O12   O     O_R   0.559420 0.902500 0.088780 -0.594430
O13   O     O_R   0.729660 0.081330 0.089380 -0.592823
C33   C     C_R   0.390676 0.880799 0.117588 0.939425
O14   O     O_R   0.559650 0.901420 0.917750 -0.593891
O15   O     O_R   0.729880 0.080250 0.917130 -0.586742
C34   C     C_R   0.390255 0.879746 0.888622 0.950185
O16   O     O_R   0.229700 0.913500 0.089410 -0.593442
O17   O     O_3   0.396250 0.055540 0.003280 -0.279554
V3    V     V_3+5 0.671130 0.986010 0.003260 1.147658
O18   O     O_R   0.059600 0.091310 0.917720 -0.603807
C35   C     C_R   0.889355 0.112306 0.888581 1.020642
O19   O     O_R   0.059370 0.092380 0.088750 -0.601426
C36   C     C_R   0.890755 0.114557 0.117369 0.937829
V4    V     V_3+5 0.171120 0.007820 0.003230 1.144572
O20   O     O_3   0.896130 0.938240 0.003240 -0.275036
C37   C     C_3   0.531133 0.145891 0.785144 -0.920969
H21   H     H_    0.423270 0.164472 0.737230 0.210449
H22   H     H_    0.560176 0.071155 0.777810 0.231420
H23   H     H_    0.464765 0.160511 0.846050 0.271148
N1    N     N_R   0.788460 0.581721 0.763352 0.254805
O21   O     O_R   0.946477 0.551484 0.730231 -0.399986
O22   O     O_R   0.710207 0.535373 0.822835 -0.393023

loop_
_geom_bond_atom_site_label_1
_geom_bond_atom_site_label_2
_geom_bond_distance
_ccdc_geom_bond_type
O12   C33   1.304987 A    
C28   H16   1.081286 S    
O11   V4    2.002306 S    
O17   V3    2.160581 S    
C27   C28   1.411004 A    
C1    O6    1.299620 A    
C5    C7    1.494135 S    
C37   H21   1.110970 S    
C27   H15   1.080123 S    
C21   C22   1.398349 A    
C23   H13   1.110621 S    
C11   H4    1.080203 S    
C32   H19   1.111570 S    
C24   N1    1.463686 S    
C4    C8    1.476785 S    
C12   H5    1.081315 S    
C2    C26   1.486570 S    
O16   V4    2.005342 S    
O5    C3    1.296908 A    
C13   C14   1.399909 A    
V2    O10   2.164455 S    
O12   V3    2.010179 S    
C16   H8    1.111570 S    
C21   C34   1.484907 S    
C6    H1    1.083646 S    
O14   C34   1.304358 A    
C17   C22   1.392070 A    
O8    V2    2.004208 S    
O15   V3    2.008184 S    
O1    V2    2.003762 S    
O7    V1    2.160533 S    
O19   C36   1.301942 A    
C19   C20   1.412920 A    
C31   C32   1.519537 S    
V3    O20   1.710492 S    
O9    C4    1.302718 A    
O13   C36   1.298408 A    
C20   C21   1.412695 A    
C37   H22   1.110989 S    
C24   H14   1.111682 S    
O19   V4    2.004004 S    
C23   H12   1.111902 S    
C31   H17   1.111261 S    
N1    O22   1.302554 A    
C25   C26   1.402541 A    
C15   H7    1.111529 S    
C9    C10   1.401729 A    
C18   C19   1.411640 A    
O13   V3    1.999495 S    
C10   C11   1.408135 A    
N1    O21   1.299557 A    
C16   H9    1.111718 S    
C10   C36   1.482559 S    
C15   H6    1.111284 S    
O2    C1    1.302079 A    
O18   C35   1.308379 A    
C28   C29   1.411457 A    
C14   C15   1.489602 S    
C1    C18   1.486208 S    
C33   O16   1.297395 A    
C5    C6    1.368143 D    
O17   V4    1.713058 S    
O14   V3    1.999148 S    
C25   C30   1.395665 A    
C17   C24   1.495473 S    
O3    C4    1.293135 A    
C19   H10   1.081680 S    
C7    H2    1.086842 S    
O6    V2    2.002061 S    
O9    V2    2.002104 S    
O15   C35   1.292716 A    
C20   H11   1.082141 S    
C29   C33   1.486853 S    
O2    V1    1.999168 S    
C37   H23   1.110224 S    
C26   C27   1.408694 A    
O4    C2    1.303099 A    
C23   C24   1.527029 S    
C31   H18   1.111542 S    
C6    C35   1.488130 S    
C3    C13   1.482856 S    
O1    C2    1.298902 A    
O5    V1    1.999522 S    
O8    C3    1.303809 A    
C11   C12   1.409073 A    
C9    C16   1.489428 S    
C32   H20   1.111714 S    
C15   C16   1.519138 S    
C8    H3    1.084069 S    
C30   C31   1.489380 S    
C9    C14   1.394255 A    
O4    V1    2.010229 S    
O3    V1    2.008185 S    
O11   C34   1.296898 A    
C29   C30   1.400387 A    
C17   C18   1.403115 A    
C12   C13   1.410530 A    
C5    C37   1.515103 S    
O7    V2    1.713544 S    
V4    O20   2.164476 S    
C22   C23   1.489707 S    
C7    C8    1.343070 D    
V1    O10   1.710545 S    
C25   C32   1.489280 S    
O18   V4    2.002060 S    
