data_mof_unit_37937.cif
_audit_creation_date              2013-03-05T16:19:18-0500
_audit_creation_method            fapswitch 2.2
_symmetry_space_group_name_H-M    P1
_symmetry_Int_Tables_number       1
_space_group_crystal_system       triclinic
_cell_length_a                    10.989673
_cell_length_b                    9.898826
_cell_length_c                    23.278385
_cell_angle_alpha                 88.6257
_cell_angle_beta                  89.764687
_cell_angle_gamma                 90.097573
_cell_volume                      2531.58198058

loop_
_atom_site_label
_atom_site_type_symbol
_atom_site_description
_atom_site_fract_x
_atom_site_fract_y
_atom_site_fract_z
_atom_type_partial_charge
O1    O     O_R   0.314910 0.616040 0.499990 -0.629293
O2    O     O_R   0.314910 0.383960 0.499990 -0.572005
C1    C     C_R   0.258451 0.500654 0.497733 1.065780
O3    O     O_R   0.500080 0.616070 0.416130 -0.628365
O4    O     O_R   0.500080 0.383930 0.416130 -0.573580
C2    C     C_R   0.502983 0.501625 0.388852 0.987651
Zn1   Zn    Zn3+2 0.500150 0.654960 0.499970 1.080727
Zn2   Zn    Zn3+2 0.500150 0.345040 0.499970 1.095887
O5    O     O_R   0.685320 0.616040 0.499970 -0.497663
O6    O     O_R   0.685320 0.383960 0.499970 -0.579194
O7    O     O_R   0.500150 0.616010 0.583820 -0.558545
O8    O     O_R   0.500150 0.383990 0.583820 -0.542497
C3    C     C_R   0.742246 0.500776 0.497943 0.933416
C4    C     C_R   0.503488 0.499198 0.610602 0.968497
C5    C     C_R   0.700620 0.505551 0.878467 0.588135
N1    N     N_R   0.600976 0.548919 0.848301 -0.349941
C6    C     C_R   0.504076 0.608464 0.874590 0.605402
C7    C     C_R   0.499746 0.615386 0.934304 -0.118999
C8    C     C_R   0.599046 0.566730 0.966504 -0.000954
C9    C     C_R   0.702576 0.515684 0.938387 -0.018226
C10   C     C_R   0.397296 0.666667 0.962236 -0.088605
C11   C     C_R   0.390186 0.665859 0.021933 0.473429
C12   C     C_R   0.485853 0.607144 0.054864 -0.174904
C13   C     C_R   0.593129 0.564872 0.026889 -0.045863
C14   C     C_R   0.693185 0.516641 0.059059 -0.014654
C15   C     C_R   0.798679 0.473343 0.030673 -0.095231
C16   C     C_R   0.802821 0.471428 0.970850 -0.106276
C17   C     C_R   0.476657 0.583132 0.114371 0.603570
N2    N     N_R   0.575964 0.540444 0.145090 -0.333179
C18   C     C_R   0.683975 0.510698 0.118985 0.603748
O9    O     O_2   0.795547 0.450261 0.850664 -0.466577
O10   O     O_2   0.410644 0.657148 0.842825 -0.479690
H1    H     H_    0.321778 0.708222 0.937831 0.228144
O11   O     O_2   0.369006 0.598193 0.141561 -0.452360
O12   O     O_2   0.780995 0.473430 0.150941 -0.478411
H2    H     H_    0.876835 0.436836 0.054574 0.214769
H3    H     H_    0.883894 0.433345 0.950206 0.212724
C19   C     C_R   0.567684 0.401299 0.234233 0.308455
C20   C     C_R   0.551940 0.391780 0.294066 0.332650
C21   C     C_R   0.517949 0.507560 0.325265 -0.363182
C22   C     C_R   0.506182 0.633048 0.295039 0.416820
C23   C     C_R   0.540786 0.645941 0.237807 0.482699
C24   C     C_R   0.565187 0.529190 0.206369 -0.126929
C25   C     C_R   0.505244 0.423539 0.771553 0.297864
C26   C     C_R   0.469877 0.417944 0.713843 0.414036
C27   C     C_R   0.529312 0.501714 0.672361 -0.275424
C28   C     C_R   0.617909 0.594051 0.689798 -0.138024
H4    H     H_    0.662549 0.660199 0.658506 0.230570
C29   C     C_R   0.647769 0.607045 0.747190 0.527620
C30   C     C_R   0.590724 0.521491 0.788506 -0.043287
C31   C     C_3   0.071507 0.653293 0.488378 -0.004186
C32   C     C_3   0.068956 0.434508 0.553175 0.097348
H5    H     H_    0.113377 0.692868 0.448018 0.187957
H6    H     H_    0.085780 0.326908 0.548570 0.222498
C33   C     C_3   0.929661 0.652875 0.480817 0.521640
C34   C     C_3   0.928611 0.457951 0.558005 0.499140
C35   C     C_3   0.073869 0.425528 0.440211 0.324246
C36   C     C_3   0.122120 0.503367 0.496252 -0.534513
C37   C     C_3   0.879744 0.503556 0.495800 -0.362865
C38   C     C_3   0.930471 0.403827 0.448624 0.548511
C39   C     C_3   0.397307 0.076144 0.534269 0.079888
C40   C     C_3   0.409503 0.916845 0.541078 0.031437
H7    H     H_    0.312913 0.089283 0.509248 0.198043
H8    H     H_    0.321692 0.875738 0.528309 0.220525
C41   C     C_3   0.479340 0.082285 0.439507 0.161737
C42   C     C_3   0.462821 0.920973 0.441215 0.065277
C43   C     C_3   0.618276 0.077416 0.520457 0.596635
C44   C     C_3   0.622904 0.916152 0.511692 0.704047
N3    N     N_3   0.499750 0.138610 0.498760 -0.226190
N4    N     N_3   0.499750 0.861390 0.498760 -0.226113
H9    H     H_    0.558420 0.100889 0.411390 0.129548
H10   H     H_    0.520909 0.878638 0.406917 0.231142
O13   O     O_3   0.373781 0.334979 0.700713 -0.581260
H11   H     H_    0.341249 0.362879 0.662942 0.394047
O14   O     O_3   0.729164 0.707729 0.760865 -0.646695
H12   H     H_    0.739470 0.710546 0.802971 0.359684
N5    N     N_R   0.109438 0.753584 0.530721 0.261678
O15   O     O_R   0.086636 0.735270 0.585104 -0.162972
O16   O     O_R   0.118790 0.878289 0.512038 -0.339120
N6    N     N_R   0.129833 0.465462 0.607847 0.285441
O17   O     O_R   0.227643 0.538967 0.610217 -0.354818
O18   O     O_R   0.092432 0.404596 0.654883 -0.205669
O19   O     O_3   0.879323 0.743828 0.519610 -0.653431
H13   H     H_    0.901225 0.836937 0.506593 0.416219
O20   O     O_3   0.909357 0.561683 0.597621 -0.612459
H14   H     H_    0.821136 0.581698 0.599374 0.362005
N7    N     N_R   0.897060 0.700896 0.421797 0.245616
O21   O     O_R   0.792913 0.669330 0.399308 -0.305454
O22   O     O_R   0.953537 0.805376 0.399326 -0.293036
N8    N     N_R   0.866531 0.334663 0.581595 0.261157
O23   O     O_R   0.918977 0.216707 0.582469 -0.263676
O24   O     O_R   0.767762 0.347372 0.612056 -0.357456
N9    N     N_R   0.107770 0.507690 0.387761 0.213620
O25   O     O_R   0.222470 0.530698 0.377337 -0.430876
O26   O     O_R   0.031353 0.540526 0.347258 -0.196602
N10   N     N_R   0.130900 0.291761 0.431914 0.224029
O27   O     O_R   0.142482 0.249232 0.379627 -0.250819
O28   O     O_R   0.136486 0.201628 0.473311 -0.362863
O29   O     O_3   0.867821 0.421751 0.396206 -0.680421
H15   H     H_    0.785116 0.382727 0.400466 0.323634
O30   O     O_3   0.909987 0.270568 0.468572 -0.673178
H16   H     H_    0.914643 0.209737 0.435245 0.406884
O31   O     O_3   0.289846 0.725791 0.046078 -0.671177
H17   H     H_    0.318691 0.779489 0.078736 0.385055
N11   N     N_R   0.368790 0.145047 0.587962 0.275846
O32   O     O_R   0.439714 0.139009 0.632362 -0.197799
O33   O     O_R   0.258842 0.189974 0.595402 -0.321188
N12   N     N_R   0.421984 0.866028 0.601085 0.284916
O34   O     O_R   0.512910 0.896960 0.633790 -0.242432
O35   O     O_R   0.330117 0.803518 0.625178 -0.235464
O36   O     O_3   0.386262 0.152725 0.410261 -0.567560
H18   H     H_    0.307728 0.107231 0.416874 0.437705
O37   O     O_3   0.342434 0.884966 0.427753 -0.700996
H19   H     H_    0.338910 0.785696 0.425980 0.390584
O38   O     O_3   0.720554 0.134717 0.492814 -0.693624
H20   H     H_    0.699340 0.175463 0.455212 0.316578
O39   O     O_3   0.703553 0.881811 0.466823 -0.686742
H21   H     H_    0.700089 0.947430 0.434241 0.316257
O40   O     O_3   0.629978 0.106450 0.578934 -0.600154
H22   H     H_    0.716101 0.096264 0.590564 0.415373
O41   O     O_3   0.666489 0.848866 0.561182 -0.637464
H23   H     H_    0.746681 0.887562 0.570862 0.381898
N13   N     N_R   0.586750 0.280971 0.201890 0.279086
O42   O     O_R   0.527776 0.262782 0.154329 -0.327739
O43   O     O_R   0.659726 0.186704 0.220798 -0.239608
O44   O     O_3   0.565551 0.267249 0.320481 -0.620272
H24   H     H_    0.631892 0.277364 0.348702 0.324913
O45   O     O_3   0.457797 0.745507 0.319748 -0.638716
H25   H     H_    0.379776 0.715907 0.337347 0.375793
O46   O     O_3   0.541306 0.774154 0.212879 -0.615169
H26   H     H_    0.588764 0.773373 0.176648 0.340645
N14   N     N_R   0.448363 0.335855 0.814062 0.255607
O47   O     O_R   0.512866 0.279929 0.854869 -0.338416
O48   O     O_R   0.331904 0.312242 0.812631 -0.215432

loop_
_geom_bond_atom_site_label_1
_geom_bond_atom_site_label_2
_geom_bond_distance
_ccdc_geom_bond_type
N7    O21   1.301243 A    
N9    O25   1.301356 A    
C42   O37   1.408110 S    
C33   C37   1.605691 S    
C7    C10   1.399949 A    
O13   H11   0.984101 S    
C8    C9    1.410648 A    
C38   O29   1.411151 S    
O45   H25   0.989627 S    
Zn1   N4    2.042947 S    
C34   O20   1.412143 S    
N13   O42   1.301268 A    
C4    C27   1.467344 S    
C42   N4    1.508095 S    
O20   H14   0.990761 S    
Zn1   O7    1.980513 S    
N11   O33   1.300599 A    
C15   C16   1.393726 A    
O30   H16   0.994628 S    
C18   O12   1.349436 S    
C17   N2    1.369106 A    
N1    C30   1.429403 S    
O2    C1    1.312206 A    
O4    C2    1.313684 A    
O7    C4    1.301081 A    
N13   O43   1.301308 A    
C10   H1    1.083756 S    
C39   N3    1.516090 S    
C5    N1    1.367469 A    
O5    C3    1.303911 A    
N12   O34   1.299328 A    
C40   N4    1.508371 S    
C26   O13   1.376542 S    
C7    C8    1.405652 A    
C22   C23   1.386855 A    
C39   H7    1.103445 S    
C43   O38   1.404839 S    
C41   O36   1.407623 S    
C40   H8    1.091783 S    
C42   H10   1.110563 S    
O19   H13   0.992218 S    
N1    C6    1.367482 A    
C35   N10   1.482416 S    
N10   O28   1.299170 A    
C12   C13   1.413331 A    
C29   O14   1.381775 S    
C39   N11   1.471056 S    
C19   N13   1.439463 S    
N5    O15   1.297888 A    
C44   N4    1.491609 S    
C34   N8    1.489400 S    
C17   O11   1.349596 S    
C37   C38   1.593810 S    
N9    O26   1.301010 A    
C20   O44   1.372974 S    
C35   N9    1.496195 S    
C10   C11   1.391366 A    
N2    C24   1.432551 S    
C22   O45   1.372246 S    
O3    Zn1   1.998306 S    
C32   H6    1.089089 S    
C35   C36   1.621478 S    
N5    O16   1.302683 A    
C5    C9    1.401094 A    
C43   C44   1.615022 S    
C28   H4    1.083109 S    
C13   C14   1.410383 A    
N6    O18   1.301792 A    
C20   C21   1.421148 A    
N14   O47   1.301148 A    
C35   C38   1.600697 S    
C14   C15   1.404778 A    
C41   H9    1.098441 S    
C11   O31   1.377295 S    
O1    C1    1.301176 A    
O14   H12   0.988207 S    
C31   N5    1.476413 S    
N2    C18   1.367043 A    
C44   O39   1.415076 S    
N8    O24   1.302012 A    
O29   H15   0.990643 S    
Zn2   O8    1.998657 S    
N10   O27   1.303231 A    
C6    C7    1.394009 A    
Zn2   N3    2.044283 S    
C23   O46   1.382806 S    
C31   C36   1.592511 S    
C12   C17   1.403044 A    
O41   H23   0.989335 S    
C32   C36   1.584525 S    
C15   H2    1.083153 S    
C21   C22   1.419217 A    
O8    C4    1.313286 A    
C41   C42   1.606308 S    
N7    O22   1.302943 A    
C2    C21   1.488401 S    
O3    C2    1.312283 A    
C25   N14   1.440547 S    
C23   C24   1.408232 A    
C33   O19   1.403097 S    
C38   O30   1.405387 S    
C25   C26   1.402375 A    
O37   H19   0.985213 S    
C25   C30   1.413038 A    
C14   C18   1.398058 A    
Zn1   O5    2.071751 S    
C27   C28   1.402218 A    
O36   H18   0.982668 S    
O1    Zn1   2.071212 S    
Zn2   O6    2.070462 S    
O2    Zn2   2.072505 S    
N6    O17   1.299077 A    
O6    C3    1.313547 A    
C44   O41   1.403250 S    
O4    Zn2   1.980189 S    
O40   H22   0.990142 S    
C5    O9    1.349120 S    
C3    C37   1.511866 S    
C9    C16   1.403293 A    
C28   C29   1.385921 A    
N11   O32   1.297377 A    
C34   C37   1.601512 S    
C8    C13   1.406589 A    
C19   C24   1.408919 A    
O39   H21   0.987590 S    
N8    O23   1.302768 A    
C19   C20   1.403707 A    
C32   C34   1.564092 S    
C16   H3    1.083138 S    
O44   H24   0.989933 S    
C41   N3    1.517452 S    
N12   O35   1.301252 A    
O46   H26   0.990000 S    
C31   C33   1.569478 S    
C33   N7    1.488349 S    
C39   C40   1.586980 S    
C43   N3    1.520564 S    
C1    C36   1.499037 S    
C26   C27   1.414650 A    
C40   N12   1.480269 S    
N14   O48   1.301330 A    
C29   C30   1.410467 A    
O31   H17   0.990843 S    
C6    O10   1.350605 S    
C11   C12   1.420606 A    
C31   H5    1.107288 S    
C32   N6    1.478580 S    
C43   O40   1.404345 S    
O38   H20   0.984017 S    
