data_mof_unit_29255.cif
_audit_creation_date              2012-12-10T18:03:59-0500
_audit_creation_method            fapswitch 2.2
_symmetry_space_group_name_H-M    P1
_symmetry_Int_Tables_number       1
_space_group_crystal_system       triclinic
_cell_length_a                    10.832372
_cell_length_b                    9.556092
_cell_length_c                    10.88467
_cell_angle_alpha                 89.993544
_cell_angle_beta                  91.303122
_cell_angle_gamma                 89.998708
_cell_volume                      1126.43676464

loop_
_atom_site_label
_atom_site_type_symbol
_atom_type_description
_atom_site_fract_x
_atom_site_fract_y
_atom_site_fract_z
_atom_type_partial_charge
C1    C     C_R   0.262176 0.499941 0.499996 0.809014
C2    C     C_R   0.737824 0.499939 0.500005 0.808983
C3    C     C_R   0.418101 0.075282 0.428027 -0.085568
C4    C     C_R   0.581889 0.075257 0.571986 -0.085653
C5    C     C_R   0.417420 0.927246 0.427869 0.406561
C6    C     C_R   0.582562 0.927218 0.572155 0.406508
C7    C     C_R   0.499414 0.499857 0.262696 0.820498
C8    C     C_R   0.500631 0.499844 0.737302 0.820514
C9    C     C_R   0.498981 0.620694 0.061849 0.137228
C10   C     C_R   0.500850 0.620672 0.938094 0.137549
C11   C     C_R   0.499168 0.498077 0.130042 -0.097792
C12   C     C_R   0.501068 0.498050 0.869952 -0.097657
C13   C     C_R   0.500029 0.370455 0.064526 -0.206464
C14   C     C_R   0.500802 0.370441 0.935512 -0.206516
C15   C     C_3   0.500740 0.776199 0.929389 -0.447079
C16   C     C_3   0.498011 0.776237 0.070431 -0.446534
C17   C     C_R   0.063872 0.372703 0.499909 -0.172565
C18   C     C_R   0.936132 0.372701 0.499999 -0.172591
C19   C     C_R   0.871729 0.499876 0.499904 -0.032074
C20   C     C_R   0.128271 0.499880 0.500099 -0.032080
C21   C     C_R   0.936158 0.626985 0.499777 -0.142824
C22   C     C_R   0.063839 0.626987 0.500324 -0.142846
Cu1   Cu    Cu3+1 0.500000 0.640660 0.500000 1.039167
Cu2   Cu    Cu3+1 0.500000 0.359340 0.500000 0.956473
H1    H     H_    0.500107 0.270944 0.112172 0.175542
H2    H     H_    0.501131 0.270925 0.887901 0.175522
H3    H     H_    0.588435 0.818183 0.894124 0.255096
H4    H     H_    0.409998 0.817466 0.105616 0.255178
H5    H     H_    0.414974 0.817551 0.884664 0.207672
H6    H     H_    0.583471 0.818402 0.115147 0.207784
H7    H     H_    0.111886 0.273263 0.499765 0.163562
H8    H     H_    0.888121 0.273261 0.500065 0.163552
H9    H     H_    0.888279 0.726445 0.499244 0.194204
H10   H     H_    0.111714 0.726446 0.500938 0.194205
H11   H     H_    0.352610 0.132133 0.370424 0.168782
H12   H     H_    0.647365 0.132090 0.629605 0.168735
N1    N     N_R   0.500000 0.852070 0.500000 -0.216053
N2    N     N_R   0.500000 0.147940 0.500000 -0.209569
O1    O     O_R   0.319640 0.618740 0.499990 -0.538932
O2    O     O_R   0.680360 0.618740 0.500010 -0.538975
O3    O     O_R   0.319620 0.381170 0.499990 -0.597105
O4    O     O_R   0.680380 0.381170 0.500010 -0.597129
O5    O     O_R   0.499990 0.618810 0.319660 -0.540049
O6    O     O_R   0.500010 0.618810 0.680340 -0.540008
O7    O     O_R   0.499960 0.381240 0.319650 -0.593896
O8    O     O_R   0.500040 0.381240 0.680350 -0.593903
Cl1   Cl    Cl    0.306702 0.845177 0.332598 -0.669344
Cl2   Cl    Cl    0.693184 0.845107 0.667541 -0.669122

loop_
_geom_bond_atom_site_label_1
_geom_bond_atom_site_label_2
_ccdc_geom_bond_type
C16   H4    S    
Cu2   N2    S    
Cu1   Cu2   S    
C4    H12   S    
C7    O5    A    
C11   C13   A    
C9    C10   A    
C15   H3    S    
C3    H11   S    
C8    C12   S    
Cu2   O8    S    
C17   C18   A    
C12   C14   A    
C6    N1    A    
Cu1   O5    S    
Cu1   N1    S    
C13   C14   A    
C14   H2    S    
C7    C11   S    
Cu2   O3    S    
C5    Cl1   S    
C13   H1    S    
C6    Cl2   S    
C2    O4    A    
Cu1   O1    S    
Cu2   O7    S    
C7    O7    A    
C1    O3    A    
C19   C21   A    
C9    C16   S    
C20   C22   A    
C15   H5    S    
C10   C12   A    
C10   C15   S    
C9    C11   A    
C8    O6    A    
C22   H10   S    
C8    O8    A    
C18   H8    S    
Cu2   O4    S    
C1    O1    A    
C16   H6    S    
Cu1   O2    S    
C2    O2    A    
C17   C20   A    
C21   H9    S    
C4    C6    A    
C18   C19   A    
C5    N1    A    
C1    C20   S    
C3    C5    A    
C2    C19   S    
C21   C22   A    
C17   H7    S    
C15   C16   S    
C3    N2    A    
C4    N2    A    
Cu1   O6    S    
