data_mof_unit_27880.cif
_audit_creation_date              2012-12-11T14:32:57-0500
_audit_creation_method            fapswitch 2.2
_symmetry_space_group_name_H-M    P1
_symmetry_Int_Tables_number       1
_space_group_crystal_system       triclinic
_cell_length_a                    6.950897
_cell_length_b                    13.783899
_cell_length_c                    18.081198
_cell_angle_alpha                 112.440383
_cell_angle_beta                  95.187455
_cell_angle_gamma                 90.489253
_cell_volume                      1592.88501202

loop_
_atom_site_label
_atom_site_type_symbol
_atom_type_description
_atom_site_fract_x
_atom_site_fract_y
_atom_site_fract_z
_atom_type_partial_charge
O1    O     O_R   0.484560 0.544530 0.414330 -0.530338
O2    O     O_R   0.197040 0.638810 0.585080 -0.546782
O3    O     O_R   0.026800 0.455470 0.585670 -0.531520
C1    C     C_R   0.374354 0.676922 0.612524 0.671755
O4    O     O_R   0.155000 0.556150 0.414940 -0.539239
O5    O     O_R   0.984450 0.372220 0.414320 -0.536678
C2    C     C_R   0.318306 0.565639 0.387028 0.812974
O6    O     O_R   0.526900 0.627780 0.585680 -0.540324
O7    O     O_3   0.339170 0.439750 0.499990 -0.377760
V1    V     V_3+5 0.064350 0.511180 0.500000 1.424061
O8    O     O_R   0.654880 0.361190 0.414920 -0.532869
C3    C     C_R   0.816842 0.325711 0.385269 0.706911
O9    O     O_R   0.696930 0.443850 0.585060 -0.563169
C4    C     C_R   0.872448 0.433514 0.612117 0.694743
V2    V     V_3+5 0.564340 0.488820 0.500000 1.405671
O10   O     O_3   0.839390 0.560250 0.500010 -0.368269
C5    C     C_R   0.043024 0.863392 0.824798 -0.051992
C6    C     C_R   0.903072 0.399443 0.680154 -0.033383
C7    C     C_R   0.934842 0.825094 0.686100 -0.128502
C8    C     C_R   0.990358 0.791030 0.747358 -0.146860
C9    C     C_R   0.035003 0.971196 0.840834 -0.204112
C10   C     C_R   0.993740 0.010124 0.778552 0.082440
C11   C     C_R   0.936511 0.933130 0.699955 0.073872
C12   C     C_R   0.000533 0.120913 0.790832 0.012624
C13   C     C_R   0.938781 0.149824 0.723682 0.050182
C14   C     C_R   0.876124 0.069873 0.648857 -0.209836
C15   C     C_R   0.877136 0.964357 0.636443 -0.067157
C16   C     C_R   0.069313 0.204936 0.865358 -0.039947
C17   C     C_R   0.066989 0.309170 0.872649 -0.246027
C18   C     C_R   0.008222 0.336419 0.808138 0.103049
C19   C     C_R   0.943370 0.258183 0.732384 0.101110
C20   C     C_R   0.020357 0.442748 0.819173 -0.120238
C21   C     C_R   0.969368 0.473792 0.755783 -0.145738
C22   C     C_R   0.890271 0.292497 0.668234 -0.193077
H1    H     H_    0.843678 0.239208 0.607841 0.087076
H2    H     H_    0.984628 0.556071 0.765605 0.088909
H3    H     H_    0.119616 0.371084 0.929774 0.124736
H4    H     H_    0.890426 0.765389 0.627368 0.149428
H5    H     H_    0.987118 0.707647 0.734502 0.090297
H6    H     H_    0.047009 0.020032 0.903245 0.123583
H7    H     H_    0.824353 0.086841 0.597418 0.126562
H8    H     H_    0.073208 0.502240 0.877040 0.140875
H9    H     H_    0.837287 0.032079 0.193713 0.193117
C23   C     C_2   0.133342 0.040205 0.178388 -0.347593
C24   C     C_2   0.970192 0.080858 0.211251 -0.136552
C25   C     C_2   0.815365 0.220278 0.318715 -0.017660
C26   C     C_2   0.963622 0.190345 0.270932 -0.002059
H10   H     H_    0.269369 0.086022 0.196633 0.151850
C27   C     C_R   0.411232 0.780177 0.681574 -0.051577
C28   C     C_R   0.542577 0.467373 0.838279 -0.075681
C29   C     C_R   0.538772 0.876448 0.820571 -0.115035
C30   C     C_R   0.484504 0.781659 0.756583 -0.153332
C31   C     C_R   0.398330 0.876419 0.671244 -0.196760
C32   C     C_R   0.454700 0.974971 0.736085 0.088884
C33   C     C_R   0.524898 0.972617 0.811216 0.103138
C34   C     C_R   0.446239 0.075278 0.728944 0.065675
C35   C     C_R   0.508592 0.171285 0.796455 0.059142
C36   C     C_R   0.578363 0.162985 0.869201 -0.167511
C37   C     C_R   0.584773 0.065877 0.876383 -0.184004
C38   C     C_R   0.376255 0.082277 0.656157 -0.195758
C39   C     C_R   0.367949 0.177525 0.648172 -0.200563
C40   C     C_R   0.429867 0.271744 0.712112 0.124681
C41   C     C_R   0.499611 0.271736 0.788309 0.060107
C42   C     C_R   0.420393 0.366267 0.699852 0.177148
C43   C     C_R   0.476765 0.461913 0.762340 -0.157047
C44   C     C_R   0.554197 0.372334 0.852048 -0.236047
H11   H     H_    0.639865 0.063655 0.933721 0.132565
H12   H     H_    0.602418 0.379150 0.912267 0.106649
H13   H     H_    0.464880 0.534111 0.752058 0.082096
H14   H     H_    0.308832 0.175961 0.590251 0.148309
H15   H     H_    0.594369 0.874588 0.877768 0.151425
H16   H     H_    0.501665 0.708964 0.765617 0.093917
H17   H     H_    0.347693 0.870829 0.611665 0.102150
H18   H     H_    0.629585 0.230786 0.921910 0.135477
H19   H     H_    0.323666 0.015159 0.603425 0.132216
H20   H     H_    0.333937 0.667469 0.195406 0.151880
H21   H     H_    0.615593 0.591851 0.307895 0.157547
C45   C     C_2   0.315370 0.602734 0.319600 -0.315148
C46   C     C_2   0.477119 0.611622 0.285618 -0.091798
H22   H     H_    0.772169 0.636830 0.206242 0.130582
C47   C     C_2   0.634052 0.656423 0.183530 -0.327778
C48   C     C_2   0.472421 0.647634 0.217621 -0.120622
H23   H     H_    0.177280 0.622259 0.296815 0.124146
O11   O     O_R   0.421600 0.630430 0.917010 -0.540957
O12   O     O_R   0.793840 0.702190 0.087630 -0.545539
O13   O     O_R   0.964010 0.886170 0.088190 -0.539243
C49   C     C_R   0.630844 0.693407 0.116019 0.746118
O14   O     O_R   0.751460 0.619510 0.917500 -0.540435
O15   O     O_R   0.921330 0.802900 0.916840 -0.545436
C50   C     C_R   0.575981 0.575431 0.902034 0.687165
O16   O     O_R   0.464290 0.713700 0.088350 -0.540505
O17   O     O_3   0.609200 0.818520 0.002630 -0.374559
V3    V     V_3+5 0.884140 0.747190 0.002530 1.380748
O18   O     O_R   0.251150 0.814630 0.917340 -0.539749
C51   C     C_R   0.075166 0.825482 0.890717 0.694791
O19   O     O_R   0.293530 0.897310 0.087470 -0.535546
C52   C     C_R   0.131096 0.934126 0.115051 0.777800
V4    V     V_3+5 0.384070 0.769710 0.002370 1.400251
O20   O     O_3   0.109180 0.698190 0.002460 -0.380693
C53   C     C_1   0.810854 0.889053 0.556617 0.260550
N1    N     N_1   0.757666 0.828899 0.492913 -0.365352
C54   C     C_1   0.114891 0.264973 0.272786 0.299999
N2    N     N_1   0.235804 0.323705 0.273599 -0.364909
N3    N     N_3   0.657768 0.146642 0.308182 -0.679168
H24   H     H_    0.652323 0.136275 0.362310 0.226672
H25   H     H_    0.529735 0.180283 0.297289 0.248202
N4    N     N_3   0.347288 0.365715 0.623460 -0.638998
H26   H     H_    0.357074 0.442699 0.626870 0.268702
H27   H     H_    0.438633 0.322243 0.581183 0.226581
C55   C     C_1   0.159161 0.193266 0.936447 0.283496
N5    N     N_1   0.232337 0.186271 0.994242 -0.367198

loop_
_geom_bond_atom_site_label_1
_geom_bond_atom_site_label_2
_ccdc_geom_bond_type
C39   H14   S    
C13   C19   A    
C44   H12   S    
C33   C37   A    
C4    C6    S    
O2    C1    A    
C7    C8    A    
C1    O6    A    
C21   H2    S    
N3    H25   S    
C47   C48   D    
O17   V4    S    
C31   C32   A    
C14   C15   A    
C17   C18   A    
C29   H15   S    
C16   C17   A    
O13   V3    S    
C49   O16   A    
O5    C3    A    
C18   C19   A    
C27   C31   A    
O18   V4    S    
V2    O10   S    
C5    C8    A    
C34   C35   A    
C22   H1    S    
O13   C52   A    
C55   N5    T    
O17   V3    S    
C40   C42   A    
C37   H11   S    
C25   C26   D    
O12   V3    S    
C45   H23   S    
C28   C50   S    
O19   V4    S    
N4    H26   S    
O1    V2    S    
C11   C15   A    
O7    V1    S    
V3    O20   S    
C24   C26   S    
C41   C44   A    
C26   C54   S    
O9    C4    A    
O15   V3    S    
N4    H27   S    
C39   C40   A    
O11   C50   A    
N3    H24   S    
C28   C43   A    
C35   C41   A    
H21   C46   S    
C32   C34   A    
C15   C53   S    
O12   C49   A    
C29   C30   A    
C12   C13   A    
C3    C25   S    
H20   C48   S    
O4    C2    A    
C8    H5    S    
C45   C46   D    
C16   C55   S    
C13   C14   A    
C25   N3    S    
C5    C9    A    
C34   C38   A    
C38   C39   A    
O15   C51   A    
C7    C11   A    
C40   C41   A    
C30   H16   S    
C7    H4    S    
H9    C24   S    
C23   C52   S    
C27   C30   A    
O19   C52   A    
C19   C22   A    
O18   C51   A    
C6    C22   A    
C47   C49   S    
O3    C4    A    
C2    C45   S    
C5    C51   S    
O14   C50   A    
O6    V2    S    
O8    V2    S    
O9    V2    S    
C10   C12   A    
O2    V1    S    
C23   C24   D    
C36   H18   S    
C42   N4    S    
C32   C33   A    
O14   V3    S    
O1    C2    A    
C31   H17   S    
C12   C16   A    
H22   C47   S    
O5    V1    S    
C46   C48   S    
O8    C3    A    
C28   C44   A    
C38   H19   S    
C1    C27   S    
O11   V4    S    
C42   C43   A    
C36   C37   A    
O4    V1    S    
O3    V1    S    
V1    O10   S    
C20   C21   A    
C18   C20   A    
C35   C36   A    
C9    H6    S    
C43   H13   S    
C53   N1    T    
C29   C33   A    
O16   V4    S    
O7    V2    S    
C54   N2    T    
C6    C21   A    
V4    O20   S    
C17   H3    S    
C20   H8    S    
C10   C11   A    
C9    C10   A    
C23   H10   S    
C14   H7    S    
