data_mof_unit_18593.cif
_audit_creation_date              2012-12-11T14:14:12-0500
_audit_creation_method            fapswitch 2.2
_symmetry_space_group_name_H-M    P1
_symmetry_Int_Tables_number       1
_space_group_crystal_system       triclinic
_cell_length_a                    17.056673
_cell_length_b                    7.239806
_cell_length_c                    16.958818
_cell_angle_alpha                 90.004578
_cell_angle_beta                  99.308508
_cell_angle_gamma                 89.993901
_cell_volume                      2066.61665037

loop_
_atom_site_label
_atom_site_type_symbol
_atom_type_description
_atom_site_fract_x
_atom_site_fract_y
_atom_site_fract_z
_atom_type_partial_charge
O1    O     O_R   0.414560 0.494370 0.416770 -0.548082
O2    O     O_R   0.585440 0.994370 0.583230 -0.548106
O3    O     O_R   0.578370 0.819590 0.429320 -0.543107
O4    O     O_R   0.421630 0.319590 0.570680 -0.543052
C1    C     C_R   0.605671 0.654711 0.415135 0.715810
C2    C     C_R   0.394351 0.154738 0.584890 0.715774
O5    O     O_R   0.414740 0.823790 0.407360 -0.516612
O6    O     O_R   0.585260 0.323790 0.592640 -0.516625
O7    O     O_R   0.420650 0.998510 0.561120 -0.532937
O8    O     O_R   0.579350 0.498510 0.438880 -0.532955
C3    C     C_R   0.386674 0.655430 0.386893 0.684989
C4    C     C_R   0.613325 0.155426 0.613108 0.684832
O9    O     O_3   0.502130 0.662240 0.550470 -0.374167
O10   O     O_3   0.497870 0.162240 0.449530 -0.374204
V1    V     V_3+5 0.499600 0.935390 0.490640 1.456645
V2    V     V_3+5 0.500400 0.435390 0.509360 1.456719
C5    C     C_2   0.779143 0.270646 0.789548 0.099683
C6    C     C_2   0.220853 0.770638 0.210452 0.099659
C7    C     C_2   0.813627 0.115395 0.825126 -0.257149
C8    C     C_2   0.186371 0.615386 0.174876 -0.257164
H1    H     H_    0.783507 0.984110 0.811719 0.143344
H2    H     H_    0.216494 0.484094 0.188284 0.143406
C9    C     C_2   0.700051 0.260539 0.736116 0.314630
C10   C     C_2   0.299946 0.760524 0.263884 0.314707
C11   C     C_2   0.687879 0.145752 0.672392 0.143610
C12   C     C_2   0.312119 0.645764 0.327611 0.143522
C13   C     C_R   0.328158 0.137839 0.631909 -0.099636
C14   C     C_R   0.671846 0.637682 0.368090 -0.099898
C15   C     C_R   0.166315 0.127692 0.861928 -0.263840
C16   C     C_R   0.833681 0.627828 0.138072 -0.264067
C17   C     C_R   0.288913 0.274600 0.835285 0.136363
C18   C     C_R   0.711393 0.775808 0.164997 0.136256
C19   C     C_R   0.235105 0.235038 0.888035 0.317222
C20   C     C_R   0.765097 0.736038 0.112160 0.317310
C21   C     C_R   0.154821 0.048869 0.784207 0.274597
C22   C     C_R   0.845006 0.548280 0.215641 0.274592
C23   C     C_R   0.214714 0.067029 0.734677 0.025980
C24   C     C_R   0.785138 0.566600 0.265183 0.025944
C25   C     C_R   0.279446 0.189785 0.758745 -0.031277
C26   C     C_R   0.720671 0.690238 0.241363 -0.031295
C27   C     C_R   0.335043 0.222332 0.706677 -0.227486
C28   C     C_R   0.665133 0.722885 0.293489 -0.227552
C29   C     C_R   0.263672 0.017382 0.606829 0.122524
C30   C     C_R   0.736111 0.516428 0.392936 0.122610
C31   C     C_R   0.210615 0.970552 0.660298 0.173958
C32   C     C_R   0.789035 0.469447 0.339358 0.173993
H3    H     H_    0.386123 0.310276 0.724298 0.149701
H4    H     H_    0.614226 0.811460 0.276029 0.149849
O11   O     O_R   0.920750 0.773600 0.061260 -0.524106
O12   O     O_R   0.079250 0.273600 0.938740 -0.524174
O13   O     O_R   0.085340 0.439850 0.092570 -0.542567
O14   O     O_R   0.914660 0.939850 0.907430 -0.542567
C33   C     C_R   0.113216 0.608831 0.113679 0.733611
C34   C     C_R   0.886783 0.108834 0.886321 0.733707
O15   O     O_R   0.921720 0.444130 0.070790 -0.529820
O16   O     O_R   0.078280 0.944130 0.929210 -0.529949
O17   O     O_R   0.914480 0.269530 0.916840 -0.535530
O18   O     O_R   0.085520 0.769530 0.083160 -0.535531
C35   C     C_R   0.896200 0.613115 0.086248 0.681759
C36   C     C_R   0.103792 0.113089 0.913746 0.681575
O19   O     O_3   0.997840 0.601520 0.949550 -0.375531
O20   O     O_3   0.002160 0.101520 0.050450 -0.375431
V3    V     V_3+5 0.000400 0.328340 0.009360 1.450395
V4    V     V_3+5 0.999600 0.828340 0.990640 1.450282
C37   C     C_3   0.816184 0.460312 0.802271 -0.692737
H5    H     H_    0.782526 0.563323 0.761539 0.204122
H6    H     H_    0.815634 0.507688 0.864451 0.199077
H7    H     H_    0.877813 0.458173 0.788933 0.218997
C38   C     C_3   0.183808 0.960314 0.197730 -0.692689
H8    H     H_    0.217464 0.063327 0.238462 0.204115
H9    H     H_    0.184357 0.007668 0.135550 0.199092
H10   H     H_    0.122179 0.958204 0.211067 0.218982
O21   O     O_3   0.083531 0.965133 0.753215 -0.642952
H11   H     H_    0.040332 0.010662 0.780597 0.289892
O22   O     O_3   0.916135 0.463664 0.246497 -0.642842
H12   H     H_    0.959457 0.509529 0.219380 0.289969
O23   O     O_3   0.639442 0.378005 0.749277 -0.656280
H13   H     H_    0.656359 0.443524 0.800539 0.293117
O24   O     O_3   0.360554 0.877949 0.250718 -0.656258
H14   H     H_    0.343633 0.943473 0.199460 0.293184
O25   O     O_3   0.747919 0.025926 0.659807 -0.662478
H15   H     H_    0.731881 0.962340 0.607943 0.285145
O26   O     O_3   0.252080 0.525973 0.340199 -0.662516
H16   H     H_    0.268120 0.462400 0.392063 0.285132
C39   C     C_3   0.249875 0.942886 0.521971 -0.733670
H17   H     H_    0.277414 0.031587 0.480605 0.194316
H18   H     H_    0.274544 0.801118 0.520874 0.201199
H19   H     H_    0.185404 0.940870 0.497578 0.211950
C40   C     C_3   0.749824 0.441201 0.477667 -0.733459
H20   H     H_    0.722658 0.530170 0.519227 0.194344
H21   H     H_    0.724704 0.299861 0.478577 0.201152
H22   H     H_    0.814305 0.437920 0.501948 0.211928
C41   C     C_3   0.357775 0.404938 0.862065 -0.689774
H23   H     H_    0.357325 0.465273 0.922065 0.248406
H24   H     H_    0.414905 0.330007 0.864310 0.196020
H25   H     H_    0.355345 0.522502 0.819665 0.191503
C42   C     C_3   0.642852 0.907206 0.138494 -0.689921
H26   H     H_    0.643479 0.968134 0.078638 0.248388
H27   H     H_    0.585543 0.832980 0.136061 0.196117
H28   H     H_    0.645550 0.024312 0.181158 0.191453
C43   C     C_3   0.155105 0.806975 0.640259 -0.663791
H29   H     H_    0.174874 0.711676 0.596259 0.185057
H30   H     H_    0.154241 0.720234 0.694125 0.230540
H31   H     H_    0.094388 0.855912 0.615657 0.235773
C44   C     C_3   0.844114 0.304972 0.359013 -0.664068
H32   H     H_    0.824017 0.209412 0.402715 0.185049
H33   H     H_    0.844835 0.218869 0.304935 0.230605
H34   H     H_    0.904933 0.352851 0.383817 0.235717
O27   O     O_3   0.250879 0.306303 0.964735 -0.642743
H35   H     H_    0.224801 0.229162 0.001147 0.276654
O28   O     O_3   0.749436 0.807937 0.035573 -0.642672
H36   H     H_    0.775239 0.730554 0.999019 0.276708

loop_
_geom_bond_atom_site_label_1
_geom_bond_atom_site_label_2
_ccdc_geom_bond_type
C41   H23   S    
C20   O28   S    
O15   C35   A    
O19   V4    S    
O21   H11   S    
O28   H36   S    
O1    C3    A    
O2    C4    A    
C2    O7    A    
O25   H15   S    
C25   C27   A    
O23   H13   S    
O5    C3    A    
C44   H33   S    
C5    C9    S    
C12   O26   S    
C6    C10   S    
C7    H1    S    
C10   C12   D    
C32   C44   S    
C42   H26   S    
C18   C42   S    
O6    V2    S    
C14   C28   A    
C38   H9    S    
C2    C13   S    
C15   C19   A    
C30   C32   A    
C37   H6    S    
O15   V3    S    
C17   C19   A    
C40   H21   S    
C6    C38   S    
O5    V1    S    
C41   H24   S    
O11   V4    S    
C11   O25   S    
O12   V3    S    
C42   H27   S    
O14   C34   A    
O17   V3    S    
C39   H18   S    
O18   V4    S    
C44   H34   S    
C16   C20   A    
C29   C39   S    
C43   H29   S    
O13   V3    S    
O4    C2    A    
O14   V4    S    
C3    C12   S    
C39   H17   S    
C14   C30   A    
O16   C36   A    
O13   C33   A    
C18   C20   A    
O4    V2    S    
C38   H10   S    
O22   H12   S    
O20   V3    S    
C22   O22   S    
C1    C14   S    
C13   C27   A    
C10   O24   S    
O26   H16   S    
C15   C36   S    
O6    C4    A    
C37   H7    S    
C16   C35   S    
O16   V4    S    
C27   H3    S    
O1    V2    S    
C28   H4    S    
C9    O23   S    
C40   H22   S    
O2    V1    S    
C29   C31   A    
C31   C43   S    
C7    C34   S    
C8    H2    S    
C41   H25   S    
C19   O27   S    
C23   C31   A    
C42   H28   S    
O3    V1    S    
C39   H19   S    
C21   O21   S    
C21   C23   A    
C8    C33   S    
O3    C1    A    
C33   O18   A    
C43   H31   S    
C44   H32   S    
C15   C21   A    
C5    C37   S    
O11   C35   A    
C16   C22   A    
C4    C11   S    
O12   C36   A    
C22   C24   A    
O7    V1    S    
C1    O8    A    
C23   C25   A    
C17   C41   S    
O27   H35   S    
C24   C26   A    
C26   C28   A    
C5    C7    D    
C17   C25   A    
C6    C8    D    
C18   C26   A    
C38   H8    S    
C24   C32   A    
O24   H14   S    
C13   C29   A    
C9    C11   D    
C43   H30   S    
C37   H5    S    
O9    V2    S    
O10   V1    S    
O8    V2    S    
C40   H20   S    
C30   C40   S    
C34   O17   A    
