data_mof_unit_13059.cif
_audit_creation_date              2012-12-11T14:06:34-0500
_audit_creation_method            fapswitch 2.2
_symmetry_space_group_name_H-M    P1
_symmetry_Int_Tables_number       1
_space_group_crystal_system       triclinic
_cell_length_a                    6.927157
_cell_length_b                    17.304416
_cell_length_c                    24.081096
_cell_angle_alpha                 104.467924
_cell_angle_beta                  90.471742
_cell_angle_gamma                 89.842633
_cell_volume                      2794.97413404

loop_
_atom_site_label
_atom_site_type_symbol
_atom_type_description
_atom_site_fract_x
_atom_site_fract_y
_atom_site_fract_z
_atom_type_partial_charge
O1    O     O_R   0.494290 0.391990 0.999150 -0.540416
O2    O     O_R   0.827170 0.534410 0.082350 -0.543551
O3    O     O_R   0.994360 0.608010 0.000850 -0.527546
C1    C     C_R   0.658868 0.550112 0.105948 0.705257
O4    O     O_R   0.824210 0.388010 0.004470 -0.553660
O5    O     O_R   0.991370 0.460560 0.922410 -0.520301
C2    C     C_R   0.654637 0.354816 0.001352 0.766274
O6    O     O_R   0.497270 0.539440 0.077590 -0.553456
O7    O     O_3   0.659770 0.523970 0.973170 -0.338818
V1    V     V_3+5 0.935840 0.495550 0.004980 1.492077
O8    O     O_R   0.320910 0.465590 0.917650 -0.497805
C3    C     C_R   0.151025 0.451392 0.893747 0.830078
O9    O     O_R   0.323870 0.611990 0.995530 -0.548166
C4    C     C_R   0.153377 0.644548 0.997397 0.771492
V2    V     V_3+5 0.435470 0.504450 0.995020 1.534480
O10   O     O_3   0.161670 0.476030 0.026830 -0.394894
C5    C     C_2   0.133868 0.725461 0.988328 0.091523
C6    C     C_2   0.981137 0.773217 0.010407 0.161856
C7    C     C_R   0.058404 0.247833 0.626298 0.622414
N1    N     N_R   0.103093 0.326894 0.647886 -0.523845
C8    C     C_R   0.134774 0.375987 0.612085 0.672937
C9    C     C_R   0.119523 0.346282 0.552149 -0.063505
C10   C     C_R   0.072799 0.265296 0.529375 -0.011263
C11   C     C_R   0.042295 0.215430 0.566628 -0.040440
C12   C     C_R   0.148755 0.395547 0.514553 -0.169226
C13   C     C_R   0.132451 0.364823 0.455225 -0.136655
C14   C     C_R   0.085754 0.284084 0.431990 -0.038676
C15   C     C_R   0.055880 0.234170 0.469218 -0.011743
C16   C     C_R   0.008559 0.153266 0.446435 -0.030817
C17   C     C_R   0.978464 0.104050 0.484049 -0.145221
C18   C     C_R   0.995178 0.134739 0.543392 -0.132615
C19   C     C_R   0.067929 0.251903 0.372353 0.610259
N2    N     N_R   0.021667 0.172928 0.350643 -0.548884
C20   C     C_R   0.991748 0.123712 0.386499 0.572861
O11   O     O_2   0.028021 0.200860 0.662442 -0.504601
O12   O     O_2   0.180363 0.453329 0.634415 -0.471366
H1    H     H_    0.183534 0.458099 0.530819 0.198180
H2    H     H_    0.156104 0.404656 0.427669 0.178271
O13   O     O_2   0.097689 0.299173 0.336373 -0.506348
O14   O     O_2   0.944048 0.046555 0.364320 -0.511185
H3    H     H_    0.941668 0.041636 0.467788 0.162151
H4    H     H_    0.970614 0.095018 0.570976 0.178440
C21   C     C_R   0.135140 0.083545 0.260033 -0.185772
H5    H     H_    0.249206 0.062434 0.283517 0.154367
C22   C     C_R   0.123136 0.054276 0.200425 -0.193255
H6    H     H_    0.228306 0.010853 0.178856 0.146186
C23   C     C_R   0.975456 0.080101 0.169029 -0.097868
C24   C     C_R   0.840814 0.136243 0.198269 -0.284682
H7    H     H_    0.728301 0.157954 0.174525 0.137956
C25   C     C_R   0.854331 0.166953 0.258113 0.522733
C26   C     C_R   0.003808 0.141135 0.289243 0.281074
C27   C     C_R   0.963401 0.406519 0.738712 0.400272
C28   C     C_R   0.976285 0.438741 0.798507 0.283066
C29   C     C_R   0.138360 0.421258 0.829933 -0.310192
C30   C     C_R   0.287248 0.372363 0.799707 0.429552
C31   C     C_R   0.275077 0.343253 0.739908 -0.173142
H8    H     H_    0.391609 0.307249 0.717182 0.190903
C32   C     C_R   0.113729 0.359194 0.709275 0.173000
C33   C     C_R   0.577484 0.872657 0.615325 0.590355
N3    N     N_R   0.529415 0.822410 0.648889 -0.565685
C34   C     C_R   0.503487 0.742249 0.625488 0.637611
C35   C     C_R   0.523753 0.709389 0.565631 -0.129936
C36   C     C_R   0.571686 0.761033 0.530671 -0.076252
C37   C     C_R   0.600217 0.843078 0.555714 -0.008494
C38   C     C_R   0.498641 0.626856 0.539687 0.451336
C39   C     C_R   0.510827 0.598444 0.479746 -0.238738
C40   C     C_R   0.558404 0.649507 0.444906 -0.085941
C41   C     C_R   0.590731 0.730854 0.470464 -0.016679
C42   C     C_R   0.640392 0.782310 0.435768 -0.023813
C43   C     C_R   0.671340 0.863663 0.461512 -0.138051
C44   C     C_R   0.650867 0.893697 0.520661 -0.144323
C45   C     C_R   0.572905 0.621145 0.384816 0.593390
N4    N     N_R   0.620998 0.671896 0.351477 -0.549495
C46   C     C_R   0.656791 0.751140 0.375997 0.625442
O15   O     O_2   0.604191 0.951072 0.639610 -0.502403
O16   O     O_2   0.457068 0.694858 0.660110 -0.450400
H9    H     H_    0.482355 0.535870 0.460659 0.174987
O17   O     O_2   0.537131 0.543561 0.359926 -0.513914
O18   O     O_2   0.708383 0.799741 0.342725 -0.501078
H10   H     H_    0.710043 0.904613 0.435985 0.178570
H11   H     H_    0.674719 0.956847 0.538802 0.163806
C47   C     C_R   0.496812 0.667370 0.253632 0.519032
C48   C     C_R   0.507358 0.637242 0.193763 -0.271735
H12   H     H_    0.405965 0.658668 0.166507 0.137903
C49   C     C_R   0.649661 0.581360 0.169154 -0.095595
C50   C     C_R   0.782096 0.555934 0.205390 -0.205617
H13   H     H_    0.892885 0.512777 0.187568 0.145903
C51   C     C_R   0.770899 0.585032 0.265074 -0.182902
H14   H     H_    0.873319 0.564129 0.292259 0.158491
C52   C     C_R   0.630488 0.641702 0.289739 0.272875
C53   C     C_R   0.653167 0.842747 0.747875 -0.041938
H15   H     H_    0.781946 0.809522 0.731402 0.150856
C54   C     C_R   0.633969 0.874236 0.807011 -0.153891
H16   H     H_    0.749389 0.863740 0.834862 0.178747
C55   C     C_R   0.468405 0.917941 0.830099 -0.145435
C56   C     C_R   0.321259 0.929458 0.791536 0.345331
C57   C     C_R   0.342597 0.897775 0.732168 -0.110407
H17   H     H_    0.230303 0.907188 0.702974 0.161748
C58   C     C_R   0.507962 0.854318 0.710027 0.294345
C59   C     C_2   0.642904 0.269601 0.001679 -0.346980
H18   H     H_    0.777417 0.238663 0.005174 0.151593
C60   C     C_2   0.472650 0.230187 0.997639 -0.340063
H19   H     H_    0.338157 0.261100 0.994061 0.145428
O19   O     O_R   0.618210 0.960470 0.922400 -0.540212
O20   O     O_R   0.291310 0.111960 0.995450 -0.547643
O21   O     O_R   0.124210 0.039530 0.077580 -0.549246
C61   C     C_R   0.460906 0.145073 0.998282 0.760429
O22   O     O_R   0.288310 0.965490 0.917650 -0.498020
O23   O     O_R   0.121180 0.892010 0.999220 -0.522508
C62   C     C_R   0.456719 0.950259 0.893738 0.812180
O24   O     O_R   0.621230 0.107990 0.000760 -0.542120
O25   O     O_3   0.455770 0.976060 0.026840 -0.377098
V3    V     V_3+5 0.179680 0.004440 0.995020 1.535707
O26   O     O_R   0.791670 0.888040 0.004570 -0.544887
C63   C     C_R   0.962046 0.855159 0.002281 0.758231
O27   O     O_R   0.794680 0.034510 0.082370 -0.547163
C64   C     C_R   0.964079 0.049851 0.105899 0.704888
V4    V     V_3+5 0.680070 0.995560 0.005010 1.484024
O28   O     O_3   0.953840 0.023940 0.973160 -0.356378
Cl1   Cl    Cl    0.294981 0.749220 0.938309 -0.663744
O29   O     O_3   0.730059 0.226353 0.285955 -0.530219
C65   C     C_3   0.551279 0.191508 0.292704 -0.198713
H20   H     H_    0.567658 0.142875 0.315227 0.128653
H21   H     H_    0.477462 0.169142 0.250598 0.135491
H22   H     H_    0.458054 0.237978 0.319597 0.201904
Cl2   Cl    Cl    0.756976 0.424342 0.700170 -0.559859
Cl3   Cl    Cl    0.791630 0.504393 0.832202 -0.472242
O30   O     O_3   0.449975 0.355291 0.828085 -0.513051
C66   C     C_3   0.424479 0.280335 0.840119 -0.150675
H23   H     H_    0.412384 0.231828 0.799998 0.157462
H24   H     H_    0.296248 0.280269 0.867702 0.097300
H25   H     H_    0.553065 0.267510 0.864108 0.155904
O31   O     O_3   0.447971 0.574576 0.572202 -0.525635
C67   C     C_3   0.606098 0.524054 0.574992 -0.048256
H26   H     H_    0.569587 0.486761 0.604749 0.229586
H27   H     H_    0.737950 0.558904 0.592160 0.152771
H28   H     H_    0.635733 0.482789 0.532508 0.085828
O32   O     O_3   0.362776 0.725473 0.276828 -0.531620
C68   C     C_3   0.184073 0.688165 0.279656 -0.200730
H29   H     H_    0.194763 0.643897 0.306109 0.130187
H30   H     H_    0.127686 0.659422 0.236018 0.134379
H31   H     H_    0.078279 0.734309 0.300546 0.207777
O33   O     O_3   0.867331 0.752146 0.051534 -0.581414
C69   C     C_3   0.677751 0.735384 0.030399 -0.099884
H32   H     H_    0.673381 0.701478 0.984484 0.179003
H33   H     H_    0.591412 0.790978 0.037110 0.159798
H34   H     H_    0.608025 0.697775 0.055594 0.134558
Cl4   Cl    Cl    0.111287 0.985684 0.814515 -0.640483

loop_
_geom_bond_atom_site_label_1
_geom_bond_atom_site_label_2
_ccdc_geom_bond_type
O25   V4    S    
C30   C31   A    
C54   H16   S    
C18   H4    S    
N4    C46   A    
C55   C56   A    
C1    O6    A    
N3    C58   S    
O30   C66   S    
C67   H28   S    
O26   C63   A    
C8    O12   S    
C22   H6    S    
O27   C64   A    
C66   H24   S    
O20   C61   A    
C33   C37   A    
C35   C36   A    
O24   V4    S    
C20   O14   S    
O20   V3    S    
C15   C16   A    
N4    C52   S    
C42   C43   A    
O5    C3    A    
C17   C18   A    
C68   H31   S    
C50   C51   A    
C19   O13   S    
O33   C69   S    
C57   H17   S    
C31   H8    S    
C40   C45   A    
C37   C44   A    
V4    O28   S    
C45   O17   S    
C28   Cl3   S    
C5    Cl1   S    
C12   H1    S    
V3    O28   S    
O8    V2    S    
C23   C24   A    
O27   V4    S    
C41   C42   A    
C9    C12   A    
C10   C11   A    
C17   H3    S    
C43   C44   A    
O1    V2    S    
O7    V1    S    
O23   V3    S    
C66   H25   S    
C51   H14   S    
C24   C25   A    
C39   C40   A    
C33   N3    A    
C54   C55   A    
C8    C9    A    
C4    C5    S    
C34   C35   A    
C25   O29   S    
C69   H34   S    
O25   V3    S    
C57   C58   A    
C5    C6    D    
O19   V4    S    
C22   C23   A    
C34   O16   S    
C56   Cl4   S    
C2    C59   S    
O21   V3    S    
C43   H10   S    
C40   C41   A    
C42   C46   A    
N2    C20   A    
C69   H33   S    
C53   H15   S    
O4    C2    A    
C27   Cl2   S    
C50   H13   S    
C13   H2    S    
C67   H27   S    
C1    C49   S    
C12   C13   A    
C49   C50   A    
C16   C20   A    
N3    C34   A    
O22   V3    S    
O2    C1    A    
C21   H5    S    
C16   C17   A    
C53   C54   A    
C48   H12   S    
C68   H29   S    
C56   C57   A    
C59   C60   D    
C25   C26   A    
C13   C14   A    
C60   C61   S    
C10   C15   A    
N1    C8    A    
C21   C22   A    
O29   C65   S    
O26   V4    S    
O3    C4    A    
C27   C32   A    
C24   H7    S    
C48   C49   A    
C51   C52   A    
C47   C48   A    
O6    V2    S    
C46   O18   S    
O9    V2    S    
O21   C64   A    
O31   C67   S    
C65   H21   S    
O2    V1    S    
C33   O15   S    
C27   C28   A    
C66   H23   S    
C39   H9    S    
C29   C30   A    
C6    O33   S    
C35   C38   A    
C14   C19   A    
O1    C2    A    
C61   O24   A    
C45   N4    A    
C55   C62   S    
C6    C63   S    
O5    V1    S    
O8    C3    A    
O22   C62   A    
C28   C29   A    
C67   H26   S    
N2    C26   S    
C36   C41   A    
C47   C52   A    
C69   H32   S    
C19   N2    A    
C7    N1    A    
C7    C11   A    
O7    V2    S    
C11   C18   A    
O4    V1    S    
C47   O32   S    
O3    V1    S    
V1    O10   S    
O19   C62   A    
C68   H30   S    
C21   C26   A    
C65   H22   S    
C59   H18   S    
C31   C32   A    
C60   H19   S    
C3    C29   S    
O32   C68   S    
O23   C63   A    
C36   C37   A    
C23   C64   S    
C30   O30   S    
C38   C39   A    
C14   C15   A    
C9    C10   A    
C7    O11   S    
C53   C58   A    
C65   H20   S    
O9    C4    A    
N1    C32   S    
C38   O31   S    
V2    O10   S    
C44   H11   S    
