data_mof_unit_36149.cif
_audit_creation_date              2012-12-11T15:31:41-0500
_audit_creation_method            fapswitch 2.2
_symmetry_space_group_name_H-M    P1
_symmetry_Int_Tables_number       1
_space_group_crystal_system       triclinic
_cell_length_a                    6.941504
_cell_length_b                    14.761399
_cell_length_c                    21.305212
_cell_angle_alpha                 74.901824
_cell_angle_beta                  90.22917
_cell_angle_gamma                 90.614781
_cell_volume                      2107.58605093

loop_
_atom_site_label
_atom_site_type_symbol
_atom_type_description
_atom_site_fract_x
_atom_site_fract_y
_atom_site_fract_z
_atom_type_partial_charge
O1    O     O_R   0.648150 0.130050 0.214300 -0.536019
O2    O     O_R   0.351850 0.869950 0.785700 -0.536026
O3    O     O_R   0.320490 0.006660 0.340150 -0.540996
O4    O     O_R   0.679510 0.993340 0.659850 -0.540992
O5    O     O_R   0.146100 0.869940 0.285700 -0.540810
O6    O     O_R   0.853900 0.130060 0.714300 -0.540805
C1    C     C_R   0.489175 0.001607 0.367144 0.691537
C2    C     C_R   0.510825 0.998393 0.632856 0.691540
O7    O     O_R   0.318690 0.137980 0.218120 -0.534199
O8    O     O_R   0.681310 0.862020 0.781880 -0.534197
O9    O     O_R   0.144280 0.002190 0.162800 -0.543822
O10   O     O_R   0.855720 0.997810 0.837200 -0.543824
C3    C     C_R   0.488351 0.175583 0.206046 0.709296
C4    C     C_R   0.511648 0.824416 0.793955 0.709286
O11   O     O_R   0.649960 0.997790 0.337200 -0.538700
O12   O     O_R   0.350040 0.002210 0.662800 -0.538705
O13   O     O_3   0.479300 0.955290 0.231990 -0.375484
O14   O     O_3   0.520700 0.044710 0.768010 -0.375480
V1    V     V_3+5 0.206040 0.008290 0.253340 1.448981
V2    V     V_3+5 0.793960 0.991710 0.746660 1.448982
O15   O     O_R   0.814320 0.993320 0.159850 -0.545280
O16   O     O_R   0.185680 0.006680 0.840150 -0.545277
C5    C     C_R   0.982929 0.998381 0.132844 0.671119
C6    C     C_R   0.017071 0.001619 0.867156 0.671121
O17   O     O_R   0.816120 0.862000 0.281880 -0.542800
O18   O     O_R   0.183880 0.138000 0.718120 -0.542800
C7    C     C_R   0.984170 0.824367 0.294040 0.690152
C8    C     C_R   0.015830 0.175633 0.705957 0.690153
V3    V     V_3+5 0.705540 0.991700 0.246660 1.433538
V4    V     V_3+5 0.294460 0.008300 0.753340 1.433530
O19   O     O_3   0.982150 0.044700 0.268010 -0.358604
O20   O     O_3   0.017850 0.955300 0.731990 -0.358610
C9    C     C_R   0.990248 0.722895 0.321624 -0.031003
C10   C     C_R   0.009751 0.277103 0.678368 -0.030988
C11   C     C_R   0.986418 0.566025 0.307873 -0.131672
C12   C     C_R   0.013389 0.433975 0.692116 -0.131687
C13   C     C_R   0.983576 0.662586 0.281188 -0.189936
C14   C     C_R   0.016220 0.337414 0.718804 -0.189946
C15   C     C_R   0.997551 0.686849 0.388988 -0.195494
C16   C     C_R   0.002621 0.313143 0.611001 -0.195513
C17   C     C_R   0.996827 0.588768 0.417913 0.070517
C18   C     C_R   0.003267 0.411223 0.582072 0.070518
C19   C     C_R   0.993485 0.527919 0.375790 0.098838
C20   C     C_R   0.006488 0.472077 0.624198 0.098851
C21   C     C_R   0.999179 0.549681 0.486989 0.023041
C22   C     C_R   0.000935 0.450310 0.512997 0.023048
C23   C     C_R   0.001531 0.393090 0.469146 -0.194596
C24   C     C_R   0.998544 0.606902 0.530839 -0.194590
C25   C     C_R   0.997319 0.430380 0.402195 0.127334
C26   C     C_R   0.002686 0.569613 0.597788 0.127341
H1    H     H_    0.997489 0.262012 0.583095 0.090325
H2    H     H_    0.002883 0.737981 0.416896 0.090317
H3    H     H_    0.022990 0.309662 0.771117 0.102268
H4    H     H_    0.976644 0.690343 0.228875 0.102262
H5    H     H_    0.981971 0.521981 0.274561 0.157014
H6    H     H_    0.017700 0.478017 0.725424 0.157012
H7    H     H_    0.005919 0.317863 0.484969 0.143700
H8    H     H_    0.994142 0.682126 0.515012 0.143704
C27   C     C_3   0.820595 0.993983 0.977602 -0.117572
C28   C     C_3   0.179405 0.006017 0.022398 -0.117570
C29   C     C_3   0.916255 0.919748 0.033775 -0.145272
C30   C     C_3   0.083745 0.080252 0.966224 -0.145270
H9    H     H_    0.847187 0.853549 0.062001 0.098205
H10   H     H_    0.152813 0.146450 0.937999 0.098200
H11   H     H_    0.672279 0.989095 0.958971 0.108048
H12   H     H_    0.327721 0.010905 0.041029 0.108047
C31   C     C_3   0.992375 0.998945 0.062233 -0.003983
C32   C     C_3   0.007625 0.001054 0.937767 -0.003981
C33   C     C_3   0.896815 0.073198 0.006864 -0.138161
C34   C     C_3   0.103184 0.926802 0.993135 -0.138161
H13   H     H_    0.811429 0.133489 0.012955 0.102277
H14   H     H_    0.188571 0.866511 0.987045 0.102277
C35   C     C_3   0.681280 0.996249 0.479006 -0.112185
C36   C     C_3   0.318720 0.003751 0.520994 -0.112191
C37   C     C_3   0.600836 0.074417 0.507684 -0.132765
C38   C     C_3   0.399164 0.925582 0.492316 -0.132761
H15   H     H_    0.683932 0.135867 0.514463 0.116050
H16   H     H_    0.316068 0.864132 0.485537 0.116043
H17   H     H_    0.830896 0.993268 0.461462 0.119410
H18   H     H_    0.169104 0.006732 0.538538 0.119408
C39   C     C_3   0.502774 0.998974 0.562258 -0.018902
C40   C     C_3   0.497225 0.001025 0.437742 -0.018895
C41   C     C_3   0.583255 0.920816 0.534392 -0.134185
C42   C     C_3   0.416745 0.079184 0.465608 -0.134189
H19   H     H_    0.651645 0.855444 0.563214 0.139915
H20   H     H_    0.348356 0.144555 0.436786 0.139893
C43   C     C_R   0.501014 0.276861 0.178246 -0.042066
C44   C     C_R   0.498957 0.723138 0.821754 -0.042077
C45   C     C_R   0.568310 0.432024 0.190257 -0.136819
C46   C     C_R   0.431223 0.568001 0.809763 -0.136877
C47   C     C_R   0.545735 0.336121 0.217713 -0.118275
C48   C     C_R   0.453923 0.663899 0.782303 -0.118301
C49   C     C_R   0.478534 0.313286 0.111193 -0.217209
C50   C     C_R   0.521617 0.686704 0.888799 -0.217222
C51   C     C_R   0.502697 0.410446 0.081720 0.086725
C52   C     C_R   0.497206 0.589563 0.918288 0.086712
C53   C     C_R   0.548304 0.469493 0.122861 0.129725
C54   C     C_R   0.451371 0.530528 0.877152 0.129746
C55   C     C_R   0.485353 0.450601 0.013097 0.062148
C56   C     C_R   0.514494 0.549412 0.986910 0.062149
C57   C     C_R   0.559460 0.604740 0.030221 -0.190735
C58   C     C_R   0.440203 0.395287 0.969795 -0.190736
C59   C     C_R   0.575465 0.565406 0.096619 -0.200352
C60   C     C_R   0.424075 0.434626 0.903402 -0.200381
H21   H     H_    0.610617 0.610764 0.127810 0.120112
H22   H     H_    0.388746 0.389286 0.872223 0.120129
H23   H     H_    0.554593 0.736693 0.916253 0.091095
H24   H     H_    0.445894 0.263275 0.083724 0.091055
H25   H     H_    0.435213 0.692052 0.730380 0.144157
H26   H     H_    0.564298 0.307974 0.269645 0.144123
H27   H     H_    0.603648 0.476952 0.221706 0.130108
H28   H     H_    0.395703 0.523092 0.778331 0.130145
H29   H     H_    0.583980 0.679305 0.014618 0.118183
H30   H     H_    0.415487 0.320737 0.985409 0.118205
I1    I     I_    0.999724 0.331456 0.344855 -0.515821
I2    I     I_    0.000161 0.668543 0.655124 -0.515845

loop_
_geom_bond_atom_site_label_1
_geom_bond_atom_site_label_2
_ccdc_geom_bond_type
C29   C34   S    
C43   C47   A    
C57   H29   S    
C46   H28   S    
O4    C2    A    
V1    O19   S    
C60   H22   S    
C15   C17   A    
C21   C22   A    
C7    C9    S    
O9    V1    S    
C48   H25   S    
C9    C15   A    
C36   C38   S    
C58   H30   S    
C47   H26   S    
C11   C13   A    
C42   H20   S    
O3    C1    A    
C49   H24   S    
C51   C55   A    
C37   C42   S    
O12   V4    S    
C52   C56   A    
O13   V3    S    
C28   C30   S    
C18   C22   A    
C5    C31   S    
C33   H13   S    
O7    C3    A    
C30   H10   S    
O5    C7    A    
O7    V1    S    
O6    C8    A    
C44   C48   A    
C28   C31   S    
O8    V2    S    
C52   C54   A    
O3    V1    S    
O14   V4    S    
C45   C47   A    
C11   C19   A    
O14   V2    S    
C2    O12   A    
C24   C26   A    
C15   H2    S    
C8    C10   S    
C49   C51   A    
C36   H18   S    
C17   C19   A    
O10   V2    S    
C18   C20   A    
C38   C41   S    
C39   C41   S    
O11   V3    S    
O17   V3    S    
C44   C50   A    
C50   H23   S    
C27   C29   S    
C11   H5    S    
C2    C39   S    
C23   C25   A    
O8    C4    A    
C38   C40   S    
C37   C39   S    
C1    O11   A    
O15   V3    S    
C9    C13   A    
C30   C33   S    
C45   C53   A    
C31   C33   S    
C50   C52   A    
C12   H6    S    
C27   C32   S    
C23   H7    S    
C29   C31   S    
C46   C48   A    
C55   C56   A    
C28   C34   S    
C3    C43   S    
O1    V3    S    
C35   H17   S    
C59   H21   S    
C58   C60   A    
C37   H15   S    
C53   C59   A    
C27   C33   S    
C13   H4    S    
C25   I1    S    
O18   V4    S    
C40   C42   S    
O15   C5    A    
O16   C6    A    
C12   C20   A    
O1    C3    A    
C1    C40   S    
C35   C37   S    
C36   C39   S    
C35   C40   S    
V2    O20   S    
C21   C24   A    
C20   C26   A    
C36   C42   S    
O10   C6    A    
C22   C23   A    
O16   V4    S    
C41   H19   S    
C10   C14   A    
C29   H9    S    
C19   C25   A    
C38   H16   S    
C16   C18   A    
C51   C53   A    
C24   H8    S    
O5    V1    S    
O17   C7    A    
C16   H1    S    
O6    V2    S    
C45   H27   S    
O18   C8    A    
C57   C59   A    
C30   C32   S    
O2    V4    S    
C12   C14   A    
C4    C44   S    
V3    O19   S    
C27   H11   S    
V4    O20   S    
C14   H3    S    
C54   C60   A    
C43   C49   A    
O9    C5    A    
C56   C57   A    
O13   V1    S    
C46   C54   A    
C26   I2    S    
O2    C4    A    
C6    C32   S    
C28   H12   S    
O4    V2    S    
C55   C58   A    
C32   C34   S    
C17   C21   A    
C10   C16   A    
C34   H14   S    
C35   C41   S    
