data_mof_unit_7124.cif
_audit_creation_date              2012-12-11T16:18:02-0500
_audit_creation_method            fapswitch 2.2
_symmetry_space_group_name_H-M    P1
_symmetry_Int_Tables_number       1
_space_group_crystal_system       triclinic
_cell_length_a                    14.031616
_cell_length_b                    14.040622
_cell_length_c                    30.120859
_cell_angle_alpha                 97.318411
_cell_angle_beta                  97.469459
_cell_angle_gamma                 61.329817
_cell_volume                      5148.01498311

loop_
_atom_site_label
_atom_site_type_symbol
_atom_type_description
_atom_site_fract_x
_atom_site_fract_y
_atom_site_fract_z
_atom_type_partial_charge
C1    C     C_R   0.387108 0.705704 0.440236 0.544354
C2    C     C_R   0.396141 0.351789 0.221107 -0.109843
C3    C     C_R   0.407340 0.358208 0.267686 0.360926
C4    C     C_R   0.327473 0.360778 0.291950 0.027780
C5    C     C_R   0.302620 0.353320 0.198168 -0.029866
C6    C     C_1   0.300186 0.331787 0.150132 -0.078187
C7    C     C_1   0.346678 0.362702 0.340057 -0.012003
C8    C     C_1   0.292617 0.307397 0.110595 -0.036820
C9    C     C_R   0.753177 0.373802 0.397781 -0.042928
C10   C     C_R   0.810249 0.262563 0.381614 -0.065139
C11   C     C_R   0.822563 0.236835 0.334615 -0.019526
C12   C     C_R   0.399065 0.381642 0.426214 0.544379
C13   C     C_R   0.787895 0.323101 0.306519 -0.009686
C14   C     C_R   0.738504 0.431164 0.323723 0.409932
C15   C     C_R   0.720177 0.456579 0.368582 0.396442
C16   C     C_R   0.774325 0.357465 0.144601 0.013874
C17   C     C_R   0.805898 0.354069 0.101828 -0.143622
C18   C     C_R   0.987519 0.212587 0.122602 -0.120221
C19   C     C_R   0.958525 0.213529 0.165090 0.006761
C20   C     C_R   0.851691 0.287175 0.176395 0.039090
C21   C     C_1   0.825242 0.295388 0.221510 -0.030677
C22   C     C_1   0.807396 0.304851 0.260024 0.013916
C23   C     C_R   0.708516 0.406270 0.442063 0.568508
C24   C     C_R   0.912173 0.281861 0.091175 -0.002946
C25   C     C_R   0.370772 0.746792 0.394978 -0.008404
C26   C     C_R   0.437966 0.789464 0.383364 0.039708
C27   C     C_R   0.447573 0.793118 0.337638 0.435294
C28   C     C_R   0.388346 0.760623 0.304232 0.055202
C29   C     C_R   0.313500 0.731950 0.315321 -0.165098
C30   C     C_R   0.301721 0.725574 0.359943 -0.021800
C31   C     C_R   0.334968 0.757360 0.138091 0.007711
C32   C     C_R   0.297244 0.805130 0.096770 -0.147162
C33   C     C_R   0.351966 0.942746 0.124721 -0.133620
C34   C     C_R   0.390038 0.711333 0.568389 0.544058
C35   C     C_R   0.388341 0.898352 0.166172 -0.013727
C36   C     C_R   0.375698 0.807983 0.173540 0.035188
C37   C     C_1   0.389876 0.779660 0.218866 -0.033363
C38   C     C_1   0.393878 0.767336 0.257812 0.037491
C39   C     C_R   0.303566 0.898909 0.090489 -0.011923
C40   C     C_R   0.366357 0.366206 0.593066 -0.037092
C41   C     C_R   0.433657 0.273708 0.616770 -0.147532
C42   C     C_R   0.413855 0.270294 0.660515 -0.176243
C43   C     C_R   0.326689 0.358849 0.680750 0.058736
C44   C     C_R   0.254585 0.447817 0.656388 0.413564
C45   C     C_R   0.402479 0.383470 0.552509 0.550425
C46   C     C_R   0.273978 0.451201 0.612568 -0.074036
C47   C     C_R   0.281595 0.425347 0.846702 0.027134
C48   C     C_R   0.271528 0.404320 0.890625 -0.001337
C49   C     C_R   0.324643 0.215036 0.863261 -0.135898
C50   C     C_R   0.330286 0.236681 0.820698 -0.141817
C51   C     C_R   0.307414 0.340584 0.811967 0.026527
C52   C     C_1   0.310419 0.355510 0.766191 -0.020143
C53   C     C_1   0.315724 0.359709 0.727206 0.043183
C54   C     C_R   0.293516 0.297440 0.898150 0.028220
C55   C     C_1   0.760091 0.378791 0.613069 -0.010686
C56   C     C_R   0.713092 0.407954 0.568608 0.543023
C57   C     C_R   0.775334 0.438130 0.731314 0.032906
C58   C     C_R   0.792733 0.419678 0.777357 -0.075888
C59   C     C_R   0.875123 0.224703 0.759369 -0.111667
C60   C     C_R   0.857840 0.241218 0.713703 -0.115517
C61   C     C_R   0.809003 0.346823 0.699480 0.042919
C62   C     C_R   0.842499 0.313768 0.791193 0.022377
C63   C     C_1   0.870832 0.296714 0.838171 -0.061206
C64   C     C_1   0.787293 0.361084 0.652001 -0.059704
C65   C     C_1   0.902283 0.283734 0.877157 -0.016265
C66   C     C_1   0.377302 0.756674 0.613971 0.004897
C67   C     C_1   0.367295 0.367626 0.379972 -0.009122
C68   C     C_R   0.385781 0.719642 0.728089 0.397591
C69   C     C_R   0.373561 0.740929 0.774242 -0.088897
C70   C     C_R   0.310003 0.932566 0.766941 -0.131105
C71   C     C_R   0.322277 0.911455 0.720839 -0.181143
C72   C     C_R   0.359317 0.805154 0.701212 0.039036
C73   C     C_R   0.334763 0.847566 0.793668 -0.023292
C74   C     C_1   0.315324 0.872239 0.840511 -0.068622
C75   C     C_1   0.368567 0.783093 0.653511 -0.008136
C76   C     C_1   0.293878 0.901742 0.878964 -0.026899
C77   C     C_R   0.949985 0.273138 0.047537 0.531381
C78   C     C_R   0.230859 0.363780 0.269649 -0.036074
C79   C     C_R   0.275859 0.270693 0.065267 0.535789
C80   C     C_R   0.261295 0.954178 0.048799 0.531172
C81   C     C_R   0.951832 0.269178 0.922110 0.546239
C82   C     C_R   0.276979 0.267026 0.940190 0.530461
C83   C     C_R   0.261489 0.950612 0.922895 0.541033
C84   C     C_R   0.216079 0.365135 0.221921 0.009494
Cr1   Cr    Cr6+3 0.581000 0.584320 0.508140 1.046146
Cr2   Cr    Cr6+3 0.339110 0.576430 0.496080 1.012118
Cr3   Cr    Cr6+3 0.579910 0.339270 0.495810 1.008437
Cr4   Cr    Cr6+3 0.082090 0.079210 0.982490 1.015791
Cr5   Cr    Cr6+3 0.082460 0.324610 0.994920 1.004757
Cr6   Cr    Cr6+3 0.323630 0.087860 0.996130 1.014132
H1    H     H_    0.069668 0.156381 0.113620 0.119753
H2    H     H_    0.264084 0.768768 0.069485 0.113947
H3    H     H_    0.263495 0.714234 0.288515 0.106668
H4    H     H_    0.358279 0.014579 0.119659 0.133805
H5    H     H_    0.220461 0.523410 0.595048 0.154216
H6    H     H_    0.505194 0.207062 0.602629 0.144559
H7    H     H_    0.351185 0.171768 0.794099 0.108736
H8    H     H_    0.340213 0.133620 0.868487 0.134482
H9    H     H_    0.469303 0.200712 0.679236 0.118034
H10   H     H_    0.461381 0.344222 0.202827 0.124432
H11   H     H_    0.769751 0.486521 0.802953 0.103657
H12   H     H_    0.915257 0.142437 0.769878 0.117706
H13   H     H_    0.882783 0.171427 0.689375 0.114942
H14   H     H_    0.392711 0.674770 0.794606 0.121357
H15   H     H_    0.279742 0.015445 0.781671 0.122265
H16   H     H_    0.301794 0.977997 0.700487 0.116764
H17   H     H_    0.748201 0.407014 0.076992 0.105597
O1    O     O_R   0.688580 0.499770 0.460490 -0.453764
O2    O     O_R   0.348600 0.476260 0.536540 -0.500062
O3    O     O_R   0.494840 0.313840 0.539010 -0.514626
O4    O     O_R   0.672120 0.351750 0.545910 -0.500739
O5    O     O_3   0.500010 0.500010 0.500010 -0.239020
O6    O     O_R   0.167510 0.972920 0.030390 -0.517176
O7    O     O_R   0.990840 0.178580 0.027590 -0.496059
O8    O     O_R   0.972840 0.345510 0.038590 -0.519577
O9    O     O_R   0.181550 0.320660 0.045200 -0.498869
O10   O     O_R   0.346150 0.177650 0.050510 -0.512322
O11   O     O_R   0.314200 0.996600 0.036060 -0.500203
O12   O     O_R   0.480400 0.672610 0.462660 -0.480675
O13   O     O_R   0.168690 0.969990 0.933130 -0.510100
O14   O     O_R   0.991920 0.175870 0.937430 -0.492310
O15   O     O_R   0.974010 0.342590 0.941330 -0.508121
O16   O     O_R   0.182630 0.317940 0.955040 -0.502397
O17   O     O_R   0.347320 0.174720 0.953250 -0.515718
O18   O     O_R   0.315290 0.993890 0.945900 -0.494591
O19   O     O_3   0.162730 0.163890 0.991180 -0.240555
O20   O     O_R   0.315310 0.685650 0.451800 -0.534025
O21   O     O_R   0.346220 0.474990 0.446280 -0.512612
O22   O     O_R   0.492270 0.312460 0.441630 -0.508959
O23   O     O_R   0.669740 0.350480 0.455640 -0.505597
O24   O     O_R   0.691150 0.501150 0.557860 -0.510581
O25   O     O_R   0.482790 0.673890 0.552920 -0.500820
O26   O     O_R   0.317880 0.687030 0.549170 -0.501965
C85   C     C_3   0.147527 0.362336 0.296964 -0.256756
C86   C     C_3   0.056879 0.477748 0.308032 -0.301608
C87   C     C_3   0.976222 0.475972 0.336878 -0.421041
H18   H     H_    0.940608 0.424613 0.319254 0.171048
H19   H     H_    0.017614 0.442954 0.369617 0.140639
H20   H     H_    0.909512 0.559946 0.343232 0.191355
H21   H     H_    0.093087 0.528015 0.326501 0.155782
H22   H     H_    0.011966 0.516444 0.276724 0.171642
H23   H     H_    0.113958 0.309022 0.279609 0.125104
H24   H     H_    0.187053 0.323641 0.328890 0.136420
C88   C     C_3   0.042477 0.132344 0.196874 -0.253403
C89   C     C_3   0.021002 0.035715 0.199026 -0.293098
C90   C     C_3   0.032006 0.968739 0.154081 -0.423673
H25   H     H_    0.970206 0.018304 0.128101 0.170382
H26   H     H_    0.114512 0.938167 0.142893 0.175001
H27   H     H_    0.018509 0.898633 0.157800 0.132139
H28   H     H_    0.080150 0.982201 0.224729 0.136961
H29   H     H_    0.937929 0.065232 0.209275 0.158564
H30   H     H_    0.042379 0.173090 0.231015 0.113783
H31   H     H_    0.125973 0.100723 0.186188 0.130869
C91   C     C_3   0.868228 0.119965 0.314015 -0.233130
C92   C     C_3   0.778390 0.085737 0.300807 -0.275940
C93   C     C_3   0.716360 0.123467 0.255517 -0.402968
H32   H     H_    0.673327 0.213429 0.256145 0.225629
H33   H     H_    0.772525 0.089492 0.228312 0.126889
H34   H     H_    0.654521 0.094511 0.248017 0.139086
H35   H     H_    0.816713 0.995418 0.298968 0.136121
H36   H     H_    0.718611 0.118092 0.326709 0.187718
H37   H     H_    0.913806 0.108010 0.284668 0.127961
H38   H     H_    0.930658 0.062507 0.337471 0.110768
C94   C     C_3   0.337776 0.649365 0.142122 -0.245568
C95   C     C_3   0.224106 0.660017 0.143803 -0.291545
C96   C     C_3   0.185991 0.692359 0.191188 -0.441514
H39   H     H_    0.102389 0.702467 0.190646 0.127463
H40   H     H_    0.240966 0.627751 0.213869 0.158047
H41   H     H_    0.184920 0.770311 0.204363 0.161156
H42   H     H_    0.163680 0.719797 0.120359 0.157231
H43   H     H_    0.227478 0.579939 0.132662 0.148539
H44   H     H_    0.375622 0.594200 0.112385 0.110993
H45   H     H_    0.391383 0.608044 0.171676 0.151673
C97   C     C_3   0.214566 0.695003 0.367095 -0.213993
C98   C     C_3   0.115026 0.793303 0.386650 -0.293614
C99   C     C_3   0.029688 0.761469 0.395409 -0.449994
H46   H     H_    0.001138 0.729986 0.363640 0.147738
H47   H     H_    0.064402 0.698009 0.419925 0.160755
H48   H     H_    0.958691 0.833872 0.409402 0.144326
H49   H     H_    0.138993 0.828411 0.418516 0.181929
H50   H     H_    0.077839 0.857695 0.362458 0.141675
H51   H     H_    0.185139 0.666528 0.334653 0.117462
H52   H     H_    0.248007 0.623680 0.387282 0.195799
C100  C     C_3   0.497437 0.834551 0.418487 -0.205512
C101  C     C_3   0.417301 0.931870 0.447226 -0.338320
C102  C     C_3   0.476765 0.979864 0.481020 -0.448957
H53   H     H_    0.535358 0.917644 0.503976 0.152879
H54   H     H_    0.521344 0.009183 0.463328 0.159688
H55   H     H_    0.416831 0.049763 0.501322 0.149841
H56   H     H_    0.358208 0.996030 0.425077 0.160197
H57   H     H_    0.370973 0.906641 0.465931 0.159589
H58   H     H_    0.558899 0.770364 0.439794 0.200492
H59   H     H_    0.545083 0.862962 0.402315 0.206406
C103  C     C_3   0.440010 0.949294 0.201996 -0.250762
C104  C     C_3   0.354950 0.037847 0.231865 -0.292940
C105  C     C_3   0.409197 0.080172 0.270705 -0.424931
H60   H     H_    0.470239 0.012447 0.290730 0.216185
H61   H     H_    0.450157 0.120617 0.257739 0.153925
H62   H     H_    0.346724 0.139727 0.293111 0.140532
H63   H     H_    0.297043 0.106771 0.211607 0.152453
H64   H     H_    0.308105 0.004955 0.245829 0.171118
H65   H     H_    0.505000 0.885307 0.222703 0.184558
H66   H     H_    0.481019 0.985617 0.186040 0.130964
C106  C     C_3   0.109195 0.382325 0.195665 -0.238727
C107  C     C_3   0.048877 0.496401 0.178073 -0.293491
C108  C     C_3   0.939048 0.517853 0.153857 -0.450350
H67   H     H_    0.888589 0.507864 0.176516 0.163700
H68   H     H_    0.895491 0.602329 0.143249 0.136595
H69   H     H_    0.950948 0.460660 0.123577 0.186126
H70   H     H_    0.035441 0.559054 0.206518 0.153492
H71   H     H_    0.097860 0.505532 0.154404 0.172007
H72   H     H_    0.125681 0.319114 0.167240 0.144824
H73   H     H_    0.053776 0.373672 0.215796 0.144680
F1    F     F_    0.514695 0.828143 0.325335 -0.652154
C109  C     C_3   0.240648 0.492286 0.929306 -0.262388
C110  C     C_3   0.341402 0.478438 0.960420 -0.298461
C111  C     C_3   0.310964 0.565296 0.999677 -0.458282
H74   H     H_    0.271981 0.647844 0.987154 0.155731
H75   H     H_    0.254070 0.559135 0.020186 0.149229
H76   H     H_    0.385540 0.553453 0.021391 0.137020
H77   H     H_    0.381945 0.396930 0.974014 0.166641
H78   H     H_    0.400298 0.484644 0.941106 0.162027
H79   H     H_    0.198785 0.575147 0.917327 0.138251
H80   H     H_    0.179862 0.490140 0.948683 0.162157
C112  C     C_3   0.267422 0.534904 0.836394 -0.255517
C113  C     C_3   0.148504 0.610949 0.821137 -0.291227
C114  C     C_3   0.134051 0.720734 0.810511 -0.427419
H81   H     H_    0.159845 0.760285 0.840478 0.154381
H82   H     H_    0.182986 0.709813 0.782326 0.190967
H83   H     H_    0.046957 0.774784 0.800515 0.152582
H84   H     H_    0.122684 0.573145 0.790524 0.202926
H85   H     H_    0.094641 0.624400 0.847798 0.152864
H86   H     H_    0.296498 0.573205 0.865712 0.132209
H87   H     H_    0.320255 0.523625 0.809611 0.165353
F2    F     F_    0.169088 0.533503 0.675723 -0.632986
C115  C     C_3   0.722823 0.552310 0.714979 -0.240641
C116  C     C_3   0.691497 0.646424 0.751768 -0.305584
C117  C     C_3   0.646032 0.755660 0.731507 -0.441506
H88   H     H_    0.710056 0.758721 0.714494 0.159371
H89   H     H_    0.575993 0.768232 0.706748 0.164693
H90   H     H_    0.618088 0.822590 0.758511 0.147206
H91   H     H_    0.628558 0.648589 0.771405 0.175782
H92   H     H_    0.764450 0.635023 0.774645 0.159162
H93   H     H_    0.780642 0.556029 0.694121 0.153702
H94   H     H_    0.648050 0.565218 0.693063 0.193772
F3    F     F_    0.422071 0.616012 0.709561 -0.636581
F4    F     F_    0.498024 0.359245 0.289365 -0.650962
C118  C     C_3   0.658334 0.435543 0.155534 -0.254011
C119  C     C_3   0.648715 0.542172 0.180131 -0.260776
C120  C     C_3   0.640587 0.621528 0.147708 -0.447528
H95   H     H_    0.713620 0.585223 0.128361 0.155623
H96   H     H_    0.567315 0.643053 0.123788 0.157543
H97   H     H_    0.634085 0.697096 0.166898 0.153014
H98   H     H_    0.574306 0.581398 0.198743 0.187550
H99   H     H_    0.719087 0.525756 0.205311 0.216448
H100  H     H_    0.602121 0.453013 0.124485 0.126499
H101  H     H_    0.630036 0.396507 0.176867 0.142373
F5    F     F_    0.705356 0.513359 0.296465 -0.608003
F6    F     F_    0.664883 0.563495 0.382884 -0.590412
C121  C     C_3   0.865743 0.175159 0.415263 -0.230553
C122  C     C_3   0.805274 0.109171 0.417425 -0.274114
C123  C     C_3   0.831976 0.058762 0.462354 -0.445048
H102  H     H_    0.921258 0.006014 0.468191 0.143556
H103  H     H_    0.803296 0.123538 0.490190 0.166469
H104  H     H_    0.790414 0.008416 0.462135 0.135343
H105  H     H_    0.715719 0.161617 0.412527 0.205074
H106  H     H_    0.830141 0.041834 0.390657 0.141202
H107  H     H_    0.951446 0.119742 0.407668 0.116065
H108  H     H_    0.873874 0.213446 0.449191 0.141603

loop_
_geom_bond_atom_site_label_1
_geom_bond_atom_site_label_2
_ccdc_geom_bond_type
C58   C62   A    
C1    C25   S    
C55   C56   S    
Cr5   O8    S    
C95   H43   S    
C95   C96   S    
C2    H10   S    
C41   C42   A    
Cr2   O5    S    
C35   C36   A    
C93   H34   S    
C109  C110  S    
Cr1   O5    S    
C109  H80   S    
C34   C66   S    
C123  H104  S    
C63   C65   T    
C89   C90   S    
C101  C102  S    
C101  H56   S    
Cr3   O3    S    
C107  C108  S    
C115  C116  S    
C111  H76   S    
C40   C46   A    
C113  H84   S    
C117  H90   S    
C119  C120  S    
C33   C39   A    
C74   C76   T    
C116  H91   S    
C18   C24   A    
C112  H87   S    
Cr6   O11   S    
Cr3   O23   S    
C28   C29   A    
C112  C113  S    
C122  H106  S    
C72   C75   S    
Cr1   O25   S    
C5    C6    S    
C45   O2    A    
C41   H6    S    
Cr3   O4    S    
Cr5   O15   S    
C103  H66   S    
C120  H96   S    
C100  H59   S    
C103  H65   S    
C19   C88   S    
Cr4   O6    S    
C100  C101  S    
C18   C19   A    
C1    O12   A    
C32   C39   A    
C88   H31   S    
Cr1   O12   S    
C110  H77   S    
Cr4   O19   S    
C35   C103  S    
C116  C117  S    
C85   H24   S    
C97   C98   S    
C93   H33   S    
C43   C53   S    
C99   H48   S    
C46   H5    S    
C114  H81   S    
C68   C69   A    
C50   H7    S    
C27   F1    S    
C66   C75   T    
C100  H58   S    
C69   C73   A    
C70   C71   A    
C121  H107  S    
Cr1   O1    S    
C9    C10   A    
C56   O4    A    
C89   H28   S    
C11   C91   S    
C68   C72   A    
C98   H50   S    
C84   C106  S    
C120  H97   S    
C99   H47   S    
C103  C104  S    
C49   H8    S    
C48   C109  S    
C34   O25   A    
C59   C60   A    
C13   C14   A    
C33   H4    S    
C96   H40   S    
C97   H51   S    
C40   C45   S    
C3    F4    S    
C83   O18   A    
C4    C7    S    
Cr5   O9    S    
C118  C119  S    
C76   C83   S    
C82   O17   A    
C44   C46   A    
C101  H57   S    
C90   H26   S    
Cr5   O19   S    
C16   C118  S    
C73   C74   S    
C86   H21   S    
C12   C67   S    
C80   O11   A    
C92   C93   S    
C17   C24   A    
C12   O22   A    
C116  H92   S    
C86   H22   S    
Cr2   O21   S    
C51   C52   S    
Cr6   O10   S    
C91   H38   S    
C86   C87   S    
Cr2   O2    S    
C110  C111  S    
C87   H19   S    
C14   F5    S    
C44   F2    S    
C117  H89   S    
C5    C84   A    
C123  H103  S    
C108  H67   S    
C16   C17   A    
C47   C51   A    
Cr3   O5    S    
Cr5   O16   S    
C34   O26   A    
C68   F3    S    
C25   C26   A    
C70   C73   A    
C106  H73   S    
C92   H36   S    
C118  H101  S    
C23   O23   A    
C81   O14   A    
C60   C61   A    
C87   H20   S    
C83   O13   A    
C61   C64   S    
C48   C54   A    
C43   C44   A    
C4    C78   A    
C37   C38   T    
C85   H23   S    
C90   H27   S    
Cr2   O26   S    
C65   C81   S    
C98   C99   S    
C47   C112  S    
C28   C38   S    
C29   C30   A    
C16   C20   A    
C55   C64   T    
C106  H72   S    
C62   C63   S    
C14   C15   A    
C50   C51   A    
Cr6   O19   S    
C94   H45   S    
C58   H11   S    
C80   O6    A    
C78   C85   S    
C91   C92   S    
C89   H29   S    
C12   O21   A    
Cr4   O14   S    
C105  H61   S    
C99   H46   S    
C114  H82   S    
C119  H99   S    
C26   C27   A    
C96   H39   S    
C49   C50   A    
C10   C121  S    
C94   H44   S    
C2    C5    A    
Cr4   O13   S    
C42   C43   A    
C18   H1    S    
C102  H54   S    
C3    C4    A    
C60   H13   S    
C20   C21   S    
C82   O16   A    
C54   C82   S    
C57   C115  S    
C15   F6    S    
C52   C53   T    
C113  H85   S    
C90   H25   S    
C92   H35   S    
C69   H14   S    
C95   H42   S    
C31   C94   S    
C94   C95   S    
C59   C62   A    
C105  H62   S    
Cr2   O20   S    
C45   O3    A    
C59   H12   S    
Cr6   O17   S    
C115  H94   S    
C91   H37   S    
C31   C32   A    
C9    C23   S    
C1    O20   A    
C105  H60   S    
C47   C48   A    
C70   H15   S    
C109  H79   S    
C97   H52   S    
C6    C8    T    
C118  H100  S    
C57   C61   A    
C123  H102  S    
C104  H64   S    
C111  H75   S    
C85   C86   S    
C81   O15   A    
C88   C89   S    
C112  H86   S    
C39   C80   S    
C115  H93   S    
C19   C20   A    
C17   H17   S    
C2    C3    A    
C111  H74   S    
C122  H105  S    
C88   H30   S    
C8    C79   S    
C77   O8    A    
C42   H9    S    
C121  C122  S    
C29   H3    S    
C11   C13   A    
C108  H69   S    
Cr3   O22   S    
C57   C58   A    
C32   H2    S    
C107  H70   S    
C102  H55   S    
C79   O9    A    
C23   O1    A    
C79   O10   A    
C121  H108  S    
C117  H88   S    
C25   C30   A    
C33   C35   A    
Cr6   O18   S    
C13   C22   S    
C108  H68   S    
Cr4   O7    S    
C77   O7    A    
C104  H63   S    
C110  H78   S    
C120  H95   S    
C56   O24   A    
C10   C11   A    
C98   H49   S    
C7    C67   T    
C104  C105  S    
C78   C84   A    
C24   C77   S    
C119  H98   S    
C114  H83   S    
C93   H32   S    
C106  C107  S    
C96   H41   S    
C36   C37   S    
C113  C114  S    
C71   H16   S    
C27   C28   A    
C122  C123  S    
C107  H71   S    
C31   C36   A    
C87   H18   S    
C40   C41   A    
C71   C72   A    
C102  H53   S    
C21   C22   T    
C30   C97   S    
Cr1   O24   S    
C49   C54   A    
C9    C15   A    
C26   C100  S    
