data_mof_unit_23148.cif
_audit_creation_date              2012-12-10T18:58:47-0500
_audit_creation_method            fapswitch 2.2
_symmetry_space_group_name_H-M    P1
_symmetry_Int_Tables_number       1
_space_group_crystal_system       triclinic
_cell_length_a                    13.016045
_cell_length_b                    10.884891
_cell_length_c                    9.545312
_cell_angle_alpha                 91.40508
_cell_angle_beta                  96.53757
_cell_angle_gamma                 91.248074
_cell_volume                      1342.75391401

loop_
_atom_site_label
_atom_site_type_symbol
_atom_type_description
_atom_site_fract_x
_atom_site_fract_y
_atom_site_fract_z
_atom_type_partial_charge
C1    C     C_R   0.495931 0.262624 0.497894 0.784756
C2    C     C_R   0.027614 0.479663 0.564247 0.164626
C3    C     C_R   0.970799 0.504368 0.433863 0.117314
C4    C     C_R   0.863765 0.505932 0.422815 -0.197558
C5    C     C_R   0.868239 0.462317 0.671160 -0.145722
C6    C     C_R   0.975822 0.457585 0.682450 -0.178784
C7    C     C_R   0.479117 0.068596 0.619540 0.070256
C8    C     C_R   0.483287 0.130036 0.494226 -0.080713
C9    C     C_R   0.474817 0.060877 0.367164 -0.212952
C10   C     C_R   0.476722 0.932440 0.369934 -0.184337
C11   C     C_R   0.489752 0.871673 0.499649 -0.102628
C12   C     C_R   0.300229 0.500428 0.472901 0.812333
C13   C     C_R   0.486459 0.942625 0.623290 0.088579
C14   C     C_3   0.551910 0.954138 0.764253 0.038507
C15   C     C_3   0.538735 0.092120 0.760463 -0.479340
C16   C     C_R   0.579409 0.555271 0.087918 0.209536
C17   C     C_R   0.427932 0.434030 0.061416 -0.077342
C18   C     C_R   0.426816 0.435617 0.912368 -0.086389
C19   C     C_R   0.582493 0.549000 0.940661 0.162380
C20   C     C_3   0.623033 0.676734 0.938180 0.036828
C21   C     C_3   0.606579 0.689604 0.093179 0.025754
C22   C     C_R   0.498995 0.738100 0.501036 0.829585
C23   C     C_R   0.699384 0.496464 0.526596 0.848439
C24   C     C_R   0.811969 0.488770 0.541564 -0.060877
C25   C     C_R   0.186719 0.501001 0.455666 -0.095264
C26   C     C_R   0.021297 0.528376 0.315974 -0.235790
C27   C     C_R   0.128946 0.526018 0.324841 0.242681
C28   C     C_R   0.135022 0.477718 0.574157 -0.311917
Cu1   Cu    Cu3+1 0.499990 0.499980 0.640670 0.959548
Cu2   Cu    Cu3+1 0.500010 0.500020 0.359330 0.976782
H1    H     H_    0.821032 0.520887 0.320949 0.200702
H2    H     H_    0.488556 0.126916 0.838748 0.173609
H3    H     H_    0.611217 0.147291 0.756865 0.209107
H4    H     H_    0.369576 0.381152 0.106968 0.147006
H5    H     H_    0.366328 0.385500 0.845995 0.137590
H6    H     H_    0.570541 0.731231 0.868042 0.143157
H7    H     H_    0.538182 0.745712 0.108104 0.095665
H8    H     H_    0.829225 0.444195 0.763034 0.183929
H9    H     H_    0.977083 0.549980 0.216743 0.178042
H10   H     H_    0.018344 0.437315 0.783130 0.133432
H11   H     H_    0.178250 0.458134 0.674759 0.159801
H12   H     H_    0.471532 0.105466 0.266607 0.161422
H13   H     H_    0.472623 0.881758 0.270579 0.165457
H14   H     H_    0.513317 0.914540 0.851333 0.110561
N1    N     N_R   0.500660 0.500930 0.148010 -0.197791
N2    N     N_R   0.500660 0.500890 0.852110 -0.202233
O1    O     O_R   0.500000 0.319640 0.618810 -0.584189
O2    O     O_R   0.500010 0.319680 0.381230 -0.591867
O3    O     O_R   0.348990 0.499960 0.599490 -0.600070
O4    O     O_R   0.349000 0.500000 0.361910 -0.552181
O5    O     O_R   0.499990 0.680320 0.618770 -0.579932
O6    O     O_R   0.500000 0.680360 0.381190 -0.570405
O7    O     O_R   0.651000 0.500000 0.638090 -0.556957
O8    O     O_R   0.651010 0.500040 0.400510 -0.564233
N3    N     N_2   0.659996 0.919805 0.766610 -0.390070
H15   H     H_    0.702527 0.942752 0.861884 0.289394
C29   C     C_3   0.716475 0.942388 0.646590 -0.525285
H16   H     H_    0.800318 0.929286 0.677436 0.226317
H17   H     H_    0.706050 0.037454 0.609140 0.200319
H18   H     H_    0.691865 0.875263 0.559583 0.244917
Br1   Br    Br    0.766198 0.676762 0.896430 -0.491829
Br2   Br    Br    0.725801 0.738648 0.225855 -0.503450
N4    N     N_2   0.178158 0.554456 0.203601 -0.398680
H19   H     H_    0.162749 0.641987 0.169295 0.257218
C30   C     C_3   0.160480 0.463579 0.089636 -0.690426
H20   H     H_    0.206450 0.489273 0.003279 0.216660
H21   H     H_    0.077534 0.458951 0.046400 0.219115
H22   H     H_    0.184367 0.371623 0.127456 0.227889

loop_
_geom_bond_atom_site_label_1
_geom_bond_atom_site_label_2
_ccdc_geom_bond_type
C16   N1    A    
C8    C9    A    
C12   O4    A    
C23   C24   S    
N4    C30   S    
C1    O2    A    
C23   O7    A    
C16   C21   S    
C25   C27   A    
C1    C8    S    
C11   C13   A    
C9    C10   A    
C12   C25   S    
C11   C22   S    
C19   C20   S    
C30   H21   S    
Cu1   N2    S    
N3    H15   S    
C30   H22   S    
C7    C15   S    
C12   O3    A    
C9    H12   S    
C19   N2    A    
C7    C8    A    
Cu1   O3    S    
C5    H8    S    
C25   C28   A    
Cu2   O8    S    
C26   C27   A    
Cu1   Cu2   S    
C5    C24   A    
C27   N4    S    
Cu1   O1    S    
C16   C19   A    
C18   N2    A    
C14   H14   S    
C17   N1    A    
C14   N3    S    
C22   O6    A    
C29   H16   S    
C10   C11   A    
N3    C29   S    
Cu2   O4    S    
C5    C6    A    
C4    C24   A    
C6    H10   S    
C26   H9    S    
C29   H17   S    
C4    H1    S    
C2    C28   A    
C17   H4    S    
Cu1   O5    S    
N4    H19   S    
C20   H6    S    
C28   H11   S    
C7    C13   A    
C21   H7    S    
C20   C21   S    
C23   O8    A    
C17   C18   A    
C30   H20   S    
C18   H5    S    
Cu2   O2    S    
C20   Br1   S    
Cu2   O6    S    
C14   C15   S    
C1    O1    A    
C29   H18   S    
C2    C3    A    
Cu2   N1    S    
C21   Br2   S    
C10   H13   S    
C13   C14   S    
C15   H3    S    
C3    C26   A    
C3    C4    A    
C2    C6    A    
C22   O5    A    
Cu1   O7    S    
C15   H2    S    
