data_mof_unit_65774.cif
_audit_creation_date              2012-12-10T18:01:13-0500
_audit_creation_method            fapswitch 2.2
_symmetry_space_group_name_H-M    P1
_symmetry_Int_Tables_number       1
_space_group_crystal_system       triclinic
_cell_length_a                    18.203933
_cell_length_b                    18.289231
_cell_length_c                    26.056905
_cell_angle_alpha                 89.898717
_cell_angle_beta                  90.132134
_cell_angle_gamma                 90.208494
_cell_volume                      8675.18611593

loop_
_atom_site_label
_atom_site_type_symbol
_atom_type_description
_atom_site_fract_x
_atom_site_fract_y
_atom_site_fract_z
_atom_type_partial_charge
C1    C     C_R   0.860019 0.140050 0.749712 0.924239
C2    C     C_R   0.196859 0.195473 0.249797 -0.171540
C3    C     C_R   0.283868 0.730134 0.204027 0.336854
C4    C     C_2   0.958856 0.860098 0.557510 1.019834
C5    C     C_2   0.094772 0.113685 0.552766 1.044493
C6    C     C_2   0.115703 0.094466 0.442374 0.968977
C7    C     C_2   0.933433 0.872665 0.444062 1.073773
C8    C     C_2   0.437140 0.366398 0.056980 1.009413
C9    C     C_2   0.613023 0.596315 0.052335 1.013222
C10   C     C_2   0.631890 0.571897 0.943079 0.986742
C11   C     C_2   0.414005 0.382996 0.944504 1.081641
C12   C     C_2   0.853849 0.005334 0.547882 0.986132
C13   C     C_R   0.196564 0.195750 0.750260 -0.174617
C14   C     C_2   0.913249 0.122375 0.558871 1.045234
C15   C     C_2   0.945340 0.134909 0.447404 1.000360
C16   C     C_2   0.851769 0.043217 0.446198 0.967888
C17   C     C_2   0.357962 0.530119 0.048268 0.996358
C18   C     C_2   0.438137 0.634694 0.057382 1.077246
C19   C     C_2   0.468277 0.639979 0.945692 1.001754
C20   C     C_2   0.361210 0.564728 0.946065 0.965599
C21   C     C_2   0.095525 0.705738 0.738584 1.008792
C22   C     C_2   0.747823 0.861624 0.830182 0.985326
C23   C     C_2   0.903820 0.706749 0.264747 1.006516
C24   C     C_R   0.803521 0.196096 0.749147 -0.184324
C25   C     C_2   0.211155 0.822365 0.153967 1.006105
C26   C     C_2   0.595338 0.205558 0.239257 1.011248
C27   C     C_2   0.238613 0.370784 0.322670 0.966067
C28   C     C_2   0.259327 0.350783 0.662949 0.986413
C29   C     C_2   0.595597 0.205758 0.760500 1.007109
C30   C     C_2   0.899581 0.297091 0.261665 0.978746
C31   C     C_2   0.266534 0.130562 0.177564 0.936503
C32   C     C_2   0.244673 0.151262 0.837028 0.947420
C33   C     C_2   0.899879 0.297074 0.737916 0.966063
C34   C     C_2   0.399756 0.797003 0.762322 0.974379
C35   C     C_R   0.303511 0.696081 0.750482 -0.181259
C36   C     C_2   0.758304 0.638572 0.671185 0.935945
C37   C     C_2   0.600835 0.795819 0.233517 0.959539
C38   C     C_2   0.282688 0.678561 0.346788 0.958318
C39   C     C_R   0.696715 0.695589 0.749876 -0.173496
C40   C     C_R   0.696425 0.695997 0.249332 -0.172574
C41   C     C_R   0.302347 0.695211 0.250558 -0.184474
C42   C     C_R   0.822934 0.270898 0.253458 -0.104123
C43   C     C_R   0.256516 0.191455 0.215130 -0.093652
C44   C     C_R   0.245520 0.202264 0.792212 -0.101389
C45   C     C_R   0.140057 0.139769 0.750090 0.971645
C46   C     C_R   0.823172 0.270950 0.746158 -0.095710
C47   C     C_R   0.323070 0.770900 0.753902 -0.093348
C48   C     C_R   0.752315 0.695532 0.712003 -0.085419
C49   C     C_R   0.677118 0.770498 0.244085 -0.090403
C50   C     C_R   0.268326 0.716118 0.296986 -0.083109
C51   C     C_R   0.267757 0.823029 0.751289 -0.193251
C52   C     C_R   0.804352 0.751584 0.712860 -0.197156
C53   C     C_R   0.732421 0.822906 0.246938 -0.195532
C54   C     C_R   0.217153 0.772688 0.295779 -0.196110
C55   C     C_R   0.767630 0.322991 0.250813 -0.181198
C56   C     C_R   0.140153 0.139731 0.249920 0.962491
C57   C     C_R   0.308628 0.247518 0.215951 -0.207960
C58   C     C_R   0.297333 0.258599 0.791354 -0.191960
C59   C     C_R   0.767928 0.323120 0.749037 -0.186010
C60   C     C_R   0.194142 0.802175 0.747869 -0.140461
C61   C     C_R   0.802697 0.805315 0.750707 -0.132676
C62   C     C_R   0.805736 0.802347 0.252203 -0.145024
C63   C     C_R   0.197303 0.805636 0.249418 -0.140895
C64   C     C_R   0.694015 0.302094 0.247778 -0.146807
C65   C     C_R   0.302735 0.305306 0.250490 -0.132623
C66   C     C_R   0.302479 0.305599 0.749305 -0.135294
C67   C     C_R   0.859999 0.140038 0.250148 0.918959
C68   C     C_R   0.694297 0.302283 0.752224 -0.143624
C69   C     C_R   0.000491 0.933523 0.973535 -0.154979
C70   C     C_R   0.000574 0.933567 0.026656 -0.156592
C71   C     C_R   0.499468 0.433539 0.473529 -0.152478
C72   C     C_R   0.499500 0.433583 0.526648 -0.149833
C73   C     C_R   0.000393 0.000028 0.053333 -0.010554
C74   C     C_R   0.000299 0.999936 0.946672 -0.009694
C75   C     C_R   0.499656 0.500042 0.553328 -0.008843
C76   C     C_R   0.499575 0.499950 0.446667 -0.012324
C77   C     C_R   0.000390 0.066436 0.026469 -0.158409
C78   C     C_R   0.359504 0.639623 0.250259 0.961583
C79   C     C_R   0.000353 0.066392 0.973352 -0.158077
C80   C     C_R   0.499548 0.566453 0.526464 -0.157556
C81   C     C_R   0.499475 0.566408 0.473345 -0.161752
C82   C     C_R   0.139414 0.859578 0.749433 0.860298
C83   C     C_R   0.860066 0.860132 0.749891 0.871440
C84   C     C_R   0.860577 0.859700 0.250576 0.874929
C85   C     C_R   0.139899 0.860154 0.250239 0.895481
C86   C     C_R   0.639349 0.359531 0.249383 0.859972
C87   C     C_R   0.360050 0.360163 0.249881 0.863377
C88   C     C_R   0.360085 0.360187 0.750125 0.903558
C89   C     C_R   0.639905 0.639969 0.249782 0.919592
C90   C     C_R   0.639507 0.359647 0.750602 0.868885
C91   C     C_R   0.000070 0.999956 0.890991 0.812786
C92   C     C_R   0.000142 0.000033 0.109011 0.810296
C93   C     C_R   0.499852 0.499959 0.390989 0.810847
C94   C     C_R   0.499914 0.500036 0.609009 0.814121
C95   C     C_R   0.999504 0.000612 0.608797 0.862197
C96   C     C_R   0.999497 0.002126 0.391197 0.877252
C97   C     C_R   0.499651 0.500010 0.108760 0.848142
C98   C     C_R   0.499754 0.500927 0.891187 0.871173
C99   C     C_3   0.997966 0.922710 0.529599 -0.285434
C100  C     C_R   0.640073 0.639801 0.749977 0.959315
C101  C     C_3   0.070118 0.040603 0.530234 -0.312809
C102  C     C_3   0.073226 0.033809 0.470615 -0.320136
C103  C     C_3   0.990132 0.923270 0.469533 -0.257284
C104  C     C_3   0.485468 0.422982 0.029566 -0.282992
C105  C     C_3   0.576478 0.527649 0.030254 -0.291262
C106  C     C_3   0.578465 0.519881 0.970764 -0.315241
C107  C     C_3   0.478019 0.424542 0.969576 -0.254530
C108  C     C_3   0.924343 0.048287 0.531406 -0.294083
C109  C     C_3   0.929559 0.057205 0.469063 -0.290186
C110  C     C_3   0.434605 0.559450 0.030994 -0.316725
C111  C     C_R   0.360031 0.640050 0.750165 0.929544
C112  C     C_3   0.440470 0.566392 0.968550 -0.297586
C113  C     C_3   0.996342 0.004424 0.551357 -0.116594
C114  C     C_3   0.996076 0.005102 0.448703 -0.127719
C115  C     C_3   0.497527 0.504067 0.051266 -0.116139
C116  C     C_3   0.497390 0.504269 0.948593 -0.126622
C117  C     C_R   0.173795 0.727805 0.744795 -0.109526
C118  C     C_R   0.748212 0.805213 0.789038 -0.105219
C119  C     C_R   0.825832 0.728241 0.256894 -0.107706
C120  C     C_R   0.230213 0.784799 0.202963 -0.120162
C121  C     C_R   0.673649 0.227686 0.245088 -0.107110
C122  C     C_R   0.803412 0.196035 0.250426 -0.174605
C123  C     C_R   0.243916 0.309448 0.285384 -0.104194
C124  C     C_R   0.254003 0.299540 0.707299 -0.114588
C125  C     C_R   0.673879 0.227879 0.754675 -0.115408
C126  C     C_R   0.729033 0.174486 0.245872 0.337523
C127  C     C_R   0.190158 0.254261 0.284340 0.330905
C128  C     C_R   0.199370 0.245141 0.708749 0.349318
C129  C     C_R   0.729145 0.174629 0.753630 0.341487
C130  C     C_R   0.229166 0.674600 0.745565 0.333854
C131  C     C_R   0.693925 0.750542 0.787646 0.328746
C132  C     C_R   0.770386 0.674851 0.256006 0.337161
Cl1   Cl    Cl    0.705748 0.081147 0.236130 -0.537863
Cl2   Cl    Cl    0.111246 0.260740 0.323706 -0.533525
Cl3   Cl    Cl    0.129109 0.243294 0.661629 -0.505980
Cl4   Cl    Cl    0.705661 0.081255 0.762903 -0.473245
Cl5   Cl    Cl    0.205960 0.581370 0.735324 -0.496182
Cl6   Cl    Cl    0.618355 0.753917 0.830264 -0.531831
Cl7   Cl    Cl    0.792727 0.581953 0.268114 -0.529414
Cl8   Cl    Cl    0.333922 0.711383 0.147958 -0.484526
H1    H     H_    0.055460 0.904408 0.536810 0.119893
H2    H     H_    0.848006 0.752756 0.684668 0.188952
H3    H     H_    0.718948 0.880322 0.242516 0.219843
H4    H     H_    0.189893 0.789184 0.330859 0.192446
H5    H     H_    0.781518 0.380590 0.253684 0.222851
H6    H     H_    0.355147 0.246128 0.190044 0.199549
H7    H     H_    0.335832 0.264775 0.822914 0.211509
H8    H     H_    0.781833 0.380722 0.746236 0.205278
H9    H     H_    0.000531 0.881598 0.953606 0.182767
H10   H     H_    0.000699 0.881655 0.046732 0.185205
H11   H     H_    0.499439 0.381613 0.453601 0.182687
H12   H     H_    0.115193 0.004120 0.543986 0.158752
H13   H     H_    0.499478 0.381669 0.546721 0.183319
H14   H     H_    0.000342 0.118364 0.046395 0.177856
H15   H     H_    0.000297 0.118307 0.953281 0.178529
H16   H     H_    0.499579 0.618379 0.546391 0.178941
H17   H     H_    0.499433 0.618322 0.453270 0.180781
H18   H     H_    0.887131 0.824829 0.611079 0.354475
H19   H     H_    0.086372 0.223629 0.554758 0.402247
H20   H     H_    0.128185 0.200756 0.423803 0.399185
H21   H     H_    0.843107 0.808574 0.448904 0.362738
H22   H     H_    0.358498 0.341086 0.108636 0.353664
H23   H     H_    0.111496 0.987153 0.464272 0.167582
H24   H     H_    0.623653 0.706091 0.053429 0.365299
H25   H     H_    0.660072 0.673328 0.920144 0.391762
H26   H     H_    0.313363 0.336708 0.949474 0.368378
H27   H     H_    0.764804 0.997870 0.594276 0.371722
H28   H     H_    0.940272 0.192184 0.615981 0.383684
H29   H     H_    0.954794 0.198238 0.383909 0.398723
H30   H     H_    0.778420 0.976188 0.411615 0.369362
H31   H     H_    0.269979 0.539406 0.095323 0.370092
H32   H     H_    0.481489 0.700417 0.112089 0.393007
H33   H     H_    0.482534 0.700589 0.881407 0.409677
H34   H     H_    0.041032 0.895291 0.456218 0.117462
H35   H     H_    0.277546 0.510115 0.912180 0.370187
H36   H     H_    0.012542 0.639836 0.761167 0.358056
H37   H     H_    0.735053 0.884388 0.905379 0.359257
H38   H     H_    0.987276 0.640421 0.244777 0.357991
H39   H     H_    0.192530 0.917715 0.117124 0.350583
H40   H     H_    0.512535 0.139835 0.262407 0.357932
H41   H     H_    0.218945 0.402580 0.395450 0.361164
H42   H     H_    0.276083 0.454125 0.638129 0.350800
H43   H     H_    0.512432 0.140671 0.736993 0.358410
H44   H     H_    0.973858 0.378070 0.251736 0.376653
H45   H     H_    0.539355 0.396010 0.036879 0.115696
H46   H     H_    0.321045 0.092647 0.115685 0.372457
H47   H     H_    0.217959 0.052043 0.865773 0.348040
H48   H     H_    0.974265 0.377967 0.747856 0.374852
H49   H     H_    0.474000 0.878136 0.752895 0.377564
H50   H     H_    0.802962 0.608931 0.603468 0.367955
H51   H     H_    0.526572 0.877058 0.239434 0.367187
H52   H     H_    0.309979 0.585643 0.384135 0.347463
H53   H     H_    0.614890 0.484493 0.044362 0.156878
H54   H     H_    0.608056 0.467272 0.964731 0.161107
H55   H     H_    0.523742 0.388685 0.956417 0.118288
H56   H     H_    0.281615 0.880598 0.754431 0.202841
O1    O     O_3   1.000000 1.000000 0.749970 -0.530837
O2    O     O_R   0.646190 0.585480 0.219360 -0.570341
O3    O     O_R   0.566183 0.150589 0.729485 -0.715929
O4    O     O_2   0.943540 0.259960 0.285694 -0.587981
O5    O     O_R   0.920783 0.365924 0.243345 -0.750051
O6    O     O_2   0.230050 0.074457 0.180496 -0.621486
O7    O     O_R   0.319012 0.137285 0.138658 -0.764305
O8    O     O_2   0.271453 0.170510 0.877970 -0.586660
O9    O     O_R   0.214974 0.080901 0.832578 -0.831505
O10   O     O_2   0.943760 0.259991 0.713956 -0.605457
O11   O     O_R   0.921220 0.365826 0.756201 -0.768981
O12   O     O_2   0.443794 0.759574 0.786077 -0.590805
O13   O     O_R   0.646190 0.585480 0.780640 -0.604670
O14   O     O_R   0.420921 0.866083 0.744450 -0.772072
O15   O     O_2   0.725564 0.580307 0.674852 -0.654493
O16   O     O_R   0.802905 0.651422 0.628411 -0.768950
O17   O     O_2   0.557567 0.757085 0.209901 -0.626162
O18   O     O_R   0.579249 0.865615 0.249193 -0.751163
O19   O     O_2   0.275719 0.712008 0.387094 -0.599081
O20   O     O_R   0.301920 0.604589 0.347972 -0.788006
O21   O     O_R   0.353810 0.585480 0.780640 -0.578562
O22   O     O_R   0.146170 0.914530 0.719320 -0.629147
O23   O     O_R   0.853830 0.914530 0.719320 -0.584403
O24   O     O_R   0.853830 0.914530 0.280680 -0.598482
O25   O     O_R   0.146170 0.914530 0.280680 -0.617053
O26   O     O_R   0.646170 0.414530 0.219320 -0.617031
O27   O     O_R   0.353830 0.414530 0.219320 -0.598364
O28   O     O_R   0.353830 0.414530 0.780680 -0.580679
O29   O     O_3   0.000000 1.000000 0.250030 -0.530980
O30   O     O_R   0.646170 0.414530 0.780680 -0.621977
O31   O     O_R   0.085450 0.146180 0.780600 -0.620818
O32   O     O_R   0.914550 0.146180 0.780600 -0.633351
O33   O     O_R   0.914550 0.146180 0.219400 -0.636980
O34   O     O_R   0.085450 0.146180 0.219400 -0.616384
O35   O     O_R   0.585450 0.646180 0.280600 -0.637613
O36   O     O_R   0.414550 0.646180 0.280600 -0.624915
O37   O     O_R   0.414550 0.646180 0.719400 -0.636047
O38   O     O_R   0.585450 0.646180 0.719400 -0.615529
O39   O     O_R   0.914560 0.853830 0.780620 -0.636599
O40   O     O_3   0.500000 0.500000 0.249970 -0.532267
O41   O     O_R   0.085440 0.853830 0.780620 -0.633584
O42   O     O_R   0.085440 0.853830 0.219380 -0.630259
O43   O     O_R   0.914560 0.853830 0.219380 -0.642911
O44   O     O_R   0.414560 0.353830 0.280620 -0.631000
O45   O     O_R   0.585440 0.353830 0.280620 -0.635607
O46   O     O_R   0.585440 0.353830 0.719380 -0.632652
O47   O     O_R   0.414560 0.353830 0.719380 -0.638790
O48   O     O_R   0.000000 0.060730 0.866830 -0.643883
O49   O     O_R   0.000000 0.060730 0.133170 -0.646452
O50   O     O_R   0.500000 0.560730 0.366830 -0.642842
O51   O     O_3   0.500000 0.500000 0.750030 -0.531772
O52   O     O_R   0.500000 0.560730 0.633170 -0.646018
O53   O     O_R   0.939250 0.000010 0.633130 -0.581240
O54   O     O_R   0.060750 0.000010 0.633130 -0.629308
O55   O     O_R   0.060750 0.000010 0.366870 -0.634495
O56   O     O_R   0.939250 0.000010 0.366870 -0.570668
O57   O     O_R   0.439250 0.500010 0.133130 -0.579560
O58   O     O_R   0.560750 0.500010 0.133130 -0.620160
O59   O     O_R   0.560750 0.500010 0.866870 -0.633102
O60   O     O_R   0.439250 0.500010 0.866870 -0.574319
O61   O     O_R   1.000000 0.939270 0.866820 -0.644831
O62   O     O_R   0.853810 0.085480 0.719360 -0.569440
O63   O     O_R   0.000000 0.939270 0.133180 -0.644034
O64   O     O_R   0.500000 0.439270 0.366820 -0.643953
O65   O     O_R   0.500000 0.439270 0.633180 -0.643875
O66   O     O_2   0.974873 0.797176 0.546283 -0.571275
O67   O     O_R   0.907927 0.871962 0.596572 -0.763176
O68   O     O_2   0.146583 0.114891 0.582779 -0.548353
O69   O     O_R   0.062189 0.179427 0.538417 -0.686163
O70   O     O_2   0.173918 0.079349 0.421504 -0.572485
O71   O     O_R   0.091658 0.166667 0.440865 -0.715853
O72   O     O_2   0.941861 0.855715 0.399040 -0.611708
O73   O     O_R   0.146190 0.085480 0.719360 -0.588537
O74   O     O_R   0.874857 0.841594 0.471026 -0.689433
O75   O     O_2   0.445413 0.301749 0.046409 -0.576391
O76   O     O_R   0.385360 0.385116 0.094090 -0.744133
O77   O     O_2   0.662431 0.589681 0.083950 -0.573214
O78   O     O_R   0.594038 0.666256 0.035860 -0.705565
O79   O     O_2   0.689800 0.547473 0.926627 -0.583805
O80   O     O_R   0.617725 0.646145 0.936765 -0.706792
O81   O     O_2   0.420961 0.360817 0.900489 -0.633805
O82   O     O_R   0.349741 0.365437 0.971080 -0.687378
O83   O     O_2   0.835976 0.948946 0.526418 -0.541389
O84   O     O_R   0.146190 0.085480 0.280640 -0.593936
O85   O     O_R   0.808445 0.031062 0.587424 -0.723910
O86   O     O_2   0.861099 0.160865 0.546526 -0.522571
O87   O     O_R   0.955905 0.143518 0.601073 -0.782825
O88   O     O_2   0.954643 0.188301 0.474609 -0.481770
O89   O     O_R   0.945066 0.145576 0.394120 -0.795178
O90   O     O_2   0.804543 0.090327 0.451023 -0.564146
O91   O     O_R   0.831444 0.976968 0.423611 -0.727833
O92   O     O_2   0.329942 0.477371 0.027468 -0.536251
O93   O     O_R   0.318779 0.564095 0.087885 -0.694945
O94   O     O_2   0.395272 0.682510 0.043789 -0.472949
O95   O     O_R   0.853810 0.085480 0.280640 -0.581928
O96   O     O_R   0.483675 0.647972 0.099707 -0.791885
O97   O     O_2   0.489584 0.690914 0.971958 -0.477339
O98   O     O_R   0.465590 0.650111 0.892380 -0.793528
O99   O     O_2   0.322296 0.618861 0.950907 -0.560464
O100  O     O_R   0.330105 0.502436 0.923919 -0.726076
O101  O     O_2   0.056580 0.736881 0.707149 -0.638320
O102  O     O_R   0.066300 0.649625 0.768885 -0.716108
O103  O     O_2   0.760701 0.925639 0.819854 -0.594789
O104  O     O_R   0.733526 0.841311 0.880957 -0.733595
O105  O     O_2   0.941901 0.739238 0.296082 -0.610993
O106  O     O_R   0.353810 0.585480 0.219360 -0.573436
O107  O     O_R   0.933793 0.649669 0.236066 -0.712023
O108  O     O_2   0.198716 0.786611 0.115273 -0.530618
O109  O     O_R   0.206776 0.898674 0.152320 -0.781729
O110  O     O_2   0.556154 0.236433 0.207838 -0.641063
O111  O     O_R   0.566347 0.149694 0.269893 -0.710747
O112  O     O_2   0.250491 0.433624 0.308768 -0.610191
O113  O     O_R   0.220625 0.356542 0.373871 -0.726839
O114  O     O_2   0.252297 0.327916 0.619131 -0.545330
O115  O     O_R   0.273074 0.425121 0.671257 -0.783462
O116  O     O_2   0.556809 0.236064 0.792228 -0.627796
Zn1   Zn    Zn3+2 0.086750 0.999990 0.706190 1.084353
Zn2   Zn    Zn3+2 1.000000 0.086770 0.206250 1.058888
Zn3   Zn    Zn3+2 0.500000 0.586770 0.293750 1.054258
Zn4   Zn    Zn3+2 0.500000 0.586770 0.706250 1.062263
Zn5   Zn    Zn3+2 0.000000 0.913230 0.793740 1.034706
Zn6   Zn    Zn3+2 1.000000 0.913230 0.206260 1.043118
Zn7   Zn    Zn3+2 0.500000 0.413230 0.293740 1.032864
Zn8   Zn    Zn3+2 0.500000 0.413230 0.706260 1.043300
Zn9   Zn    Zn3+2 0.913250 0.999990 0.706190 1.123136
Zn10  Zn    Zn3+2 0.913250 0.999990 0.293810 1.113042
Zn11  Zn    Zn3+2 0.086750 0.999990 0.293810 1.107250
Zn12  Zn    Zn3+2 0.586750 0.499990 0.206190 1.093572
Zn13  Zn    Zn3+2 0.413250 0.499990 0.206190 1.114620
Zn14  Zn    Zn3+2 0.413250 0.499990 0.793810 1.128475
Zn15  Zn    Zn3+2 0.586750 0.499990 0.793810 1.092910
Zn16  Zn    Zn3+2 1.000000 0.086770 0.793750 1.060982

loop_
_geom_bond_atom_site_label_1
_geom_bond_atom_site_label_2
_ccdc_geom_bond_type
C99   C103  S    
C5    O69   S    
C19   O98   S    
C56   O84   A    
C101  C113  S    
C15   C109  S    
C100  O38   A    
C22   O103  D    
C70   H10   S    
C10   O79   D    
C35   C47   A    
O21   Zn14  S    
C8    O75   D    
C52   C61   A    
C55   H5    S    
C54   C63   A    
C67   O95   A    
C108  C109  S    
C78   O106  A    
H50   O16   S    
O106  Zn13  S    
C21   C117  S    
C118  C131  A    
C24   C129  A    
O41   Zn5   S    
C102  H23   S    
C29   O3    S    
O59   Zn15  S    
C68   C90   S    
C97   C115  S    
H40   O111  S    
O57   Zn13  S    
C63   C85   S    
C96   C114  S    
O25   Zn11  S    
C90   O30   A    
C16   C109  S    
C65   C87   S    
C77   C79   A    
O60   Zn14  S    
O2    Zn12  S    
C128  Cl3   S    
O56   Zn10  S    
C12   C108  S    
C18   O96   S    
C87   O27   A    
C108  C113  S    
O13   Zn15  S    
C23   O105  D    
C42   C55   A    
C25   O108  D    
C92   O49   A    
C69   C74   A    
C89   O35   A    
C8    C104  S    
C62   C119  A    
O30   Zn15  S    
C36   O16   S    
O51   Zn15  S    
H31   O93   S    
C83   O39   A    
C74   C79   A    
O23   Zn9   S    
H36   O102  S    
O33   Zn2   S    
C37   O18   S    
C1    O62   A    
O40   Zn13  S    
C22   C118  S    
C61   C118  A    
C99   H1    S    
O61   Zn5   S    
O31   Zn16  S    
O1    Zn16  S    
H21   O74   S    
C24   C46   A    
O29   Zn11  S    
C131  Cl6   S    
O44   Zn7   S    
C13   C45   S    
C39   C131  A    
C49   C53   A    
C28   O115  S    
C15   O89   S    
C6    C102  S    
C69   C70   A    
H43   O3    S    
C79   H15   S    
C125  C129  A    
C48   C52   A    
C67   O33   A    
C4    O66   D    
C20   O99   D    
C73   C77   A    
H42   O115  S    
C96   O55   A    
C13   C44   A    
C30   O4    D    
H48   O11   S    
C29   C125  S    
H30   O91   S    
C127  Cl2   S    
C88   O47   A    
C106  H54   S    
C132  Cl7   S    
O28   Zn14  S    
C18   O94   D    
C31   C43   S    
C21   O101  D    
C9    O77   D    
O24   Zn10  S    
H49   O14   S    
H51   O18   S    
C66   C88   S    
C59   C68   A    
C9    C105  S    
C40   C49   A    
C93   O64   A    
C100  O13   A    
C27   O112  D    
C85   O42   A    
C45   O31   A    
C84   O24   A    
C6    O70   D    
H37   O104  S    
C88   O28   A    
C26   C121  S    
C40   C89   S    
C11   O82   S    
C2    C127  A    
C7    C103  S    
H35   O100  S    
C15   O88   D    
C72   C75   A    
C95   O54   A    
C98   O59   A    
C103  C114  S    
O43   Zn6   S    
C41   C78   S    
C58   H7    S    
H32   O96   S    
O42   Zn6   S    
C103  H34   S    
O65   Zn8   S    
C83   O23   A    
C123  C127  A    
H47   O9    S    
O51   Zn14  S    
C16   O91   S    
C35   C130  A    
C109  C114  S    
H27   O85   S    
C1    O32   A    
C90   O46   A    
C10   C106  S    
C84   O43   A    
C112  C116  S    
C92   O63   A    
C97   O57   A    
C62   C84   S    
C33   O11   S    
H44   O5    S    
C19   O97   D    
C105  C115  S    
C7    O74   S    
C22   O104  S    
C73   C92   S    
C10   O80   S    
C28   C124  S    
H28   O87   S    
O40   Zn12  S    
C26   O110  D    
C71   C72   A    
C8    O76   S    
C2    C56   S    
O55   Zn11  S    
H46   O7    S    
C36   C48   S    
C104  C107  S    
C110  C112  S    
C107  C116  S    
C43   C57   A    
C91   O48   A    
C1    C24   S    
C4    C99   S    
O1    Zn5   S    
C28   O114  D    
C51   C60   A    
C111  O21   A    
C89   O2    A    
C94   O52   A    
C68   C125  A    
C54   H4    S    
C101  C102  S    
H41   O113  S    
C38   O19   D    
O62   Zn9   S    
O39   Zn5   S    
O64   Zn7   S    
C50   C54   A    
H29   O89   S    
O47   Zn8   S    
O37   Zn4   S    
H24   O78   S    
O49   Zn2   S    
C71   C76   A    
O73   Zn1   S    
C78   O36   A    
C64   C121  A    
C82   O41   A    
O53   Zn9   S    
C31   O6    D    
C20   C112  S    
C71   H11   S    
C44   C58   A    
C27   O113  S    
O22   Zn1   S    
C12   O85   S    
C124  C128  A    
C14   C108  S    
C57   H6    S    
C33   C46   S    
C37   O17   D    
C5    C101  S    
O29   Zn2   S    
C81   H17   S    
C61   C83   S    
C17   O92   D    
C47   C51   A    
O95   Zn10  S    
C34   O12   D    
C106  C116  S    
H38   O107  S    
O29   Zn10  S    
C32   O8    D    
C45   O73   A    
C91   O61   A    
C76   C93   S    
C104  C115  S    
C37   C49   S    
O40   Zn3   S    
C70   C73   A    
C56   O34   A    
C12   O83   D    
O34   Zn2   S    
O26   Zn12  S    
O32   Zn16  S    
C20   O100  S    
C96   O56   A    
C16   O90   D    
C25   C120  S    
C41   C50   A    
C30   O5    S    
O51   Zn4   S    
C72   H13   S    
C18   C110  S    
C14   O87   S    
C57   C65   A    
C99   C113  S    
O50   Zn3   S    
C105  C106  S    
C101  H12   S    
C69   H9    S    
C23   C119  S    
C98   O60   A    
C86   O45   A    
O52   Zn4   S    
C111  O37   A    
C65   C123  A    
H25   O80   S    
C93   O50   A    
C36   O15   D    
O58   Zn12  S    
C94   O65   A    
O35   Zn3   S    
H18   O67   S    
C6    O71   S    
C30   C42   S    
C34   C47   S    
C32   O9    S    
H39   O109  S    
C130  Cl5   S    
C110  C115  S    
C11   O81   D    
C75   C94   S    
C39   C48   A    
C74   C91   S    
C46   C59   A    
O27   Zn13  S    
C17   C110  S    
C95   O53   A    
O1    Zn9   S    
C19   C112  S    
C14   O86   D    
C105  H53   S    
C104  H45   S    
H22   O76   S    
C17   O93   S    
C102  C114  S    
C51   H56   S    
O1    Zn1   S    
O84   Zn11  S    
C13   C128  A    
C60   C82   S    
C58   C66   A    
C126  Cl1   S    
C5    O68   D    
C34   O14   S    
C75   C80   A    
C31   O7    S    
C59   H8    S    
C40   C132  A    
C26   O111  S    
C80   H16   S    
O45   Zn7   S    
C33   O10   D    
C64   C86   S    
C107  H55   S    
O46   Zn8   S    
C21   O102  S    
C9    O78   S    
C60   C117  A    
C27   C123  S    
O54   Zn1   S    
C52   H2    S    
C53   H3    S    
C122  C126  A    
C77   H14   S    
C129  Cl4   S    
C53   C62   A    
C98   C116  S    
C82   O22   A    
C2    C43   A    
C55   C64   A    
C119  C132  A    
C32   C44   S    
C117  C130  A    
O29   Zn6   S    
C29   O116  D    
C11   C107  S    
C66   C124  A    
C67   C122  S    
C35   C111  S    
C42   C122  A    
O63   Zn6   S    
O36   Zn3   S    
C3    C41   A    
C87   O44   A    
C38   O20   S    
C80   C81   A    
C76   C81   A    
O40   Zn7   S    
C38   C50   S    
H19   O69   S    
H33   O98   S    
C25   O109  S    
O38   Zn4   S    
C121  C126  A    
C63   C120  A    
C39   C100  S    
C85   O25   A    
C95   C113  S    
C4    O67   S    
O48   Zn16  S    
H52   O20   S    
C7    O72   D    
C23   O107  S    
C3    C120  A    
O51   Zn8   S    
H20   O71   S    
C3    Cl8   S    
C86   O26   A    
H26   O82   S    
C97   O58   A    
