data_mof_unit_21323.cif
_audit_creation_date              2013-03-05T16:36:16-0500
_audit_creation_method            fapswitch 2.2
_symmetry_space_group_name_H-M    P1
_symmetry_Int_Tables_number       1
_space_group_crystal_system       triclinic
_cell_length_a                    27.87145
_cell_length_b                    9.074752
_cell_length_c                    7.777559
_cell_angle_alpha                 90.042929
_cell_angle_beta                  89.99998
_cell_angle_gamma                 90.000078
_cell_volume                      1967.15019805

loop_
_atom_site_label
_atom_site_type_symbol
_atom_site_description
_atom_site_fract_x
_atom_site_fract_y
_atom_site_fract_z
_atom_type_partial_charge
O1    O     O_R   0.500000 0.288390 0.642760 -0.583066
O2    O     O_R   0.500000 0.711610 0.357240 -0.583066
O3    O     O_R   0.500000 0.711610 0.642760 -0.558395
O4    O     O_R   0.500000 0.288390 0.357240 -0.558395
C1    C     C_R   0.500002 0.220021 0.499955 0.855863
C2    C     C_R   0.500003 0.779979 0.500045 0.855863
O5    O     O_R   0.430260 0.500000 0.642770 -0.546172
O6    O     O_R   0.569740 0.500000 0.357230 -0.547029
O7    O     O_R   0.569740 0.500000 0.642770 -0.547030
O8    O     O_R   0.430260 0.500000 0.357230 -0.546172
C3    C     C_R   0.407230 0.499999 0.500000 0.887672
C4    C     C_R   0.592751 0.500000 0.500000 0.889486
Cu1   Cu    Cu3+1 0.500000 0.500000 0.669080 1.127008
Cu2   Cu    Cu3+1 0.500000 0.500000 0.330920 1.127008
C5    C     C_R   0.177709 0.370983 0.528616 0.560357
C6    C     C_R   0.822198 0.628291 0.467262 0.560446
C7    C     C_R   0.177709 0.629016 0.471380 0.560357
C8    C     C_R   0.822198 0.371704 0.532750 0.560447
O9    O     O_2   0.202396 0.245716 0.559086 -0.497818
O10   O     O_2   0.797507 0.752769 0.432724 -0.498394
O11   O     O_2   0.202395 0.754284 0.440909 -0.497818
O12   O     O_2   0.797507 0.247225 0.567288 -0.498393
N1    N     N_R   0.201832 0.500000 0.499998 -0.451636
N2    N     N_R   0.798079 0.499997 0.500006 -0.451561
C9    C     C_R   0.278525 0.580963 0.623570 -0.111724
C10   C     C_R   0.721391 0.416475 0.378738 -0.111320
C11   C     C_R   0.278526 0.419037 0.376427 -0.111723
C12   C     C_R   0.721391 0.583520 0.621270 -0.111317
C13   C     C_R   0.328575 0.582286 0.624193 0.320560
C14   C     C_R   0.671341 0.415226 0.378121 0.319343
C15   C     C_R   0.328576 0.417713 0.375806 0.320560
C16   C     C_R   0.671341 0.584773 0.621883 0.319344
C17   C     C_R   0.253365 0.500000 0.499998 0.201432
C18   C     C_R   0.746550 0.499997 0.500006 0.201534
C19   C     C_R   0.101727 0.499999 0.500000 -0.042800
C20   C     C_R   0.898178 0.499998 0.500005 -0.042343
C21   C     C_R   0.127342 0.368465 0.528056 -0.029442
C22   C     C_R   0.872564 0.630852 0.467859 -0.029600
C23   C     C_R   0.127342 0.631533 0.471943 -0.029442
C24   C     C_R   0.872564 0.369143 0.532151 -0.029600
C25   C     C_R   0.102325 0.237389 0.555109 -0.139560
C26   C     C_R   0.897581 0.761198 0.436314 -0.140519
C27   C     C_R   0.102324 0.762609 0.444890 -0.139561
C28   C     C_R   0.897581 0.238797 0.563696 -0.140520
C29   C     C_R   0.354312 0.500000 0.500000 -0.213999
C30   C     C_R   0.645635 0.500000 0.500001 -0.212865
H1    H     H_    0.258963 0.356183 0.280932 0.195238
H2    H     H_    0.740948 0.648367 0.714945 0.195449
H3    H     H_    0.258963 0.643817 0.719064 0.195237
H4    H     H_    0.740949 0.351628 0.285065 0.195449
H5    H     H_    0.121179 0.134546 0.576186 0.188203
H6    H     H_    0.878729 0.863339 0.410917 0.189615
H7    H     H_    0.121179 0.865452 0.423812 0.188203
H8    H     H_    0.878729 0.136656 0.589094 0.189615
C31   C     C_R   0.974430 0.366286 0.530925 0.044547
C32   C     C_R   0.025474 0.633998 0.470877 0.044743
C33   C     C_R   0.974430 0.633710 0.469081 0.044547
C34   C     C_R   0.025474 0.365999 0.529126 0.044742
C35   C     C_R   0.949244 0.499998 0.500004 0.070619
C36   C     C_R   0.050660 0.499999 0.500001 0.070272
C37   C     C_R   0.947369 0.237004 0.563112 -0.207426
C38   C     C_R   0.052537 0.764247 0.444660 -0.206118
C39   C     C_R   0.947368 0.762992 0.436895 -0.207426
C40   C     C_R   0.052538 0.235750 0.555341 -0.206118
H9    H     H_    0.963288 0.131510 0.589660 0.134406
H10   H     H_    0.036613 0.870660 0.423909 0.131982
H11   H     H_    0.963288 0.868486 0.410347 0.134405
H12   H     H_    0.036613 0.129337 0.576092 0.131981
C41   C     C_1   0.500004 0.065404 0.499939 -0.091855
C42   C     C_1   0.500004 0.934596 0.500061 -0.091855
N3    N     N_1   0.500000 0.500000 0.076820 0.005350
N4    N     N_1   0.500000 0.500000 0.923180 0.005350
Cl1   Cl    Cl    0.357144 0.305589 0.221350 -0.513323
Cl2   Cl    Cl    0.642670 0.699824 0.773114 -0.514256
Cl3   Cl    Cl    0.357144 0.694409 0.778651 -0.513322
Cl4   Cl    Cl    0.642671 0.300180 0.226884 -0.514255

loop_
_geom_bond_atom_site_label_1
_geom_bond_atom_site_label_2
_geom_bond_distance
_ccdc_geom_bond_type
C31   C35   1.422463 A    
Cu2   N3    1.976277 S    
C20   C35   1.423261 A    
C11   C17   1.397924 A    
C5    O9    1.349905 S    
C7    N1    1.368477 A    
O1    C1    1.271806 A    
C40   H12   1.075075 S    
C19   C21   1.408003 A    
C22   C26   1.394971 A    
C10   H4    1.083322 S    
C16   Cl2   1.763582 S    
C15   Cl1   1.763683 S    
C34   C36   1.422378 A    
C32   C33   1.422744 A    
C7    C23   1.403986 A    
O7    Cu1   1.954493 S    
C5    C21   1.403986 A    
C20   C24   1.408089 A    
C8    C24   1.403968 A    
C27   H7    1.083641 S    
N1    C17   1.436308 S    
C1    C41   1.403112 S    
C8    N2    1.368444 A    
O3    Cu1   1.931341 S    
C6    O10   1.349903 S    
O3    C2    1.272012 A    
C5    N1    1.368478 A    
C12   C18   1.398092 A    
C6    N2    1.368445 A    
Cu1   Cu2   2.630060 S    
C21   C25   1.394891 A    
O2    C2    1.271806 A    
C10   C18   1.398094 A    
C33   C39   1.417179 A    
C9    C13   1.395023 A    
C39   H11   1.075308 S    
C38   H10   1.075073 S    
C11   C15   1.395023 A    
C12   C16   1.395021 A    
C4    C30   1.473945 S    
O8    Cu2   1.954496 S    
C23   C27   1.394891 A    
C34   C40   1.417033 A    
N2    C18   1.436188 S    
C32   C36   1.422379 A    
C13   C29   1.415649 A    
C19   C36   1.423314 A    
C19   C23   1.408003 A    
C37   H9    1.075307 S    
C14   Cl4   1.763586 S    
O5    C3    1.282583 A    
O5    Cu1   1.954496 S    
O6    C4    1.282315 A    
C9    C17   1.397925 A    
C10   C14   1.395020 A    
C32   C38   1.417032 A    
C3    C29   1.474899 S    
O1    Cu1   1.931037 S    
C11   H1    1.083329 S    
C2    C42   1.403112 S    
C12   H2    1.083319 S    
O6    Cu2   1.954494 S    
C8    O12   1.349902 S    
C16   C30   1.415141 A    
C14   C30   1.415142 A    
O4    C1    1.272012 A    
C13   Cl3   1.763688 S    
Cu1   N4    1.976277 S    
C28   C37   1.387758 A    
C20   C22   1.408090 A    
N3    N4    1.194945 T    
C31   C37   1.417176 A    
O4    Cu2   1.931342 S    
C41   C42   1.187052 T    
O2    Cu2   1.931036 S    
O7    C4    1.282314 A    
C9    H3    1.083334 S    
C33   C35   1.422463 A    
O8    C3    1.282582 A    
C28   H8    1.083753 S    
C24   C28   1.394971 A    
C15   C29   1.415648 A    
C31   C34   1.422747 A    
C6    C22   1.403968 A    
C25   C40   1.387714 A    
C26   C39   1.387755 A    
C25   H5    1.083640 S    
C27   C38   1.387714 A    
C26   H6    1.083753 S    
C7    O11   1.349904 S    
