data_mof_unit_24824.cif
_audit_creation_date              2012-12-11T14:45:33-0500
_audit_creation_method            fapswitch 2.2
_symmetry_space_group_name_H-M    P1
_symmetry_Int_Tables_number       1
_space_group_crystal_system       triclinic
_cell_length_a                    24.864733
_cell_length_b                    7.184379
_cell_length_c                    14.449989
_cell_angle_alpha                 90.003778
_cell_angle_beta                  102.548143
_cell_angle_gamma                 89.991155
_cell_volume                      2519.65452519

loop_
_atom_site_label
_atom_site_type_symbol
_atom_type_description
_atom_site_fract_x
_atom_site_fract_y
_atom_site_fract_z
_atom_type_partial_charge
O1    O     O_R   0.319150 0.364170 0.330530 -0.542108
O2    O     O_R   0.680850 0.635830 0.669470 -0.532331
O3    O     O_R   0.180850 0.864170 0.169470 -0.542101
O4    O     O_R   0.819150 0.135830 0.830530 -0.532347
O5    O     O_R   0.210330 0.696850 0.354180 -0.546075
O6    O     O_R   0.789670 0.303150 0.645820 -0.533687
O7    O     O_R   0.289670 0.196850 0.145820 -0.546115
O8    O     O_R   0.710330 0.803150 0.854180 -0.533539
C1    C     C_R   0.197149 0.525615 0.378204 0.761449
C2    C     C_R   0.802663 0.474795 0.621645 0.768901
C3    C     C_R   0.302852 0.025590 0.121802 0.761458
C4    C     C_R   0.697339 0.974819 0.878359 0.768732
O9    O     O_R   0.320550 0.694110 0.341970 -0.530211
O10   O     O_R   0.679450 0.305890 0.658030 -0.536808
O11   O     O_R   0.179450 0.194110 0.158030 -0.530259
O12   O     O_R   0.820550 0.805890 0.841970 -0.536772
O13   O     O_R   0.291860 0.861000 0.157170 -0.521493
O14   O     O_R   0.708140 0.139000 0.842830 -0.542716
O15   O     O_R   0.208140 0.361000 0.342830 -0.521362
O16   O     O_R   0.791860 0.639000 0.657170 -0.542658
C5    C     C_R   0.341893 0.525992 0.360960 0.690327
C6    C     C_R   0.658373 0.474008 0.638226 0.683373
C7    C     C_R   0.158104 0.026012 0.139048 0.690401
C8    C     C_R   0.841630 0.973988 0.861768 0.683373
O17   O     O_3   0.240460 0.529330 0.189380 -0.378390
O18   O     O_3   0.759540 0.470670 0.810620 -0.378716
O19   O     O_3   0.259540 0.029330 0.310620 -0.378304
O20   O     O_3   0.740460 0.970670 0.689380 -0.378783
V1    V     V_3+5 0.251770 0.805510 0.261240 1.508336
V2    V     V_3+5 0.748230 0.194490 0.738760 1.500287
V3    V     V_3+5 0.248230 0.305510 0.238760 1.508246
V4    V     V_3+5 0.751770 0.694490 0.761240 1.500482
C9    C     C_R   0.102431 0.020780 0.077394 -0.180439
C10   C     C_R   0.897132 0.978939 0.923942 -0.181052
C11   C     C_R   0.397563 0.520680 0.422617 -0.180338
C12   C     C_R   0.602872 0.479039 0.576050 -0.181032
C13   C     C_R   0.954367 0.915921 0.080465 0.451011
C14   C     C_R   0.044791 0.089731 0.921933 0.450012
C15   C     C_R   0.545686 0.417057 0.419372 0.450957
C16   C     C_R   0.455153 0.588671 0.578238 0.450016
C17   C     C_R   0.902728 0.921898 0.017604 -0.323978
C18   C     C_R   0.096372 0.084933 0.984789 -0.326199
C19   C     C_R   0.597316 0.422839 0.482266 -0.324183
C20   C     C_R   0.403581 0.584052 0.515352 -0.326281
C21   C     C_R   0.944338 0.030299 0.889945 0.390362
C22   C     C_R   0.055496 0.963295 0.110888 0.388653
C23   C     C_R   0.555636 0.529730 0.610138 0.390389
C24   C     C_R   0.444530 0.463839 0.389024 0.388649
C25   C     C_R   0.997098 0.030353 0.952928 -0.070997
C26   C     C_R   0.002431 0.968897 0.048704 -0.068768
C27   C     C_R   0.502881 0.529943 0.547138 -0.071023
C28   C     C_R   0.497590 0.469334 0.451231 -0.068757
H1    H     H_    0.132567 0.131699 0.961049 0.143690
H2    H     H_    0.866185 0.880828 0.041977 0.145065
H3    H     H_    0.367360 0.630332 0.539173 0.143563
H4    H     H_    0.633883 0.382281 0.457819 0.145153
C29   C     C_R   0.665542 0.985089 0.952876 -0.189406
C30   C     C_R   0.333958 0.021649 0.046090 -0.190143
C31   C     C_R   0.834472 0.484964 0.547144 -0.189436
C32   C     C_R   0.166057 0.521801 0.453938 -0.190207
C33   C     C_R   0.658971 0.020265 0.118097 0.364065
C34   C     C_R   0.343242 0.107504 0.886871 0.359027
C35   C     C_R   0.841032 0.518668 0.381846 0.364077
C36   C     C_R   0.156709 0.608841 0.612975 0.359009
C37   C     C_R   0.691497 0.015142 0.049073 0.200523
C38   C     C_R   0.310127 0.088825 0.954248 0.204534
C39   C     C_R   0.808502 0.514007 0.450869 0.200469
C40   C     C_R   0.189844 0.589666 0.545659 0.204611
C41   C     C_R   0.608209 0.963785 0.925949 0.238788
C42   C     C_R   0.389563 0.968342 0.069299 0.254564
C43   C     C_R   0.891825 0.464267 0.574146 0.238728
C44   C     C_R   0.110482 0.468176 0.430822 0.254723
C45   C     C_R   0.574756 0.997858 0.992512 -0.084745
C46   C     C_R   0.424969 0.014366 0.007251 -0.081437
C47   C     C_R   0.925257 0.497867 0.507505 -0.084770
C48   C     C_R   0.075040 0.514611 0.492759 -0.081449
C49   C     C_R   0.600954 0.011911 0.089722 -0.007995
C50   C     C_R   0.400393 0.073053 0.913735 -0.008752
C51   C     C_R   0.899055 0.510895 0.410257 -0.007937
C52   C     C_R   0.099575 0.574120 0.586153 -0.008730
C53   C     C_R   0.516271 0.020715 0.965661 0.091400
C54   C     C_R   0.483883 0.010387 0.035507 0.087603
C55   C     C_R   0.983726 0.521154 0.534307 0.091497
C56   C     C_R   0.016128 0.510270 0.464496 0.087688
C57   C     C_R   0.511478 0.018190 0.131566 -0.171357
C58   C     C_R   0.490050 0.074504 0.873136 -0.181480
C59   C     C_R   0.988534 0.517159 0.368418 -0.171410
C60   C     C_R   0.009907 0.575853 0.626704 -0.181820
C61   C     C_R   0.568624 0.021640 0.157856 -0.091771
C62   C     C_R   0.433584 0.102199 0.848172 -0.092374
C63   C     C_R   0.931385 0.520163 0.342110 -0.091982
C64   C     C_R   0.066358 0.603826 0.651627 -0.092492
H5    H     H_    0.587381 0.032643 0.232642 0.179186
H6    H     H_    0.416148 0.148972 0.776673 0.183396
H7    H     H_    0.912626 0.530433 0.267296 0.179130
H8    H     H_    0.083760 0.651262 0.723020 0.183429
H9    H     H_    0.489551 0.036207 0.187759 0.205775
H10   H     H_    0.513166 0.109529 0.820317 0.186621
H11   H     H_    0.010451 0.534768 0.312189 0.205794
H12   H     H_    0.986764 0.611342 0.679423 0.186560
O21   O     O_3   0.059898 0.904112 0.203530 -0.599204
H13   H     H_    0.097119 0.928616 0.242279 0.291305
O22   O     O_3   0.940583 0.075116 0.795580 -0.598072
H14   H     H_    0.903780 0.044163 0.756951 0.293224
O23   O     O_3   0.440165 0.405368 0.296272 -0.599255
H15   H     H_    0.402888 0.429398 0.257619 0.291259
O24   O     O_3   0.559359 0.573750 0.704593 -0.598066
H16   H     H_    0.596208 0.543080 0.743144 0.293232
O25   O     O_3   0.958133 0.859515 0.173164 -0.601841
H17   H     H_    0.920812 0.832805 0.183771 0.295310
O26   O     O_3   0.040522 0.155130 0.830556 -0.599736
H18   H     H_    0.077445 0.191131 0.821022 0.298745
O27   O     O_3   0.541961 0.361548 0.326544 -0.601878
H19   H     H_    0.579300 0.335310 0.315884 0.295426
O28   O     O_3   0.459380 0.653269 0.669752 -0.599697
H20   H     H_    0.422437 0.688905 0.679346 0.298778
O29   O     O_3   0.406981 0.865213 0.150923 -0.638508
H21   H     H_    0.435048 0.775366 0.139238 0.307105
O30   O     O_3   0.586897 0.896921 0.835913 -0.631237
H22   H     H_    0.555064 0.816153 0.839293 0.338824
O31   O     O_3   0.093129 0.364396 0.349402 -0.638497
H23   H     H_    0.065118 0.274541 0.361267 0.306885
O32   O     O_3   0.913183 0.398340 0.664351 -0.631190
H24   H     H_    0.945076 0.317668 0.661182 0.339007
O33   O     O_3   0.254897 0.135669 0.927591 -0.640040
H25   H     H_    0.234576 0.085885 0.973894 0.275482
O34   O     O_3   0.748034 0.035668 0.078761 -0.639453
H26   H     H_    0.766110 0.029951 0.024304 0.275859
O35   O     O_3   0.245053 0.636768 0.572244 -0.640006
H27   H     H_    0.265408 0.586423 0.526110 0.275465
O36   O     O_3   0.751949 0.533954 0.421115 -0.639524
H28   H     H_    0.733891 0.529194 0.475613 0.275753
O37   O     O_3   0.682493 0.038590 0.213796 -0.637294
H29   H     H_    0.723160 0.036747 0.224397 0.353189
O38   O     O_3   0.321350 0.165040 0.794847 -0.637423
H30   H     H_    0.280864 0.178086 0.784377 0.350473
O39   O     O_3   0.817502 0.535952 0.286098 -0.637251
H31   H     H_    0.776838 0.533688 0.275488 0.353208
O40   O     O_3   0.178562 0.667141 0.704884 -0.637408
H32   H     H_    0.219040 0.680368 0.715339 0.350484

loop_
_geom_bond_atom_site_label_1
_geom_bond_atom_site_label_2
_ccdc_geom_bond_type
O17   V3    S    
O1    C5    A    
O21   H13   S    
C59   C63   A    
C44   O31   S    
O19   V1    S    
O13   V1    S    
O3    C7    A    
O26   H18   S    
C56   C59   A    
O1    V3    S    
C44   C48   A    
O15   V3    S    
C48   C56   A    
C53   C54   A    
C33   O37   S    
O32   H24   S    
C14   C25   A    
C35   C51   A    
C50   C62   A    
O7    C3    A    
C49   C61   A    
O5    C1    A    
C9    C18   A    
C37   O34   S    
C43   O32   S    
O10   V2    S    
C14   C18   A    
C18   H1    S    
O4    C8    A    
C16   O28   S    
C32   C44   A    
C42   O29   S    
O28   H20   S    
C64   H8    S    
C12   C23   A    
O2    V4    S    
O3    V1    S    
C21   O22   S    
C31   C39   A    
C36   C52   A    
C1    O15   A    
C60   C64   A    
C2    O16   A    
C7    C9    S    
O2    C6    A    
O24   H16   S    
C41   C45   A    
O14   V2    S    
C3    C30   S    
C16   C20   A    
C13   O25   S    
C53   C58   A    
O11   C7    A    
C55   C60   A    
O39   H31   S    
O12   C8    A    
C24   O23   S    
C61   H5    S    
C9    C22   A    
C35   O39   S    
C10   C17   A    
C46   C54   A    
C11   C24   A    
C45   C53   A    
C30   C38   A    
C62   H6    S    
O5    V1    S    
C22   O21   S    
C35   C39   A    
O7    V3    S    
C34   C38   A    
C27   C28   A    
O8    V4    S    
O38   H30   S    
C58   C62   A    
C33   C49   A    
C57   C61   A    
O18   V4    S    
C30   C42   A    
C15   C19   A    
C15   O27   S    
C41   O30   S    
C8    C10   S    
C34   O38   S    
C52   C64   A    
C42   C46   A    
C55   C56   A    
C21   C25   A    
O8    C4    A    
O9    C5    A    
C10   C21   A    
O30   H22   S    
C11   C20   A    
O31   H23   S    
C60   H12   S    
C4    C29   S    
O6    V2    S    
C23   O24   S    
O33   H25   S    
O36   H28   S    
C54   C57   A    
C36   C40   A    
O27   H19   S    
O16   V4    S    
O9    V1    S    
C3    O13   A    
C51   C63   A    
C34   C50   A    
C39   O36   S    
C48   C52   A    
C29   C37   A    
O6    C2    A    
C23   C27   A    
O40   H32   S    
O11   V3    S    
C5    C11   S    
O12   V4    S    
C16   C27   A    
C6    C12   S    
O23   H15   S    
C22   C26   A    
C38   O33   S    
C1    C32   S    
O10   C6    A    
O20   V2    S    
C2    C31   S    
O35   H27   S    
O25   H17   S    
C43   C47   A    
C13   C26   A    
C20   H3    S    
C47   C55   A    
O37   H29   S    
C15   C28   A    
C13   C17   A    
C40   O35   S    
C58   H10   S    
C17   H2    S    
C57   H9    S    
C63   H7    S    
C59   H11   S    
C33   C37   A    
C19   H4    S    
C24   C28   A    
C32   C40   A    
C25   C26   A    
C46   C50   A    
C4    O14   A    
O22   H14   S    
C45   C49   A    
C12   C19   A    
C29   C41   A    
C14   O26   S    
O29   H21   S    
C47   C51   A    
O4    V2    S    
O34   H26   S    
C31   C43   A    
C36   O40   S    
