data_mof_unit_67029.cif
_audit_creation_date              2012-12-11T17:41:16-0500
_audit_creation_method            fapswitch 2.2
_symmetry_space_group_name_H-M    P1
_symmetry_Int_Tables_number       1
_space_group_crystal_system       triclinic
_cell_length_a                    8.169386
_cell_length_b                    12.69567
_cell_length_c                    14.197122
_cell_angle_alpha                 92.932256
_cell_angle_beta                  90.600538
_cell_angle_gamma                 98.46609
_cell_volume                      1454.2723533

loop_
_atom_site_label
_atom_site_type_symbol
_atom_type_description
_atom_site_fract_x
_atom_site_fract_y
_atom_site_fract_z
_atom_type_partial_charge
Ba1   Ba    Ba6+2 0.855630 0.555280 0.454520 1.653437
Ba2   Ba    Ba6+2 0.334200 0.444810 0.545490 1.662824
C1    C     C_3   0.601283 0.945651 0.176097 -0.402247
C2    C     C_R   0.183562 0.498195 0.195766 0.057908
C3    C     C_R   0.339027 0.550091 0.225881 -0.245990
C4    C     C_3   0.145957 0.801392 0.194355 0.402124
C5    C     C_R   0.451319 0.598301 0.162387 0.064320
C6    C     C_R   0.405775 0.602048 0.067725 -0.078494
C7    C     C_R   0.248673 0.552880 0.034824 0.035510
C8    C     C_R   0.137458 0.497161 0.098017 0.019473
C9    C     C_R   0.052634 0.502489 0.901936 -0.022957
C10   C     C_R   0.941386 0.446897 0.965167 -0.013264
C11   C     C_R   0.007363 0.500235 0.803967 0.044839
C12   C     C_3   0.649037 0.856888 0.233890 0.343691
C13   C     C_R   0.853661 0.445739 0.773490 -0.296568
C14   C     C_R   0.740216 0.399285 0.837230 0.007695
C15   C     C_R   0.784635 0.397286 0.932207 -0.146522
C16   C     C_3   0.131491 0.837623 0.094490 -0.324978
C17   C     C_R   0.204305 0.557086 0.938974 -0.038362
C18   C     C_R   0.763074 0.176527 0.539511 -0.285095
C19   C     C_R   0.429717 0.813295 0.460992 -0.291544
C20   C     C_R   0.405479 0.994790 0.429068 -0.106214
C21   C     C_R   0.341143 0.887310 0.423086 -0.011528
C22   C     C_R   0.576519 0.846329 0.512611 0.068568
C23   C     C_3   0.477733 0.301414 0.255508 0.299632
C24   C     C_R   0.641055 0.956935 0.523046 -0.054331
C25   C     C_R   0.554701 0.031520 0.479011 -0.078885
C26   C     C_R   0.618111 0.141311 0.487695 0.035935
C27   C     C_R   0.853118 0.104524 0.578862 -0.012242
C28   C     C_3   0.225647 0.762468 0.656485 0.282623
C29   C     C_R   0.790102 0.995664 0.573951 -0.090097
C30   C     C_3   0.243414 0.881917 0.678424 -0.359126
C31   C     C_3   0.969490 0.238317 0.345176 0.374042
C32   C     C_3   0.946304 0.118998 0.322630 0.500093
C33   C     C_3   0.714390 0.673062 0.737907 0.307765
C34   C     C_3   0.467584 0.273069 0.149844 0.389207
C35   C     C_3   0.730940 0.696599 0.844077 -0.394081
C36   C     C_3   0.046696 0.197106 0.806625 0.354336
C37   C     C_3   0.061427 0.161364 0.906642 -0.332892
C38   C     C_3   0.541561 0.142336 0.765988 0.341137
C39   C     C_3   0.589805 0.054230 0.824439 -0.409545
C40   C     C_R   0.985492 0.442988 0.061064 -0.023885
F1    F     F_    0.088260 0.091340 0.282235 -0.688746
F2    F     F_    0.435039 0.359151 0.101052 -0.756105
H1    H     H_    0.740696 0.891689 0.289473 0.078725
H2    H     H_    0.612362 0.605975 0.723655 0.065436
H3    H     H_    0.546120 0.003693 0.222416 0.101768
H4    H     H_    0.838776 0.759239 0.860649 0.126522
H5    H     H_    0.748858 0.623753 0.880257 0.067967
H6    H     H_    0.616945 0.724750 0.871119 0.118677
H7    H     H_    0.535968 0.819765 0.269230 -0.057717
H8    H     H_    0.509377 0.911597 0.120489 0.109970
H9    H     H_    0.355999 0.320717 0.279070 0.019302
H10   H     H_    0.574671 0.371817 0.269192 0.043194
H11   H     H_    0.367326 0.205054 0.134163 0.080894
H12   H     H_    0.332913 0.904510 0.737659 0.113227
H13   H     H_    0.586942 0.250047 0.125694 0.012678
H14   H     H_    0.712021 0.987447 0.141716 0.137520
H15   H     H_    0.210425 0.915702 0.087365 0.122151
H16   H     H_    0.126483 0.275287 0.801693 0.093688
H17   H     H_    0.915944 0.206647 0.793026 -0.074815
H18   H     H_    0.192306 0.155096 0.924059 0.163560
H19   H     H_    0.017823 0.220128 0.957464 0.078853
H20   H     H_    0.984931 0.082355 0.913572 0.103570
H21   H     H_    0.654623 0.179610 0.730647 -0.055880
H22   H     H_    0.450573 0.106795 0.710337 0.081092
H23   H     H_    0.288704 0.925710 0.616170 0.081317
H24   H     H_    0.684034 0.088679 0.878736 0.112578
H25   H     H_    0.642135 0.994736 0.778196 0.093296
H26   H     H_    0.063626 0.724201 0.199412 0.064214
H27   H     H_    0.479885 0.013988 0.860634 0.129159
H28   H     H_    0.375869 0.549144 0.299230 0.053258
H29   H     H_    0.493679 0.641916 0.019797 0.048168
H30   H     H_    0.696310 0.358166 0.980280 0.128764
H31   H     H_    0.818029 0.444715 0.699791 0.068212
H32   H     H_    0.899373 0.397295 0.106095 0.097292
H33   H     H_    0.290481 0.602686 0.893916 0.092287
H34   H     H_    0.121833 0.904643 0.698435 0.142351
H35   H     H_    0.334095 0.048563 0.396640 0.161222
H36   H     H_    0.860982 0.943036 0.608322 0.101942
H37   H     H_    0.811672 0.260701 0.544215 0.068067
H38   H     H_    0.275933 0.789768 0.207451 -0.118897
H39   H     H_    0.378860 0.729530 0.455065 0.067549
H40   H     H_    0.172054 0.778056 0.043349 0.040386
H41   H     H_    0.001105 0.846000 0.077721 0.150130
H42   H     H_    0.346664 0.740744 0.636224 0.006465
H43   H     H_    0.135254 0.741913 0.597194 0.075482
H44   H     H_    0.852953 0.262054 0.371013 -0.145756
H45   H     H_    0.066787 0.257694 0.400752 0.051344
H46   H     H_    0.840662 0.096626 0.272589 -0.012619
H47   H     H_    0.920968 0.075336 0.387595 -0.041333
H48   H     H_    0.831706 0.650742 0.711173 0.010132
O1    O     O_2   0.887370 0.460630 0.272300 -0.470127
O2    O     O_2   0.195074 0.111230 0.568659 -0.483574
O3    O     O_3   0.097776 0.120611 0.742817 -0.601545
O4    O     O_3   0.129410 0.451380 0.388510 -0.500533
O5    O     O_3   0.575400 0.626570 0.547370 -0.492179
O6    O     O_2   0.344320 0.238700 0.455090 -0.453500
O7    O     O_3   0.518037 0.213138 0.301150 -0.686141
O8    O     O_2   0.401197 0.408629 0.835598 -0.469952
O9    O     O_3   0.467774 0.213661 0.825229 -0.584620
O10   O     O_3   0.670210 0.653170 0.329170 -0.483273
O11   O     O_2   0.790873 0.591432 0.164901 -0.485846
O12   O     O_3   0.680744 0.764973 0.695911 -0.642152
O13   O     O_3   0.013564 0.289592 0.262492 -0.626669
O14   O     O_3   0.721346 0.785507 0.173993 -0.601259
O15   O     O_2   0.845380 0.761330 0.544970 -0.476710
O16   O     O_3   0.088930 0.704860 0.376040 -0.505653
O17   O     O_2   0.000856 0.888770 0.433136 -0.476711
O18   O     O_3   0.098541 0.878918 0.258444 -0.529734
O19   O     O_2   0.302330 0.539400 0.727760 -0.471477
O20   O     O_3   0.060300 0.548700 0.611500 -0.498080
O21   O     O_3   0.519500 0.346920 0.670840 -0.479892
O22   O     O_3   0.173047 0.710772 0.737768 -0.639662
O23   O     O_3   0.614310 0.373510 0.452640 -0.474896
O24   O     O_3   0.100780 0.295230 0.623970 -0.489376
P1    P     P_3+3 0.054400 0.427280 0.286870 0.987265
P2    P     P_3+3 0.668300 0.742890 0.573060 0.967071
P3    P     P_3+3 0.132969 0.842321 0.373421 1.002479
P4    P     P_3+3 0.135310 0.572810 0.713130 0.967229
P5    P     P_3+3 0.061000 0.156329 0.627827 0.949675
P6    P     P_3+3 0.658734 0.654876 0.206464 0.973445
P7    P     P_3+3 0.527636 0.241072 0.423204 0.952291
P8    P     P_3+3 0.531896 0.344352 0.793423 0.987251

loop_
_geom_bond_atom_site_label_1
_geom_bond_atom_site_label_2
_ccdc_geom_bond_type
C13   H31   S    
C4    H38   S    
C8    C40   A    
C26   P7    S    
C29   H36   S    
C37   H20   S    
Ba2   O20   S    
C24   C25   A    
O7    P7    S    
C33   C35   S    
C31   H44   S    
C23   H9    S    
C20   H35   S    
C3    H28   S    
Ba1   O20   S    
C21   P3    S    
C36   C37   S    
Ba2   O21   S    
C13   C14   A    
Ba1   Ba2   S    
C1    H3    S    
O5    P2    S    
C17   H33   S    
C32   H47   S    
C10   C40   A    
C38   O9    S    
Ba2   O24   S    
C23   O7    S    
C19   H39   S    
Ba2   O5    S    
C14   C15   A    
C27   P5    S    
C36   O3    S    
C16   H40   S    
C28   H42   S    
C7    C8    A    
O15   P2    D    
C39   H27   S    
C36   H17   S    
C33   H48   S    
O3    P5    S    
C24   C29   A    
C38   H22   S    
C18   H37   S    
C4    O18   S    
O16   P3    S    
O13   P1    S    
O1    P1    D    
C7    C17   A    
C12   H1    S    
O12   P2    S    
C18   C27   A    
O6    P7    D    
C4    C16   S    
Ba2   O19   S    
O9    P8    S    
O23   P7    S    
O24   P5    S    
C16   H41   S    
O4    P1    S    
C5    C6    A    
C31   O13   S    
C23   H10   S    
C34   H13   S    
Ba1   O5    S    
O20   P4    S    
Ba2   P4    S    
C6    C7    A    
C18   C26   A    
O19   P4    D    
O8    P8    D    
C10   C15   A    
C32   H46   S    
C1    H14   S    
C31   H45   S    
C35   H5    S    
Ba2   O23   S    
C12   H7    S    
C1    H8    S    
C9    C17   A    
O14   P6    S    
C31   C32   S    
Ba1   P1    S    
C35   H4    S    
C1    C12   S    
Ba1   O15   S    
C30   H23   S    
C36   H16   S    
C38   C39   S    
C33   O12   S    
C20   C25   A    
C19   C21   A    
C15   H30   S    
C2    P1    S    
C34   F2    S    
C5    P6    S    
C2    C8    A    
C11   P4    S    
O17   P3    D    
C3    C5    A    
C28   O22   S    
C4    H26   S    
C37   H18   S    
C39   H24   S    
C23   C34   S    
C39   H25   S    
C40   H32   S    
C32   F1    S    
C22   C24   A    
C2    C3    A    
O18   P3    S    
C9    C10   A    
C37   H19   S    
C33   H2    S    
C22   P2    S    
C38   H21   S    
C11   C13   A    
C14   P8    S    
C27   C29   A    
C34   H11   S    
C28   C30   S    
C35   H6    S    
C9    C11   A    
O21   P8    S    
Ba1   O4    S    
Ba2   O4    S    
C6    H29   S    
Ba1   P2    S    
Ba1   O16   S    
C30   H34   S    
O2    P5    D    
C16   H15   S    
C12   O14   S    
Ba2   O6    S    
Ba1   O1    S    
C19   C22   A    
C25   C26   A    
C20   C21   A    
Ba1   O23   S    
C28   H43   S    
O10   P6    S    
O11   P6    D    
Ba1   O10   S    
C30   H12   S    
O22   P4    S    
