data_mof_unit_15244.cif
_audit_creation_date              2012-12-10T18:31:07-0500
_audit_creation_method            fapswitch 2.2
_symmetry_space_group_name_H-M    P1
_symmetry_Int_Tables_number       1
_space_group_crystal_system       triclinic
_cell_length_a                    13.638275
_cell_length_b                    15.0511
_cell_length_c                    15.266291
_cell_angle_alpha                 97.213792
_cell_angle_beta                  91.748466
_cell_angle_gamma                 96.223895
_cell_volume                      3087.50303397

loop_
_atom_site_label
_atom_site_type_symbol
_atom_type_description
_atom_site_fract_x
_atom_site_fract_y
_atom_site_fract_z
_atom_type_partial_charge
C1    C     C_R   0.513570 0.556350 0.663068 0.883557
C2    C     C_R   0.482984 0.444004 0.337422 0.860434
C3    C     C_R   0.473515 0.585545 0.909927 -0.024395
C4    C     C_R   0.428779 0.479775 0.110124 -0.018025
C5    C     C_R   0.547578 0.658017 0.940591 0.017701
C6    C     C_R   0.338522 0.422763 0.087779 -0.002691
C7    C     C_R   0.417543 0.543006 0.972969 0.042633
C8    C     C_R   0.457991 0.548755 0.058503 0.047957
C9    C     C_R   0.521657 0.626327 0.090852 -0.237949
C10   C     C_R   0.323634 0.495307 0.954341 -0.222689
C11   C     C_R   0.558536 0.685795 0.033307 0.218091
C12   C     C_R   0.282472 0.436677 0.011192 0.216959
C13   C     C_R   0.340978 0.171444 0.627342 0.132219
C14   C     C_R   0.653851 0.825761 0.366886 0.124345
C15   C     C_R   0.366663 0.257180 0.602202 -0.082862
C16   C     C_R   0.629299 0.741116 0.393146 -0.119960
C17   C     C_R   0.495785 0.205626 0.515627 0.276930
C18   C     C_R   0.505623 0.795189 0.485030 0.278447
C19   C     C_R   0.466806 0.116487 0.530415 -0.083163
C20   C     C_R   0.534936 0.884266 0.469383 -0.101859
C21   C     C_R   0.401049 0.102817 0.599044 0.011613
C22   C     C_R   0.600102 0.897571 0.399858 0.065168
C23   C     C_R   0.318834 0.515220 0.497026 0.889508
C24   C     C_R   0.681188 0.484785 0.503016 0.892347
C25   C     C_R   0.505403 0.041822 0.483019 0.039790
C26   C     C_R   0.497216 0.959258 0.517262 0.038248
C27   C     C_R   0.455746 0.955246 0.600416 -0.179537
C28   C     C_R   0.548101 0.046556 0.400626 -0.201629
C29   C     C_R   0.403319 0.023405 0.639504 0.186769
C30   C     C_R   0.602189 0.979290 0.362446 0.198184
C31   C     C_1   0.781894 0.472869 0.504484 -0.214314
C32   C     C_1   0.218200 0.527222 0.495898 -0.214599
C33   C     C_2   0.971740 0.462071 0.506592 0.162560
C34   C     C_2   0.028469 0.538292 0.494494 0.161607
C35   C     C_1   0.132616 0.535789 0.495063 -0.023665
C36   C     C_1   0.867531 0.464407 0.505677 -0.023579
C37   C     C_R   0.523398 0.591820 0.758260 -0.217576
C38   C     C_R   0.449579 0.414790 0.244909 -0.209525
C39   C     C_R   0.611051 0.696139 0.879303 0.147038
C40   C     C_R   0.309137 0.355052 0.142742 0.129416
C41   C     C_R   0.594910 0.665695 0.787883 0.154614
C42   C     C_R   0.362458 0.354994 0.224056 0.169095
C43   C     C_R   0.465432 0.549655 0.819561 0.107422
C44   C     C_R   0.490136 0.464544 0.181171 0.144047
H1    H     H_    0.464775 0.899498 0.636736 0.159439
H2    H     H_    0.539385 0.102778 0.364692 0.162738
H3    H     H_    0.537458 0.643899 0.161255 0.165602
H4    H     H_    0.280649 0.505544 0.896472 0.168322
H5    H     H_    0.668729 0.685129 0.368559 0.151216
H6    H     H_    0.325805 0.313069 0.622871 0.166459
N1    N     N_R   0.445040 0.272490 0.551770 -0.139043
N2    N     N_R   0.554960 0.727510 0.448230 -0.129157
O1    O     O_R   0.527700 0.614770 0.606110 -0.596583
O2    O     O_R   0.472300 0.385230 0.393890 -0.594632
O3    O     O_R   0.492440 0.468680 0.639380 -0.610451
O4    O     O_R   0.507560 0.531320 0.360620 -0.616023
O5    O     O_R   0.379820 0.583550 0.480950 -0.614634
O6    O     O_R   0.620180 0.416450 0.519050 -0.615034
O7    O     O_R   0.344560 0.437460 0.514220 -0.611805
O8    O     O_R   0.655440 0.562540 0.485780 -0.606713
Zn1   Zn    Zn3+2 0.523550 0.597550 0.477790 0.929513
Zn2   Zn    Zn3+2 0.476450 0.402450 0.522210 0.923947
N3    N     N_2   0.985808 0.618436 0.479070 -0.302181
H7    H     H_    0.927126 0.609001 0.433345 0.226263
C45   C     C_3   0.050716 0.700743 0.477162 -0.787965
H8    H     H_    0.006107 0.756930 0.469243 0.232712
H9    H     H_    0.100116 0.693143 0.420806 0.243295
H10   H     H_    0.094888 0.717889 0.540479 0.246390
N4    N     N_2   0.014527 0.382025 0.522158 -0.302755
H11   H     H_    0.072823 0.391547 0.568294 0.224120
C46   C     C_3   0.949859 0.299476 0.523403 -0.790085
H12   H     H_    0.994621 0.243393 0.531302 0.234144
H13   H     H_    0.906173 0.282471 0.459819 0.247388
H14   H     H_    0.900077 0.306635 0.579512 0.243364
N5    N     N_2   0.252665 0.151255 0.673214 -0.296174
H15   H     H_    0.216484 0.088017 0.652457 0.241595
C47   C     C_3   0.185132 0.218730 0.690158 -0.848787
H16   H     H_    0.122546 0.191718 0.727586 0.249783
H17   H     H_    0.155359 0.236473 0.626865 0.243943
H18   H     H_    0.222724 0.279707 0.730938 0.244915
N6    N     N_2   0.735781 0.838222 0.312560 -0.306486
H19   H     H_    0.743344 0.782817 0.267138 0.214802
C48   C     C_3   0.827588 0.871296 0.361752 -0.798710
H20   H     H_    0.886560 0.884770 0.315034 0.238246
H21   H     H_    0.849520 0.820273 0.403017 0.235940
H22   H     H_    0.820041 0.935134 0.404964 0.251453
N7    N     N_2   0.602214 0.773470 0.069185 -0.305977
H23   H     H_    0.632569 0.777861 0.132488 0.220494
C49   C     C_3   0.539533 0.843684 0.059536 -0.811970
H24   H     H_    0.583180 0.910608 0.076203 0.238837
H25   H     H_    0.477110 0.838294 0.104417 0.241996
H26   H     H_    0.509894 0.838992 0.990267 0.251252
N8    N     N_2   0.183359 0.396799 0.993119 -0.304778
H27   H     H_    0.132612 0.442458 0.004847 0.223102
C50   C     C_3   0.164105 0.340221 0.909092 -0.816377
H28   H     H_    0.090895 0.300046 0.909124 0.245374
H29   H     H_    0.221030 0.292935 0.898073 0.258628
H30   H     H_    0.162962 0.382023 0.854176 0.231187
N9    N     N_2   0.593555 0.495721 0.186512 -0.305688
H31   H     H_    0.628632 0.500642 0.247919 0.225284
C51   C     C_3   0.650031 0.450585 0.119198 -0.797446
H32   H     H_    0.727964 0.481720 0.125746 0.234378
H33   H     H_    0.620650 0.457000 0.051940 0.255921
H34   H     H_    0.648115 0.378029 0.127147 0.235204
N10   N     N_2   0.404766 0.466662 0.792427 -0.306649
H35   H     H_    0.360726 0.462608 0.735689 0.223610
C52   C     C_3   0.448306 0.385613 0.806670 -0.710788
H36   H     H_    0.391640 0.326401 0.792997 0.226142
H37   H     H_    0.476144 0.389480 0.876316 0.237514
H38   H     H_    0.510474 0.375567 0.762642 0.252447
N11   N     N_2   0.325971 0.299375 0.287742 -0.271408
H39   H     H_    0.250497 0.292303 0.293483 0.229251
C53   C     C_3   0.370510 0.216281 0.288086 -0.742150
H40   H     H_    0.345294 0.182677 0.345454 0.229957
H41   H     H_    0.349148 0.169946 0.226427 0.222335
H42   H     H_    0.452277 0.229956 0.293892 0.238260
N12   N     N_2   0.655074 0.704582 0.724605 -0.275293
H43   H     H_    0.728999 0.696325 0.729028 0.219211
C54   C     C_3   0.633404 0.792461 0.705922 -0.728243
H44   H     H_    0.657993 0.844807 0.762385 0.227098
H45   H     H_    0.552918 0.791870 0.692559 0.231132
H46   H     H_    0.672309 0.809740 0.646437 0.233183
C55   C     C_3   0.701534 0.761770 0.911172 -0.860220
H47   H     H_    0.757384 0.769185 0.860928 0.222404
H48   H     H_    0.679733 0.829846 0.931774 0.260272
H49   H     H_    0.740861 0.737500 0.966712 0.244442
C56   C     C_3   0.223769 0.282541 0.115497 -0.863866
H50   H     H_    0.220501 0.225907 0.155277 0.226149
H51   H     H_    0.152528 0.311518 0.121913 0.251058
H52   H     H_    0.232052 0.251139 0.046873 0.260443
C57   C     C_3   0.364167 0.013849 0.729846 -0.912601
H53   H     H_    0.407683 0.970099 0.765393 0.230046
H54   H     H_    0.370235 0.080074 0.772008 0.260298
H55   H     H_    0.286377 0.982564 0.723358 0.238318
C58   C     C_3   0.651848 0.994197 0.277612 -0.875964
H56   H     H_    0.629736 0.054523 0.250423 0.217825
H57   H     H_    0.733113 0.005009 0.289268 0.264497
H58   H     H_    0.630747 0.935484 0.226785 0.251821
N13   N     N_2   0.418589 0.774216 0.530551 -0.320390
H59   H     H_    0.419666 0.723323 0.569213 0.267100
C59   C     C_3   0.327005 0.775036 0.480469 -0.760458
H60   H     H_    0.264276 0.760626 0.522872 0.231166
H61   H     H_    0.321189 0.723262 0.421363 0.256419
H62   H     H_    0.322270 0.842266 0.458896 0.240633
N14   N     N_2   0.583402 0.227430 0.471304 -0.318063
H63   H     H_    0.582181 0.277235 0.431349 0.265568
C60   C     C_3   0.674475 0.227340 0.522351 -0.755546
H64   H     H_    0.737633 0.242493 0.480675 0.231587
H65   H     H_    0.679587 0.160117 0.543819 0.240732
H66   H     H_    0.679019 0.278891 0.581576 0.254241

loop_
_geom_bond_atom_site_label_1
_geom_bond_atom_site_label_2
_ccdc_geom_bond_type
O6    Zn2   S    
C7    C10   A    
N7    H23   S    
N3    C45   S    
N8    H27   S    
C58   H58   S    
C55   H47   S    
C50   H28   S    
C4    C8    A    
C57   H55   S    
C17   N1    A    
N6    H19   S    
C50   H30   S    
C18   N2    A    
C7    C8    A    
C39   C41   A    
C47   H16   S    
C25   C28   A    
C23   O7    A    
N10   C52   S    
C3    C43   A    
C26   C27   A    
C51   H32   S    
C30   C58   S    
C60   H65   S    
C5    C11   A    
C3    C7    A    
N2    Zn1   S    
C59   H61   S    
C6    C12   A    
C44   N9    S    
C54   H46   S    
C27   C29   A    
O3    Zn2   S    
C33   C36   S    
C39   C55   S    
C23   O5    A    
C34   C35   S    
C43   N10   S    
C15   H6    S    
N4    C46   S    
C1    O1    A    
C60   H64   S    
N14   C60   S    
O1    Zn1   S    
C13   N5    S    
C11   N7    S    
C8    C9    A    
C45   H9    S    
C52   H36   S    
C15   N1    A    
C49   H25   S    
C18   C20   A    
C1    C37   S    
C53   H42   S    
C27   H1    S    
C40   C42   A    
C51   H33   S    
C52   H37   S    
C18   N13   S    
N1    Zn2   S    
N6    C48   S    
N14   H63   S    
C54   H45   S    
N13   H59   S    
C32   C35   T    
C58   H56   S    
C60   H66   S    
C16   H5    S    
C4    C6    A    
C2    O2    A    
C59   H62   S    
C46   H13   S    
C55   H49   S    
O2    Zn2   S    
C3    C5    A    
C25   C26   A    
C40   C56   S    
C21   C29   A    
O8    Zn1   S    
C37   C43   A    
C17   N14   S    
N5    H15   S    
C56   H51   S    
C38   C44   A    
C9    C11   A    
C2    C38   S    
C48   H20   S    
C24   O8    A    
C45   H10   S    
C28   H2    S    
C33   C34   D    
C47   H17   S    
C13   C21   A    
N11   C53   S    
C49   H26   S    
N5    C47   S    
C10   C12   A    
C24   O6    A    
C48   H21   S    
C20   C22   A    
C9    H3    S    
C51   H34   S    
C13   C15   A    
C10   H4    S    
C52   H38   S    
C14   C16   A    
C12   N8    S    
C57   H53   S    
C53   H40   S    
C47   H18   S    
C58   H57   S    
C5    C39   A    
O7    Zn2   S    
C22   C30   A    
N11   H39   S    
C19   C21   A    
C31   C36   T    
C42   N11   S    
C16   N2    A    
C57   H54   S    
C46   H14   S    
C54   H44   S    
C50   H29   S    
O5    Zn1   S    
C33   N4    S    
C4    C44   A    
N10   H35   S    
N9    H31   S    
C23   C32   S    
C14   C22   A    
N12   C54   S    
C1    O3    A    
C24   C31   S    
C46   H12   S    
C2    O4    A    
C59   H60   S    
N13   C59   S    
C29   C57   S    
C20   C26   A    
C28   C30   A    
C34   N3    S    
C17   C19   A    
C6    C40   A    
C37   C41   A    
N4    H11   S    
C19   C25   A    
C56   H52   S    
C55   H48   S    
N3    H7    S    
C38   C42   A    
C48   H22   S    
N8    C50   S    
C45   H8    S    
N7    C49   S    
O4    Zn1   S    
C14   N6    S    
C41   N12   S    
C49   H24   S    
N12   H43   S    
N9    C51   S    
C56   H50   S    
C53   H41   S    
