data_mof_unit_66042.cif
_audit_creation_date              2012-12-10T20:10:30-0500
_audit_creation_method            fapswitch 2.2
_symmetry_space_group_name_H-M    P1
_symmetry_Int_Tables_number       1
_space_group_crystal_system       triclinic
_cell_length_a                    19.286337
_cell_length_b                    18.46869
_cell_length_c                    11.555088
_cell_angle_alpha                 89.989928
_cell_angle_beta                  90.126182
_cell_angle_gamma                 89.995963
_cell_volume                      4115.83578767

loop_
_atom_site_label
_atom_site_type_symbol
_atom_type_description
_atom_site_fract_x
_atom_site_fract_y
_atom_site_fract_z
_atom_type_partial_charge
C1    C     C_R   0.365559 0.500002 0.499822 0.875201
C2    C     C_R   0.634441 0.499997 0.500188 0.875207
C3    C     C_R   0.071703 0.500004 0.499871 -0.211717
C4    C     C_R   0.928298 0.499921 0.500567 -0.211714
C5    C     C_R   0.546838 0.725952 0.566242 0.033048
C6    C     C_R   0.453163 0.274047 0.433756 0.033039
C7    C     C_R   0.453161 0.725972 0.433759 0.033061
C8    C     C_R   0.546838 0.274028 0.566242 0.033056
C9    C     C_R   0.547773 0.801932 0.567461 -0.267980
C10   C     C_R   0.452228 0.198068 0.432537 -0.267980
C11   C     C_R   0.452225 0.801952 0.432541 -0.267959
C12   C     C_R   0.547775 0.198048 0.567459 -0.267959
C13   C     C_R   0.499999 0.841353 0.500001 0.116527
C14   C     C_R   0.500001 0.158647 0.499998 0.116527
C15   C     C_R   0.437519 0.961989 0.493338 -0.171925
C16   C     C_R   0.562482 0.038011 0.506661 -0.171924
C17   C     C_R   0.562481 0.961980 0.506661 -0.171960
C18   C     C_R   0.437520 0.038020 0.493337 -0.171961
C19   C     C_R   0.500001 0.077303 0.499999 0.118861
C20   C     C_R   0.500000 0.922697 0.500000 0.118862
C21   C     C_R   0.499980 0.500005 0.281653 0.917860
C22   C     C_R   0.500020 0.499995 0.718347 0.917844
C23   C     C_1   0.499980 0.500013 0.161326 -0.174521
C24   C     C_1   0.500020 0.499987 0.838674 -0.174521
C25   C     C_1   0.499991 0.500007 0.059261 0.019344
C26   C     C_1   0.500009 0.499993 0.940738 0.019342
C27   C     C_R   0.746051 0.565863 0.500269 -0.187325
C28   C     C_R   0.253952 0.565896 0.498849 -0.187226
C29   C     C_R   0.253956 0.434121 0.500013 -0.187291
C30   C     C_R   0.746040 0.434078 0.501266 -0.187196
C31   C     C_R   0.817886 0.565761 0.500406 -0.083806
C32   C     C_R   0.182118 0.565813 0.498843 -0.083753
C33   C     C_R   0.182123 0.434201 0.500038 -0.083847
C34   C     C_R   0.817872 0.434139 0.501440 -0.083811
C35   C     C_R   0.853409 0.499940 0.500916 0.223479
C36   C     C_R   0.146592 0.500007 0.499523 0.223464
C37   C     C_R   0.709779 0.499981 0.500569 -0.040739
C38   C     C_R   0.290220 0.500008 0.499545 -0.040754
C39   C     C_R   0.964169 0.501457 0.606443 0.224763
C40   C     C_R   0.035832 0.498456 0.393992 0.224784
C41   C     C_R   0.036473 0.501500 0.606094 0.226162
C42   C     C_R   0.963529 0.498412 0.394341 0.226170
H1    H     H_    0.719076 0.617303 0.499826 0.159329
H2    H     H_    0.280929 0.617324 0.498363 0.159219
H3    H     H_    0.280935 0.382692 0.500459 0.159354
H4    H     H_    0.719058 0.382653 0.501622 0.159226
H5    H     H_    0.845851 0.616639 0.500021 0.148906
H6    H     H_    0.154157 0.616692 0.498413 0.148911
H7    H     H_    0.154165 0.383319 0.500535 0.148903
H8    H     H_    0.845826 0.383247 0.501860 0.148898
H9    H     H_    0.583520 0.696036 0.618636 0.128925
H10   H     H_    0.416481 0.303963 0.381361 0.128943
H11   H     H_    0.416479 0.696071 0.381365 0.128720
H12   H     H_    0.583520 0.303929 0.618637 0.128720
H13   H     H_    0.584978 0.829474 0.622171 0.140894
H14   H     H_    0.415023 0.170525 0.377824 0.140898
H15   H     H_    0.415020 0.829510 0.377831 0.140837
H16   H     H_    0.584980 0.170490 0.622171 0.140836
H17   H     H_    0.388260 0.933969 0.490129 0.137719
H18   H     H_    0.611741 0.066031 0.509870 0.137719
H19   H     H_    0.611740 0.933952 0.509871 0.137713
H20   H     H_    0.388261 0.066048 0.490128 0.137712
N1    N     N_R   0.500000 0.689440 0.500000 -0.095096
N2    N     N_R   0.500000 0.310560 0.500000 -0.095098
O1    O     O_R   0.398180 0.560840 0.499970 -0.627569
O2    O     O_R   0.601820 0.439160 0.500030 -0.627573
O3    O     O_R   0.601820 0.560840 0.500030 -0.627630
O4    O     O_R   0.398180 0.439160 0.499970 -0.627637
O5    O     O_R   0.500010 0.560810 0.334440 -0.612844
O6    O     O_R   0.499990 0.439190 0.665560 -0.612850
O7    O     O_R   0.499990 0.560810 0.665560 -0.612720
O8    O     O_R   0.500010 0.439190 0.334440 -0.612715
Zn1   Zn    Zn3+2 0.500000 0.581210 0.500000 0.958213
Zn2   Zn    Zn3+2 0.500000 0.418790 0.500000 0.958207
Br1   Br    Br    0.914125 0.503383 0.750990 -0.377777
Br2   Br    Br    0.085874 0.496565 0.249456 -0.377791
Br3   Br    Br    0.087386 0.503502 0.750157 -0.375120
Br4   Br    Br    0.912620 0.496435 0.250276 -0.375109

loop_
_geom_bond_atom_site_label_1
_geom_bond_atom_site_label_2
_ccdc_geom_bond_type
C15   C18   A    
C33   C36   A    
C39   C41   A    
C7    C11   A    
C32   C36   A    
C24   C26   T    
C18   C19   A    
C41   Br3   S    
O4    Zn2   S    
O2    Zn2   S    
C29   C33   A    
C1    O4    A    
O1    Zn1   S    
C5    N1    A    
C34   C35   A    
C16   H18   S    
C6    N2    A    
C9    C13   A    
C17   H19   S    
C16   C17   A    
C29   C38   A    
O6    Zn2   S    
C1    O1    A    
O5    Zn1   S    
C9    H13   S    
C39   Br1   S    
C10   H14   S    
C12   H16   S    
C40   C42   A    
C4    C35   S    
C31   H5    S    
C32   H6    S    
C14   C19   S    
C15   C20   A    
C34   H8    S    
C30   C34   A    
C21   O8    A    
C27   C31   A    
C28   C32   A    
O8    Zn2   S    
C2    O3    A    
C10   C14   A    
C8    H12   S    
O7    Zn1   S    
C18   H20   S    
N1    Zn1   S    
C25   C26   S    
C28   H2    S    
C40   Br2   S    
C30   C37   A    
C21   O5    A    
C5    C9    A    
C4    C39   A    
C28   C38   A    
C8    C12   A    
C7    N1    A    
C1    C38   S    
C8    N2    A    
O3    Zn1   S    
C12   C14   A    
C3    C40   A    
C42   Br4   S    
C21   C23   S    
C31   C35   A    
C7    H11   S    
C22   O7    A    
C3    C41   A    
C13   C20   S    
C15   H17   S    
C17   C20   A    
C30   H4    S    
C2    O2    A    
C6    C10   A    
C11   C13   A    
C2    C37   S    
C4    C42   A    
C3    C36   S    
C27   C37   A    
C16   C19   A    
C22   C24   S    
C23   C25   T    
C27   H1    S    
C29   H3    S    
N2    Zn2   S    
C5    H9    S    
C6    H10   S    
C11   H15   S    
C33   H7    S    
C22   O6    A    
