data_mof_unit_11868.cif
_audit_creation_date              2012-12-10T19:44:17-0500
_audit_creation_method            fapswitch 2.2
_symmetry_space_group_name_H-M    P1
_symmetry_Int_Tables_number       1
_space_group_crystal_system       triclinic
_cell_length_a                    18.531866
_cell_length_b                    18.537352
_cell_length_c                    34.322482
_cell_angle_alpha                 89.989728
_cell_angle_beta                  89.938221
_cell_angle_gamma                 90.006821
_cell_volume                      11790.8542605

loop_
_atom_site_label
_atom_site_type_symbol
_atom_type_description
_atom_site_fract_x
_atom_site_fract_y
_atom_site_fract_z
_atom_type_partial_charge
C1    C     C_R   0.000101 0.500707 0.894519 0.871813
C2    C     C_R   0.524505 0.062180 0.291112 0.013794
C3    C     C_R   0.308353 0.801104 0.003885 -0.106616
C4    C     C_R   0.695820 0.195825 0.501792 -0.115658
C5    C     C_R   0.804425 0.696023 0.501872 -0.112346
C6    C     C_R   0.303422 0.804876 0.502126 -0.101672
C7    C     C_R   0.195757 0.304137 0.501780 -0.115323
C8    C     C_R   0.301189 0.191760 0.503772 -0.106235
C9    C     C_R   0.191320 0.699051 0.503727 -0.097810
C10   C     C_R   0.698994 0.808383 0.503810 -0.105800
C11   C     C_R   0.808322 0.301118 0.503868 -0.106656
C12   C     C_R   0.206927 0.738465 0.036042 -0.112493
C13   C     C_R   0.937189 0.522363 0.291270 0.011766
C14   C     C_R   0.262512 0.207948 0.036247 -0.112019
C15   C     C_R   0.789950 0.264008 0.036969 -0.102661
C16   C     C_R   0.737869 0.792381 0.036371 -0.113408
C17   C     C_R   0.791640 0.737289 0.037044 -0.130332
C18   C     C_R   0.734666 0.210412 0.037377 -0.261870
C19   C     C_R   0.208541 0.262853 0.036812 -0.130493
C20   C     C_R   0.262209 0.792002 0.036806 -0.131297
C21   C     C_R   0.706916 0.238461 0.536034 -0.112547
C22   C     C_R   0.762820 0.708210 0.536397 -0.112329
C23   C     C_R   0.290176 0.763921 0.536822 -0.105582
C24   C     C_R   0.477567 0.937308 0.291192 0.011299
C25   C     C_R   0.237938 0.292568 0.536121 -0.116226
C26   C     C_R   0.291666 0.237467 0.536811 -0.130965
C27   C     C_R   0.234781 0.710468 0.537316 -0.262248
C28   C     C_R   0.708907 0.763198 0.537025 -0.131149
C29   C     C_R   0.762172 0.292021 0.536787 -0.131519
C30   C     C_3   0.322591 0.744154 0.931363 0.033134
C31   C     C_3   0.256949 0.322174 0.931063 0.033779
C32   C     C_3   0.678436 0.256568 0.931023 0.044511
C33   C     C_3   0.744861 0.678529 0.931308 0.049542
C34   C     C_3   0.696467 0.747992 0.927912 0.010118
C35   C     C_R   0.499672 0.999377 0.770664 -0.066389
C36   C     C_3   0.748326 0.304466 0.927681 0.010220
C37   C     C_3   0.305263 0.252511 0.927299 0.025066
C38   C     C_3   0.253442 0.695179 0.927523 0.021432
C39   C     C_3   0.822557 0.244124 0.431345 0.035039
C40   C     C_3   0.755177 0.821320 0.430969 0.036389
C41   C     C_3   0.178993 0.754798 0.430843 0.031884
C42   C     C_3   0.245261 0.178657 0.430967 0.035348
C43   C     C_3   0.196193 0.247772 0.427256 0.021941
C44   C     C_3   0.248140 0.803898 0.427221 0.017784
C45   C     C_3   0.804049 0.752069 0.427230 0.021983
C46   C     C_R   0.000867 0.500255 0.770595 -0.065333
C47   C     C_3   0.753388 0.195174 0.427508 0.021208
C48   C     C_R   0.439763 0.027177 0.832320 0.117628
C49   C     C_R   0.973645 0.440711 0.832395 0.131674
C50   C     C_R   0.559858 0.973405 0.832381 0.132186
C51   C     C_R   0.028753 0.560177 0.832230 0.117598
C52   C     C_R   0.940529 0.528146 0.332360 0.120720
C53   C     C_R   0.471778 0.940731 0.332297 0.121038
C54   C     C_R   0.059529 0.471765 0.332285 0.121470
C55   C     C_R   0.529466 0.059087 0.332259 0.120272
C56   C     C_R   0.499585 0.000016 0.852198 -0.111253
C57   C     C_R   0.999989 0.499953 0.270660 -0.063721
C58   C     C_R   0.000423 0.500839 0.852159 -0.112123
C59   C     C_R   0.000041 0.499990 0.352214 -0.111164
C60   C     C_R   0.500268 0.000063 0.352172 -0.111867
C61   C     C_2   0.163319 0.726093 0.071649 0.989255
C62   C     C_2   0.277180 0.166500 0.072359 0.985377
C63   C     C_2   0.832408 0.276484 0.073015 0.980960
C64   C     C_2   0.725269 0.835900 0.071965 0.991143
C65   C     C_2   0.835600 0.726623 0.072695 0.983853
C66   C     C_2   0.719634 0.170531 0.074015 1.060641
C67   C     C_2   0.165802 0.275024 0.072792 0.983403
C68   C     C_R   0.501054 0.999717 0.270588 -0.062622
C69   C     C_2   0.273240 0.835491 0.072616 0.983280
C70   C     C_2   0.663402 0.226003 0.571667 0.989089
C71   C     C_2   0.777432 0.666591 0.572449 0.985947
C72   C     C_2   0.332575 0.776420 0.572883 0.980429
C73   C     C_2   0.224654 0.335322 0.571919 0.990501
C74   C     C_2   0.334941 0.226178 0.572649 0.983669
C75   C     C_2   0.219595 0.670807 0.574006 1.060974
C76   C     C_2   0.666110 0.775345 0.572986 0.983507
C77   C     C_2   0.773164 0.335530 0.572590 0.983326
C78   C     C_3   0.365778 0.818962 0.874986 -0.752723
C79   C     C_R   0.626471 0.960204 0.770084 0.126747
C80   C     C_3   0.188638 0.364627 0.872434 -0.758115
C81   C     C_3   0.639673 0.189034 0.871514 -0.756869
C82   C     C_3   0.820362 0.640389 0.874150 -0.755380
C83   C     C_3   0.748464 0.802755 0.866778 -0.674492
C84   C     C_3   0.802408 0.254158 0.865788 -0.677087
C85   C     C_3   0.258716 0.204129 0.863453 -0.688485
C86   C     C_3   0.205542 0.742083 0.863809 -0.688619
C87   C     C_3   0.865810 0.319013 0.374994 -0.754234
C88   C     C_3   0.680416 0.863770 0.374489 -0.755431
C89   C     C_3   0.136718 0.680250 0.374283 -0.754638
C90   C     C_R   0.043681 0.625845 0.769906 0.127297
C91   C     C_3   0.320624 0.137109 0.374425 -0.755796
C92   C     C_3   0.243524 0.296771 0.363840 -0.688550
C93   C     C_3   0.296888 0.757131 0.363664 -0.689114
C94   C     C_3   0.757063 0.703594 0.363695 -0.688819
C95   C     C_3   0.705785 0.241614 0.363680 -0.689411
C96   C     C_2   0.394780 0.704742 0.929444 0.990185
C97   C     C_2   0.297134 0.394080 0.930554 0.986808
C98   C     C_2   0.606613 0.296824 0.929827 0.976936
C99   C     C_2   0.705415 0.606591 0.927963 0.976957
C100  C     C_2   0.617656 0.738195 0.917205 0.981429
C101  C     C_R   0.373038 0.039046 0.770264 0.125812
C102  C     C_2   0.739099 0.383728 0.917941 0.983249
C103  C     C_2   0.384898 0.262917 0.918837 1.010640
C104  C     C_2   0.264680 0.615795 0.918692 1.009890
C105  C     C_2   0.894723 0.204703 0.429453 0.986441
C106  C     C_2   0.794730 0.893388 0.428852 0.983269
C107  C     C_2   0.106765 0.794139 0.428826 0.985003
C108  C     C_2   0.206025 0.106432 0.428634 0.983780
C109  C     C_2   0.116886 0.236622 0.418162 1.010129
C110  C     C_2   0.237078 0.883315 0.418325 1.011088
C111  C     C_2   0.883513 0.762916 0.418270 1.010527
C112  C     C_R   0.499615 0.000025 0.894532 0.872656
C113  C     C_R   0.959730 0.374105 0.770264 0.126899
C114  C     C_2   0.764377 0.115716 0.418766 1.010599
C115  C     C_3   0.341912 0.033725 0.881948 -0.711503
C116  C     C_3   0.979392 0.342119 0.880921 -0.761089
C117  C     C_3   0.658387 0.979920 0.880864 -0.760760
C118  C     C_3   0.034718 0.658138 0.881736 -0.711750
C119  C     C_3   0.842527 0.534096 0.381848 -0.708183
C120  C     C_3   0.465824 0.842812 0.381763 -0.709105
C121  C     C_3   0.157451 0.465977 0.381730 -0.711117
C122  C     C_3   0.535533 0.157245 0.381586 -0.709245
C123  C     C_3   0.736675 0.013830 0.793693 -0.670931
C124  C     C_R   0.126341 0.459555 0.270098 0.125068
C125  C     C_3   0.992760 0.736988 0.793954 -0.673582
C126  C     C_3   0.263630 0.985741 0.795252 -0.676222
C127  C     C_3   0.012996 0.263696 0.793794 -0.670670
C128  C     C_3   0.236166 0.512201 0.294810 -0.678832
C129  C     C_3   0.492825 0.236013 0.294142 -0.676115
C130  C     C_3   0.764236 0.486611 0.295228 -0.677664
C131  C     C_3   0.511145 0.763895 0.294766 -0.677932
C132  C     C_2   0.183186 0.417457 0.208284 0.926754
C133  C     C_2   0.589538 0.180139 0.208265 0.931291
C134  C     C_2   0.816477 0.582375 0.208667 0.927090
C135  C     C_R   0.544183 0.125145 0.270016 0.126248
C136  C     C_2   0.415254 0.817744 0.208598 0.926209
C137  C     C_2   0.682629 0.916721 0.708323 0.927209
C138  C     C_2   0.089325 0.680511 0.708137 0.931408
C139  C     C_2   0.315985 0.081378 0.708636 0.926650
C140  C     C_2   0.914526 0.318505 0.708789 0.926734
C141  C     C_2   0.135011 0.514619 0.147812 0.914008
C142  C     C_2   0.493985 0.134918 0.147254 0.923711
C143  C     C_2   0.864881 0.486569 0.147866 0.912879
C144  C     C_2   0.512436 0.864467 0.147753 0.917693
C145  C     C_2   0.634910 0.014552 0.647929 0.913414
C146  C     C_R   0.873579 0.540135 0.270317 0.124805
C147  C     C_2   0.993951 0.635121 0.647093 0.923945
C148  C     C_2   0.364785 0.986041 0.647732 0.912305
C149  C     C_2   0.012013 0.364610 0.647874 0.915837
C150  C     C_R   0.458853 0.873984 0.270211 0.125209
C151  C     C_R   0.125027 0.457174 0.229157 -0.066117
C152  C     C_R   0.547545 0.123431 0.229087 -0.082547
C153  C     C_R   0.874837 0.542760 0.229380 -0.067622
C154  C     C_R   0.455979 0.875365 0.229290 -0.065848
C155  C     C_R   0.624834 0.957056 0.729166 -0.067122
C156  C     C_R   0.500053 0.000109 0.394515 0.864883
C157  C     C_R   0.047181 0.623945 0.728987 -0.083091
C158  C     C_R   0.374377 0.041790 0.729337 -0.067873
C159  C     C_R   0.955971 0.375764 0.729379 -0.066990
C160  C     C_R   0.064114 0.483725 0.208775 -0.011904
C161  C     C_R   0.519369 0.063269 0.208688 -0.012193
C162  C     C_R   0.935796 0.516429 0.208871 -0.011721
C163  C     C_R   0.483297 0.935833 0.208780 -0.013931
C164  C     C_R   0.563859 0.983398 0.708790 -0.011433
C165  C     C_R   0.019049 0.563702 0.708638 -0.011917
C166  C     C_R   0.435455 0.015687 0.708847 -0.011361
C167  C     C_R   0.000015 0.500000 0.394531 0.865742
C168  C     C_R   0.983093 0.436245 0.708829 -0.013442
C169  C     C_R   0.999962 0.500023 0.229513 0.065239
C170  C     C_R   0.501150 0.999635 0.229429 0.064796
C171  C     C_R   0.499638 0.999418 0.729513 0.065641
C172  C     C_R   0.000871 0.500112 0.729433 0.065159
C173  C     C_R   0.065826 0.496411 0.168072 -0.106258
C174  C     C_R   0.507124 0.065213 0.167958 -0.084376
C175  C     C_R   0.934115 0.503974 0.168149 -0.104964
C176  C     C_R   0.495391 0.933881 0.168031 -0.106536
C177  C     C_R   0.565656 0.996248 0.668107 -0.106252
C178  C     C_R   0.562889 0.977924 0.791211 0.012625
C179  C     C_R   0.006968 0.565484 0.667890 -0.084762
C180  C     C_R   0.433924 0.003498 0.668100 -0.105050
C181  C     C_R   0.995169 0.434151 0.668085 -0.105532
C182  C     C_R   0.999967 0.500075 0.147816 -0.198204
C183  C     C_R   0.500355 0.999616 0.147754 -0.191499
C184  C     C_R   0.499846 0.999966 0.647811 -0.197848
C185  C     C_R   0.000286 0.499807 0.647750 -0.191282
C186  C     C_R   0.999954 0.500007 0.105484 0.962959
C187  C     C_R   0.500022 0.999802 0.105461 0.950960
C188  C     C_R   0.499942 0.999993 0.605483 0.963558
C189  C     C_R   0.023996 0.562955 0.791068 0.014945
C190  C     C_R   0.000013 0.499839 0.605459 0.951194
C191  C     C_R   0.859057 0.638508 0.001122 0.827712
C192  C     C_R   0.361438 0.859071 0.001099 0.831647
C193  C     C_R   0.140894 0.361372 0.001006 0.830988
C194  C     C_R   0.638410 0.140964 0.001087 0.795988
C195  C     C_R   0.139456 0.640489 0.999801 0.817504
C196  C     C_R   0.640404 0.860414 0.999885 0.803695
C197  C     C_R   0.860220 0.359772 0.000026 0.811138
C198  C     C_R   0.359585 0.139494 0.999844 0.819823
C199  C     C_R   0.359107 0.138593 0.501059 0.829635
C200  C     C_R   0.436655 0.021415 0.791238 0.012415
C201  C     C_R   0.861429 0.359074 0.501093 0.831409
C202  C     C_R   0.640961 0.861443 0.501070 0.830770
C203  C     C_R   0.138422 0.640991 0.501097 0.796618
C204  C     C_R   0.639448 0.140491 0.499798 0.817184
C205  C     C_R   0.140475 0.360560 0.499798 0.815711
C206  C     C_R   0.360353 0.859683 0.499941 0.822032
C207  C     C_R   0.859561 0.639487 0.499833 0.819440
C208  C     C_R   0.242262 0.708247 0.970554 -0.053149
C209  C     C_R   0.291041 0.241162 0.970198 -0.058004
C210  C     C_R   0.757742 0.291878 0.970738 -0.037149
C211  C     C_R   0.978330 0.437497 0.791251 0.011930
C212  C     C_R   0.706900 0.756270 0.971199 -0.026971
C213  C     C_R   0.753545 0.700266 0.973211 0.012535
C214  C     C_R   0.702312 0.244516 0.972310 0.027911
C215  C     C_R   0.244190 0.297023 0.972087 -0.007757
C216  C     C_R   0.298479 0.754651 0.972723 -0.002581
C217  C     C_R   0.742153 0.208334 0.470520 -0.054736
C218  C     C_R   0.791099 0.741373 0.470311 -0.056865
C219  C     C_R   0.258743 0.790973 0.470326 -0.059582
C220  C     C_R   0.208730 0.258303 0.470368 -0.053757
C221  C     C_R   0.255187 0.202122 0.472465 -0.001852
C222  C     C_R   0.062811 0.477471 0.291175 0.011636
C223  C     C_R   0.202734 0.744249 0.472198 0.017140
C224  C     C_R   0.744745 0.797626 0.472395 -0.003233
C225  C     C_R   0.798420 0.254678 0.472699 -0.002137
C226  C     C_R   0.195862 0.695798 0.001807 -0.115316
C227  C     C_R   0.304324 0.195891 0.001793 -0.111529
C228  C     C_R   0.802992 0.305197 0.002359 -0.104781
C229  C     C_R   0.695247 0.803463 0.002161 -0.118921
C230  C     C_R   0.800792 0.691227 0.004093 -0.110914
C231  C     C_R   0.691171 0.199055 0.003759 -0.098147
C232  C     C_R   0.198696 0.308082 0.003598 -0.102521
H1    H     H_    0.139452 0.660475 0.116433 0.363777
H2    H     H_    0.847544 0.642246 0.615094 0.362313
H3    H     H_    0.356249 0.976267 0.886007 0.206979
H4    H     H_    0.888024 0.369023 0.845005 0.279424
H5    H     H_    0.973140 0.284295 0.873524 0.236390
H6    H     H_    0.960836 0.351261 0.911231 0.216656
H7    H     H_    0.037309 0.355892 0.879714 0.228067
H8    H     H_    0.632648 0.888579 0.844775 0.279506
H9    H     H_    0.716287 0.974099 0.873448 0.237370
H10   H     H_    0.649373 0.961278 0.911165 0.216548
H11   H     H_    0.644128 0.037720 0.879674 0.228399
H12   H     H_    0.119691 0.625991 0.842741 0.280898
H13   H     H_    0.366555 0.846554 0.613500 0.364232
H14   H     H_    0.037841 0.715133 0.872218 0.234592
H15   H     H_    0.062161 0.652936 0.910310 0.239946
H16   H     H_    0.977165 0.643868 0.885591 0.207226
H17   H     H_    0.873139 0.618072 0.342074 0.279768
H18   H     H_    0.785509 0.537005 0.372374 0.232734
H19   H     H_    0.847594 0.561589 0.410423 0.240677
H20   H     H_    0.856887 0.476585 0.385694 0.206516
H21   H     H_    0.381555 0.873746 0.342257 0.280536
H22   H     H_    0.463054 0.785838 0.372217 0.232460
H23   H     H_    0.438292 0.847757 0.410355 0.240397
H24   H     H_    0.157344 0.358926 0.616038 0.366041
H25   H     H_    0.523321 0.857257 0.385615 0.206710
H26   H     H_    0.126915 0.381827 0.342071 0.280139
H27   H     H_    0.214478 0.463382 0.372186 0.232561
H28   H     H_    0.152493 0.438319 0.410275 0.240547
H29   H     H_    0.142842 0.523399 0.385671 0.207121
H30   H     H_    0.620246 0.125171 0.342510 0.280687
H31   H     H_    0.538942 0.214148 0.371955 0.232878
H32   H     H_    0.562666 0.152207 0.410255 0.240859
H33   H     H_    0.477870 0.143284 0.385308 0.206422
H34   H     H_    0.722154 0.904562 0.781295 0.242675
H35   H     H_    0.366305 0.157802 0.614812 0.390673
H36   H     H_    0.785744 0.001514 0.810985 0.221199
H37   H     H_    0.705721 0.056556 0.808944 0.231301
H38   H     H_    0.753367 0.034370 0.764675 0.288511
H39   H     H_    0.101574 0.720237 0.781039 0.242666
H40   H     H_    0.006487 0.785958 0.811025 0.220492
H41   H     H_    0.949807 0.707041 0.809652 0.230836
H42   H     H_    0.971945 0.753813 0.765027 0.287834
H43   H     H_    0.277110 0.094488 0.781354 0.241370
H44   H     H_    0.214474 0.998581 0.812416 0.220115
H45   H     H_    0.294939 0.944153 0.811163 0.230665
H46   H     H_    0.290956 0.591957 0.561765 0.325027
H47   H     H_    0.247066 0.963566 0.766581 0.288338
H48   H     H_    0.903615 0.278785 0.781804 0.242580
H49   H     H_    0.000552 0.214654 0.811113 0.220454
H50   H     H_    0.056054 0.294370 0.808947 0.231434
H51   H     H_    0.033161 0.246971 0.764701 0.288130
H52   H     H_    0.221928 0.403546 0.280995 0.241727
H53   H     H_    0.285284 0.499087 0.311891 0.219725
H54   H     H_    0.205167 0.554031 0.310726 0.230827
H55   H     H_    0.252795 0.534217 0.266093 0.289091
H56   H     H_    0.601698 0.219719 0.281208 0.242781
H57   H     H_    0.634623 0.845052 0.614493 0.390489
H58   H     H_    0.506385 0.285076 0.311174 0.219805
H59   H     H_    0.450028 0.205919 0.309891 0.230736
H60   H     H_    0.471874 0.252704 0.265219 0.288119
H61   H     H_    0.777597 0.595419 0.281436 0.241792
H62   H     H_    0.715027 0.499332 0.312374 0.219824
H63   H     H_    0.795574 0.445013 0.311117 0.230719
H64   H     H_    0.747753 0.464499 0.266528 0.288779
H65   H     H_    0.402375 0.778733 0.281351 0.241940
H66   H     H_    0.497923 0.714815 0.311886 0.219549
H67   H     H_    0.553330 0.794623 0.310555 0.230979
H68   H     H_    0.841377 0.367531 0.614679 0.390640
H69   H     H_    0.532753 0.747221 0.265963 0.288912
H70   H     H_    0.289210 0.407118 0.196182 0.370440
H71   H     H_    0.604248 0.285740 0.196504 0.373384
H72   H     H_    0.710370 0.592406 0.196818 0.370587
H73   H     H_    0.403331 0.711881 0.196650 0.370859
H74   H     H_    0.788513 0.905364 0.696123 0.370683
H75   H     H_    0.104240 0.786045 0.696276 0.373629
H76   H     H_    0.209883 0.091241 0.696735 0.370521
H77   H     H_    0.901463 0.212775 0.696839 0.370906
H78   H     H_    0.197304 0.507261 0.099685 0.383954
H79   H     H_    0.311978 0.858638 0.924334 0.220461
H80   H     H_    0.510795 0.197096 0.099822 0.374578
H81   H     H_    0.802273 0.496241 0.100055 0.384118
H82   H     H_    0.504110 0.802485 0.099609 0.382750
H83   H     H_    0.697285 0.007566 0.599815 0.384137
H84   H     H_    0.010904 0.697079 0.599591 0.374612
H85   H     H_    0.302315 0.995755 0.599870 0.384785
H86   H     H_    0.003583 0.302516 0.599777 0.383355
H87   H     H_    0.347256 0.865230 0.857271 0.216007
H88   H     H_    0.362440 0.770327 0.856256 0.280137
H89   H     H_    0.347385 0.142360 0.115006 0.362379
H90   H     H_    0.422377 0.828654 0.883974 0.262715
H91   H     H_    0.142682 0.318259 0.922370 0.223782
H92   H     H_    0.146372 0.343686 0.852698 0.217171
H93   H     H_    0.240306 0.361439 0.856203 0.282615
H94   H     H_    0.175995 0.421460 0.879809 0.259471
H95   H     H_    0.679905 0.142237 0.922665 0.226532
H96   H     H_    0.661431 0.146329 0.852318 0.216449
H97   H     H_    0.645388 0.240653 0.855466 0.282946
H98   H     H_    0.581959 0.177572 0.877404 0.255736
H99   H     H_    0.859868 0.687504 0.925467 0.223239
H100  H     H_    0.866584 0.346679 0.113575 0.364067
H101  H     H_    0.829867 0.582798 0.881214 0.258849
H102  H     H_    0.866752 0.660886 0.857101 0.216128
H103  H     H_    0.771777 0.646055 0.855557 0.281050
H104  H     H_    0.713333 0.858339 0.916677 0.227335
H105  H     H_    0.747876 0.856748 0.853064 0.211696
H106  H     H_    0.710208 0.766815 0.851243 0.263964
H107  H     H_    0.804479 0.783535 0.862896 0.255309
H108  H     H_    0.858483 0.286544 0.916033 0.226468
H109  H     H_    0.856494 0.253945 0.852155 0.211535
H110  H     H_    0.767411 0.293657 0.850542 0.262675
H111  H     H_    0.658740 0.860453 0.116297 0.365998
H112  H     H_    0.782334 0.198610 0.861452 0.256137
H113  H     H_    0.233023 0.164338 0.918483 0.226791
H114  H     H_    0.259768 0.151611 0.848339 0.220723
H115  H     H_    0.298656 0.240932 0.849819 0.270725
H116  H     H_    0.203199 0.224171 0.858822 0.245100
H117  H     H_    0.165044 0.767043 0.918841 0.226969
H118  H     H_    0.153304 0.740459 0.848436 0.222197
H119  H     H_    0.243099 0.702750 0.850269 0.271758
H120  H     H_    0.225318 0.797780 0.859361 0.244992
H121  H     H_    0.811794 0.358602 0.424293 0.220259
H122  H     H_    0.868142 0.658807 0.114875 0.390286
H123  H     H_    0.847076 0.365107 0.357206 0.216276
H124  H     H_    0.862811 0.270268 0.356330 0.280083
H125  H     H_    0.922314 0.329089 0.384018 0.263730
H126  H     H_    0.640583 0.811612 0.424267 0.219775
H127  H     H_    0.634343 0.844726 0.356783 0.216805
H128  H     H_    0.729243 0.860292 0.355867 0.280722
H129  H     H_    0.670411 0.920482 0.383174 0.262716
H130  H     H_    0.188416 0.640290 0.424067 0.219982
H131  H     H_    0.155608 0.634104 0.356583 0.216471
H132  H     H_    0.140422 0.729023 0.355664 0.280674
H133  H     H_    0.791033 0.091819 0.061580 0.326976
H134  H     H_    0.079928 0.670456 0.382971 0.262279
H135  H     H_    0.359909 0.188667 0.424454 0.219930
H136  H     H_    0.330682 0.080290 0.382902 0.262441
H137  H     H_    0.366776 0.156556 0.356825 0.216696
H138  H     H_    0.271925 0.140678 0.355769 0.280613
H139  H     H_    0.268161 0.336301 0.419089 0.225421
H140  H     H_    0.241702 0.349193 0.348639 0.221670
H141  H     H_    0.204418 0.259237 0.350124 0.271072
H142  H     H_    0.299356 0.277349 0.359390 0.244833
H143  H     H_    0.336571 0.731955 0.418807 0.223889
H144  H     H_    0.134866 0.344583 0.114492 0.390555
H145  H     H_    0.349297 0.758743 0.348413 0.221551
H146  H     H_    0.259556 0.796561 0.350056 0.270583
H147  H     H_    0.277138 0.701463 0.359131 0.245177
H148  H     H_    0.731788 0.663889 0.418857 0.226100
H149  H     H_    0.758554 0.651207 0.348453 0.221127
H150  H     H_    0.796578 0.740867 0.350058 0.271034
H151  H     H_    0.701430 0.723486 0.359196 0.245077
H152  H     H_    0.665370 0.267407 0.418630 0.226288
H153  H     H_    0.653610 0.239916 0.348259 0.221955
H154  H     H_    0.743296 0.202029 0.350311 0.271020
H155  H     H_    0.341564 0.867621 0.114626 0.390526
H156  H     H_    0.725716 0.297206 0.359061 0.245056
H157  H     H_    0.462262 0.642057 0.897979 0.379734
H158  H     H_    0.363114 0.461680 0.901173 0.379324
H159  H     H_    0.539293 0.361444 0.899497 0.379124
H160  H     H_    0.644671 0.540219 0.894845 0.377420
H161  H     H_    0.535072 0.765296 0.881955 0.348695
H162  H     H_    0.767553 0.467823 0.883988 0.349016
H163  H     H_    0.470498 0.238085 0.885192 0.345963
H164  H     H_    0.241127 0.530663 0.884521 0.345942
H165  H     H_    0.961997 0.141534 0.398155 0.377854
H166  H     H_    0.639704 0.160294 0.616441 0.363796
H167  H     H_    0.857972 0.960254 0.397330 0.376873
H168  H     H_    0.039559 0.856947 0.397346 0.377197
H169  H     H_    0.143569 0.039440 0.396825 0.376612
H170  H     H_    0.031845 0.261528 0.384165 0.345649
H171  H     H_    0.263150 0.968992 0.384967 0.345931
H172  H     H_    0.968947 0.737163 0.384637 0.345833
H173  H     H_    0.738768 0.030051 0.385357 0.345894
H174  H     H_    0.373268 0.117679 0.842166 0.278842
H175  H     H_    0.284832 0.036622 0.872568 0.233828
H176  H     H_    0.347255 0.061621 0.910393 0.240143
N1    N     N_2   0.320068 0.811433 0.909066 -0.314960
N2    N     N_2   0.687779 0.818726 0.408807 -0.315733
N3    N     N_2   0.181744 0.687492 0.408594 -0.315993
N4    N     N_2   0.312859 0.181667 0.408908 -0.315265
N5    N     N_2   0.228552 0.307108 0.405006 -0.294303
N6    N     N_2   0.307419 0.771738 0.404840 -0.294204
N7    N     N_2   0.771653 0.692969 0.404865 -0.294151
N8    N     N_2   0.694574 0.227396 0.404860 -0.293943
N9    N     N_2   0.388240 0.068642 0.853527 -0.254683
N10   N     N_2   0.937564 0.386545 0.854474 -0.258196
N11   N     N_2   0.614318 0.937735 0.854418 -0.259230
N12   N     N_2   0.191075 0.321307 0.907641 -0.314793
N13   N     N_2   0.070020 0.611613 0.853576 -0.255970
N14   N     N_2   0.889032 0.569515 0.353680 -0.252791
N15   N     N_2   0.430367 0.889334 0.353664 -0.252541
N16   N     N_2   0.111100 0.430511 0.353566 -0.252933
N17   N     N_2   0.570950 0.110307 0.353652 -0.253361
N18   N     N_2   0.693220 0.949340 0.789822 -0.312964
N19   N     N_2   0.056270 0.692243 0.789692 -0.314406
N20   N     N_2   0.306546 0.050331 0.790280 -0.313748
N21   N     N_2   0.948679 0.307469 0.790111 -0.312798
N22   N     N_2   0.192806 0.447883 0.289991 -0.314690
N23   N     N_2   0.679835 0.190504 0.907781 -0.304113
N24   N     N_2   0.556518 0.191525 0.289859 -0.314812
N25   N     N_2   0.807078 0.551276 0.290338 -0.314777
N26   N     N_2   0.446995 0.807586 0.290165 -0.315131
N27   N     N_2   0.812903 0.682018 0.909695 -0.303131
N28   N     N_2   0.731224 0.808393 0.907954 -0.285439
N29   N     N_2   0.808213 0.270043 0.907080 -0.284900
N30   N     N_2   0.272905 0.193676 0.904657 -0.293362
N31   N     N_2   0.194494 0.727358 0.904948 -0.294048
N32   N     N_2   0.820043 0.311402 0.409044 -0.315397
O1    O     O_3   0.000000 0.500000 0.999990 -0.522270
O2    O     O_R   0.000000 0.560740 0.412560 -0.639995
O3    O     O_R   0.228198 0.583379 0.887711 -0.793025
O4    O     O_2   0.934986 0.204092 0.457665 -0.519250
O5    O     O_R   0.913981 0.167271 0.395624 -0.819370
O6    O     O_2   0.795527 0.933879 0.456980 -0.519350
O7    O     O_R   0.832125 0.912273 0.394931 -0.819342
O8    O     O_2   0.066298 0.794888 0.456999 -0.520601
O9    O     O_R   0.087681 0.831353 0.394915 -0.818625
O10   O     O_2   0.205094 0.065720 0.456677 -0.519435
O11   O     O_R   0.169137 0.087603 0.394590 -0.819351
O12   O     O_2   0.080618 0.195851 0.438211 -0.573919
O13   O     O_R   0.439260 1.000000 0.412560 -0.640349
O14   O     O_R   0.084612 0.274174 0.387503 -0.792510
O15   O     O_2   0.196059 0.919336 0.438352 -0.572354
O16   O     O_R   0.275224 0.916026 0.387970 -0.792006
O17   O     O_2   0.919761 0.803556 0.438362 -0.572872
O18   O     O_R   0.915985 0.725065 0.387747 -0.791730
O19   O     O_2   0.805074 0.079708 0.438947 -0.572395
O20   O     O_R   0.726575 0.082982 0.388344 -0.792305
O21   O     O_2   0.167400 0.366267 0.187536 -0.608742
O22   O     O_R   0.255287 0.438491 0.212001 -0.771662
O23   O     O_2   0.639294 0.162414 0.186874 -0.541220
O24   O     O_R   0.000000 0.439260 0.412560 -0.640967
O25   O     O_R   0.571791 0.253023 0.212437 -0.776748
O26   O     O_2   0.832029 0.633602 0.187862 -0.607077
O27   O     O_R   0.744453 0.561115 0.212551 -0.771737
O28   O     O_2   0.364179 0.834208 0.187925 -0.608188
O29   O     O_R   0.435296 0.745381 0.212353 -0.771498
O30   O     O_2   0.666336 0.865554 0.687673 -0.608401
O31   O     O_R   0.754927 0.937132 0.711923 -0.772696
O32   O     O_2   0.139118 0.662629 0.686809 -0.541233
O33   O     O_R   0.071683 0.753439 0.712216 -0.776511
O34   O     O_2   0.331475 0.132751 0.687923 -0.607731
O35   O     O_R   0.000000 0.560680 0.087420 -0.604137
O36   O     O_R   0.244000 0.059944 0.712444 -0.771444
O37   O     O_2   0.863457 0.335469 0.688229 -0.608115
O38   O     O_R   0.933882 0.245945 0.712474 -0.772515
O39   O     O_2   0.179820 0.551978 0.164468 -0.575539
O40   O     O_R   0.148621 0.490847 0.109864 -0.777095
O41   O     O_2   0.455983 0.180899 0.162525 -0.584177
O42   O     O_R   0.524347 0.148030 0.110620 -0.757236
O43   O     O_2   0.820144 0.448541 0.164195 -0.575616
O44   O     O_R   0.851099 0.512016 0.110270 -0.771682
O45   O     O_2   0.549276 0.819122 0.164326 -0.574845
O46   O     O_R   0.439320 0.000000 0.087420 -0.612494
O47   O     O_R   0.488352 0.851317 0.109836 -0.776023
O48   O     O_2   0.679756 0.051672 0.664712 -0.576392
O49   O     O_R   0.648546 0.991153 0.609916 -0.777263
O50   O     O_2   0.956001 0.681224 0.662295 -0.583784
O51   O     O_R   0.024377 0.648040 0.610454 -0.757282
O52   O     O_2   0.320043 0.947910 0.663988 -0.575023
O53   O     O_R   0.351094 0.011553 0.610139 -0.772535
O54   O     O_2   0.048605 0.319154 0.664519 -0.576150
O55   O     O_R   0.988017 0.351453 0.609942 -0.776104
O56   O     O_R   0.000000 0.439320 0.087420 -0.605439
O57   O     O_R   0.560680 0.000000 0.087420 -0.581800
O58   O     O_R   0.500000 0.060680 0.587420 -0.603700
O59   O     O_R   0.939320 0.500000 0.587420 -0.612353
O60   O     O_R   0.500000 0.939320 0.587420 -0.605644
O61   O     O_3   0.500000 0.000000 0.999990 -0.523924
O62   O     O_R   0.060680 0.500000 0.587420 -0.581531
O63   O     O_R   0.853840 0.585430 0.977070 -0.620385
O64   O     O_R   0.414570 0.853840 0.977070 -0.618081
O65   O     O_R   0.146160 0.414570 0.977070 -0.618692
O66   O     O_R   0.585430 0.146160 0.977070 -0.618141
O67   O     O_R   0.146160 0.585430 0.977070 -0.611357
O68   O     O_R   0.585430 0.853840 0.977070 -0.614417
O69   O     O_R   0.853840 0.414570 0.977070 -0.615381
O70   O     O_R   0.414570 0.146160 0.977070 -0.612390
O71   O     O_R   0.353840 0.085430 0.477070 -0.617501
O72   O     O_3   0.500000 0.000000 0.499990 -0.522343
O73   O     O_R   0.914570 0.353840 0.477070 -0.618182
O74   O     O_R   0.646160 0.914570 0.477070 -0.617526
O75   O     O_R   0.085430 0.646160 0.477070 -0.613490
O76   O     O_R   0.646160 0.085430 0.477070 -0.611398
O77   O     O_R   0.085430 0.353840 0.477070 -0.610780
O78   O     O_R   0.353840 0.914570 0.477070 -0.611473
O79   O     O_R   0.914570 0.646160 0.477070 -0.611828
O80   O     O_R   0.085450 0.353820 0.022910 -0.632707
O81   O     O_R   0.646180 0.085450 0.022910 -0.637045
O82   O     O_R   0.914550 0.646180 0.022910 -0.628112
O83   O     O_3   0.000000 0.500000 0.499990 -0.524068
O84   O     O_R   0.353820 0.914550 0.022910 -0.629611
O85   O     O_R   0.914550 0.353820 0.022910 -0.628906
O86   O     O_R   0.353820 0.085450 0.022910 -0.635502
O87   O     O_R   0.085450 0.646180 0.022910 -0.634492
O88   O     O_R   0.646180 0.914550 0.022910 -0.630947
O89   O     O_R   0.585450 0.853820 0.522910 -0.633119
O90   O     O_R   0.146180 0.585450 0.522910 -0.639026
O91   O     O_R   0.414550 0.146180 0.522910 -0.630211
O92   O     O_R   0.853820 0.414550 0.522910 -0.629769
O93   O     O_R   0.414550 0.853820 0.522910 -0.632595
O94   O     O_R   0.060740 0.500000 0.912560 -0.639017
O95   O     O_R   0.853820 0.585450 0.522910 -0.635660
O96   O     O_R   0.585450 0.146180 0.522910 -0.634733
O97   O     O_R   0.146180 0.414550 0.522910 -0.634981
O98   O     O_2   0.117830 0.770255 0.081506 -0.532542
O99   O     O_R   0.173202 0.663040 0.093222 -0.770057
O100  O     O_2   0.232330 0.123975 0.084839 -0.533801
O101  O     O_R   0.343297 0.174744 0.091321 -0.769887
O102  O     O_2   0.865429 0.226637 0.088059 -0.573531
O103  O     O_R   0.834483 0.345124 0.089707 -0.760254
O104  O     O_2   0.769808 0.880736 0.082174 -0.533584
O105  O     O_R   0.500000 0.060740 0.912560 -0.636919
O106  O     O_R   0.661481 0.826789 0.093080 -0.769158
O107  O     O_2   0.874627 0.775034 0.084560 -0.535218
O108  O     O_R   0.833539 0.660451 0.092053 -0.734611
O109  O     O_2   0.675457 0.194434 0.097004 -0.502671
O110  O     O_R   0.755813 0.106429 0.082767 -0.676359
O111  O     O_2   0.126518 0.227447 0.085416 -0.536795
O112  O     O_R   0.169052 0.341783 0.091488 -0.737114
O113  O     O_2   0.224893 0.874222 0.084875 -0.536407
O114  O     O_R   0.339661 0.833266 0.091692 -0.734966
O115  O     O_2   0.617936 0.270137 0.581591 -0.533409
O116  O     O_R   0.939260 0.500000 0.912560 -0.642049
O117  O     O_R   0.673367 0.162910 0.593195 -0.770235
O118  O     O_2   0.732609 0.623921 0.584812 -0.533897
O119  O     O_R   0.843491 0.674786 0.591470 -0.769827
O120  O     O_2   0.365767 0.726627 0.587870 -0.574864
O121  O     O_R   0.334412 0.844996 0.589650 -0.759483
O122  O     O_2   0.269014 0.379877 0.582674 -0.535377
O123  O     O_R   0.160485 0.325779 0.592622 -0.769033
O124  O     O_2   0.374033 0.274243 0.584851 -0.536286
O125  O     O_R   0.332150 0.159837 0.591804 -0.734977
O126  O     O_2   0.175364 0.694877 0.596913 -0.502235
O127  O     O_R   0.500000 0.939260 0.912560 -0.644109
O128  O     O_R   0.255688 0.606723 0.582897 -0.677103
O129  O     O_2   0.627187 0.727592 0.585741 -0.537462
O130  O     O_R   0.668857 0.842290 0.591509 -0.737376
O131  O     O_2   0.724841 0.374355 0.584790 -0.536700
O132  O     O_R   0.839510 0.333197 0.591736 -0.735265
O133  O     O_2   0.434917 0.703803 0.957709 -0.519079
O134  O     O_R   0.414212 0.667737 0.895508 -0.818402
O135  O     O_2   0.295902 0.433679 0.959050 -0.520379
O136  O     O_R   0.337299 0.413907 0.897726 -0.818877
O137  O     O_2   0.566661 0.296783 0.958218 -0.522013
O138  O     O_R   0.560740 1.000000 0.412560 -0.640636
O139  O     O_R   0.587211 0.335667 0.896504 -0.813917
O140  O     O_2   0.702900 0.565407 0.955775 -0.519132
O141  O     O_R   0.670209 0.588492 0.893291 -0.814807
O142  O     O_2   0.579766 0.696939 0.936042 -0.571048
O143  O     O_R   0.587724 0.777304 0.886418 -0.802962
O144  O     O_2   0.698286 0.421107 0.937330 -0.564078
O145  O     O_R   0.778493 0.414705 0.887519 -0.802345
O146  O     O_2   0.421185 0.302355 0.939587 -0.572279
O147  O     O_R   0.417454 0.226119 0.887968 -0.791722
O148  O     O_2   0.304674 0.579617 0.939194 -0.576330
Zn1   Zn    Zn3+2 0.000000 0.586730 0.032740 1.065826
Zn2   Zn    Zn3+2 0.500000 0.913250 0.967240 1.004763
Zn3   Zn    Zn3+2 0.086750 0.500000 0.967240 1.008558
Zn4   Zn    Zn3+2 0.500000 0.086750 0.967240 1.005146
Zn5   Zn    Zn3+2 0.413250 0.000000 0.467240 1.009009
Zn6   Zn    Zn3+2 0.000000 0.413250 0.467240 1.007396
Zn7   Zn    Zn3+2 0.586750 0.000000 0.467240 1.007720
Zn8   Zn    Zn3+2 0.000000 0.586750 0.467240 1.004757
Zn9   Zn    Zn3+2 0.413270 0.000000 0.032740 1.058970
Zn10  Zn    Zn3+2 0.000000 0.413270 0.032740 1.060886
Zn11  Zn    Zn3+2 0.586730 0.000000 0.032740 1.072824
Zn12  Zn    Zn3+2 0.500000 0.086730 0.532740 1.065032
Zn13  Zn    Zn3+2 0.913270 0.500000 0.532740 1.058821
Zn14  Zn    Zn3+2 0.500000 0.913270 0.532740 1.059980
Zn15  Zn    Zn3+2 0.086730 0.500000 0.532740 1.071219
Zn16  Zn    Zn3+2 0.913250 0.500000 0.967240 1.006177

loop_
_geom_bond_atom_site_label_1
_geom_bond_atom_site_label_2
_ccdc_geom_bond_type
C91   H136  S    
C115  N9    S    
O24   Zn6   S    
H21   N15   S    
C81   H98   S    
O72   Zn5   S    
C8    C26   A    
C143  C175  S    
O61   Zn4   S    
C196  O68   A    
C149  O54   D    
C101  C200  A    
C185  C190  S    
C125  H41   S    
H75   O33   S    
H56   N24   S    
C9    C27   A    
C86   H120  S    
H139  N5    S    
C80   H93   S    
H104  N28   S    
C65   O108  S    
C121  H29   S    
C50   C178  A    
H157  O134  S    
C153  C162  A    
C2    C55   A    
C140  C159  S    
C118  H16   S    
C188  O60   A    
H133  O110  S    
C106  O6    D    
C114  O20   S    
C108  O10   D    
H148  N7    S    
C130  H64   S    
C74   O124  D    
C30   C38   S    
H89   O101  S    
C136  O29   S    
O61   Zn11  S    
C77   O132  S    
C31   N12   S    
C117  H9    S    
C30   C96   S    
C134  O27   S    
O73   Zn6   S    
O138  Zn7   S    
C102  O145  S    
C54   N16   S    
C126  H47   S    
C42   C221  S    
C41   C107  S    
H126  N2    S    
C192  O64   A    
C91   H138  S    
C10   C224  A    
C167  O24   A    
C35   C178  A    
C62   O101  S    
C91   N4    S    
C74   O125  S    
C88   H129  S    
C27   C75   S    
C214  C231  A    
C14   C19   A    
C201  O73   A    
C123  N18   S    
O97   Zn15  S    
H65   N26   S    
H165  O5    S    
C128  H55   S    
C119  H18   S    
H158  O136  S    
C95   H153  S    
C33   C213  S    
H163  O147  S    
H168  O9    S    
H77   O38   S    
C21   C29   A    
C31   C37   S    
C120  N15   S    
C41   N3    S    
C147  O51   S    
C82   N27   S    
C132  O22   S    
C145  O49   S    
C137  O30   D    
C5    C207  S    
C47   C217  S    
C1    O116  A    
C12   C20   A    
C45   C111  S    
C85   H115  S    
O1    Zn10  S    
C10   C202  S    
H173  O20   S    
C34   C212  S    
C81   N23   S    
C105  O4    D    
C84   N29   S    
C124  C222  A    
C101  C158  A    
H166  O117  S    
C72   O120  D    
O72   Zn7   S    
C140  O37   D    
C83   H106  S    
H83   O49   S    
C59   C167  S    
C39   C47   S    
H8    N11   S    
C126  H44   S    
C80   N12   S    
C86   H118  S    
C52   N14   S    
C133  O25   S    
C210  C228  A    
C23   C72   S    
C53   N15   S    
C100  O142  D    
C67   O112  S    
C128  H53   S    
C17   C230  A    
C118  H14   S    
O105  Zn4   S    
C102  O144  D    
H34   N18   S    
C177  C184  A    
C130  H62   S    
H80   O42   S    
C69   O114  S    
C64   O104  D    
C197  O69   A    
C161  C174  A    
C86   N31   S    
C162  C169  A    
C111  O18   S    
C46   C172  A    
C142  O42   S    
O80   Zn10  S    
C94   H150  S    
C203  O90   A    
H86   O55   S    
C121  H28   S    
C79   C155  A    
C95   N8    S    
C147  C179  S    
C212  C213  A    
C168  C181  A    
C96   O134  S    
O62   Zn15  S    
C48   N9    S    
C193  C232  S    
C167  O2    A    
O60   Zn14  S    
C180  C184  A    
C205  O97   A    
C148  O52   D    
H30   N17   S    
C15   C18   A    
C92   H141  S    
H17   N14   S    
O72   Zn14  S    
C160  C173  A    
C202  O89   A    
C43   C220  S    
C48   C56   A    
C122  N17   S    
C89   H131  S    
C146  C153  A    
C119  N14   S    
C209  C215  A    
C72   O121  S    
O72   Zn12  S    
C186  O56   A    
C75   O128  S    
C32   C36   S    
H108  N29   S    
C87   H124  S    
C2    C68   A    
H70   O22   S    
O63   Zn16  S    
C134  C153  S    
C31   C215  S    
C135  C152  A    
C14   C62   S    
H73   O29   S    
C16   C229  A    
C44   N6    S    
C137  C155  S    
C163  C170  A    
O83   Zn13  S    
H82   O47   S    
C208  C226  A    
C110  O15   D    
H81   O44   S    
C34   N28   S    
C123  H36   S    
O70   Zn4   S    
C61   O99   S    
C156  O138  A    
C131  H66   S    
O1    Zn16  S    
C133  O23   D    
H135  N4    S    
C152  C161  A    
C32   C214  S    
O79   Zn8   S    
C50   N11   S    
O78   Zn5   S    
C45   C218  S    
C44   C219  S    
C68   C170  A    
C37   N30   S    
C220  C221  A    
C53   C60   A    
C196  O88   A    
C54   C59   A    
H12   N13   S    
C198  O86   A    
C190  O62   A    
C141  O40   S    
C215  C232  A    
O58   Zn12  S    
C76   O130  S    
C157  C165  A    
O59   Zn13  S    
C162  C175  A    
C25   C26   A    
C110  O16   S    
C116  H5    S    
C55   N17   S    
C50   C56   A    
C78   H87   S    
C33   C99   S    
C94   N7    S    
C119  H19   S    
C191  O63   A    
C12   C226  A    
C71   O118  D    
C143  O44   S    
C187  O57   A    
C195  O87   A    
C144  C176  S    
H155  O114  S    
C88   N2    S    
C117  N11   S    
C129  H59   S    
C40   C224  S    
C151  C160  A    
C24   C150  A    
C7    C220  A    
C116  N10   S    
C124  C151  A    
C93   H145  S    
C129  H58   S    
H130  N3    S    
C165  C179  A    
C166  C180  A    
C66   O110  S    
C46   C189  A    
H99   N27   S    
H152  N8    S    
C109  O12   D    
C40   C106  S    
H174  N9    S    
C81   H97   S    
C63   O102  D    
C187  O46   A    
C194  C231  S    
O71   Zn5   S    
C82   H101  S    
C83   H107  S    
O86   Zn9   S    
C84   H110  S    
C195  O67   A    
C115  H176  S    
C129  N24   S    
O2    Zn8   S    
C18   C66   S    
O92   Zn13  S    
C2    C135  A    
H35   O125  S    
C150  N26   S    
H85   O53   S    
C65   O107  D    
C90   C157  A    
C120  H23   S    
C190  O59   A    
C69   O113  D    
C3    C192  S    
C61   O98   D    
C212  C229  A    
C40   N2    S    
O87   Zn1   S    
C194  O81   A    
C106  O7    S    
C32   C98   S    
H143  N6    S    
C104  O148  D    
O35   Zn1   S    
H13   O121  S    
C204  O76   A    
C25   C73   S    
C47   N8    S    
C77   O131  D    
C6    C206  S    
C30   C216  S    
C197  C228  S    
C29   C77   S    
C87   N32   S    
O65   Zn3   S    
C20   C69   S    
C43   C109  S    
C97   O136  S    
C38   N31   S    
C91   H137  S    
C146  N25   S    
C217  C225  A    
O116  Zn16  S    
C42   N4    S    
C130  N25   S    
H26   N16   S    
C47   C114  S    
C35   C171  A    
O46   Zn9   S    
C7    C205  S    
C199  O71   A    
C115  H3    S    
H171  O16   S    
C92   H140  S    
C116  H7    S    
C49   N10   S    
C48   C200  A    
O90   Zn15  S    
C127  H50   S    
C64   O106  S    
C98   O139  S    
C112  O127  A    
C18   C231  A    
C95   H156  S    
C70   O117  S    
H76   O36   S    
C122  H31   S    
H48   N21   S    
H159  O139  S    
C46   C211  A    
C73   O123  S    
C107  O9    S    
C88   H127  S    
C113  N21   S    
C182  C186  S    
C104  O3    S    
H4    N10   S    
H91   N12   S    
C93   H147  S    
C129  H60   S    
C16   C17   A    
C138  O32   D    
C34   C100  S    
C160  C169  A    
O95   Zn13  S    
C78   N1    S    
C19   C67   S    
O56   Zn10  S    
C207  O79   A    
C19   C232  A    
C51   C189  A    
C125  H42   S    
C117  H10   S    
C123  H37   S    
C1    O94   A    
C148  C180  S    
C22   C28   A    
C55   C60   A    
C149  C181  S    
C75   O126  D    
C139  O34   D    
C131  H67   S    
O74   Zn7   S    
C83   H105  S    
C133  C152  S    
C139  O36   S    
C149  O55   S    
C4    C204  S    
C131  H69   S    
C120  H25   S    
C57   C222  A    
C30   N1    S    
C40   C45   S    
C125  N19   S    
C126  H45   S    
C126  N20   S    
C86   H119  S    
O77   Zn6   S    
C125  H40   S    
H172  O18   S    
C205  O77   A    
O66   Zn4   S    
C113  C211  A    
O91   Zn12  S    
C67   O111  D    
C37   C103  S    
C114  O19   D    
C36   N29   S    
C201  O92   A    
C3    C216  A    
C130  H63   S    
H170  O14   S    
C199  O91   A    
C60   C156  S    
H57   O130  S    
C134  O26   D    
C183  C187  S    
C13   C52   A    
C136  C154  S    
C156  O13   A    
C11   C225  A    
C111  O17   D    
C3    C20   A    
H24   O123  S    
C94   H151  S    
O96   Zn12  S    
H144  O112  S    
C83   N28   S    
C121  H27   S    
H78   O40   S    
O84   Zn9   S    
C71   O119  S    
C193  O65   A    
H71   O25   S    
C41   C44   S    
C89   N3    S    
C42   C43   S    
O57   Zn11  S    
C28   C76   S    
O1    Zn1   S    
H162  O145  S    
C198  C227  S    
C158  C166  A    
C101  N20   S    
C192  O84   A    
C10   C28   A    
H79   N1    S    
C92   H142  S    
C82   H103  S    
C87   H125  S    
C118  H15   S    
H164  O3    S    
C99   O140  D    
O89   Zn14  S    
C98   O137  D    
C107  O8    D    
C95   H154  S    
C70   O115  D    
C218  C224  A    
C179  C185  A    
O83   Zn8   S    
H61   N25   S    
C7    C25   A    
C63   O103  S    
C15   C228  A    
C198  O70   A    
C24   C53   A    
C80   H94   S    
C132  O21   D    
C137  O31   S    
C84   H112  S    
H117  N31   S    
C99   O141  S    
O76   Zn7   S    
H74   O31   S    
C85   H116  S    
C203  O75   A    
C31   C97   S    
C120  H22   S    
C39   C225  S    
C193  O80   A    
C51   N13   S    
C24   C68   A    
C103  O147  S    
C219  C223  A    
O69   Zn16  S    
C105  O5    S    
C144  O45   D    
C168  C172  A    
C13   C57   A    
C196  C229  S    
C78   H90   S    
C85   H114  S    
O75   Zn8   S    
C132  C151  S    
H46   O128  S    
C209  C227  A    
C1    C58   S    
C174  C183  A    
C213  C230  A    
H161  O143  S    
C176  C183  A    
C127  N21   S    
C112  O105  A    
H52   N22   S    
C103  O146  D    
O67   Zn3   S    
C142  C174  S    
C108  O11   S    
C38   C208  S    
C141  O39   D    
C36   C102  S    
H1    O99   S    
C145  O48   D    
C191  O82   A    
C54   C222  A    
O13   Zn5   S    
C6    C23   A    
C116  H6    S    
H111  O106  S    
C78   H88   S    
C159  C168  A    
C128  H54   S    
C142  O41   D    
C207  O95   A    
C11   C201  S    
C94   H149  S    
C127  H51   S    
O93   Zn14  S    
C121  N16   S    
O83   Zn15  S    
C38   C104  S    
C9    C203  S    
C26   C74   S    
C5    C22   A    
C5    C218  A    
C139  C158  S    
C143  O43   D    
C43   N5    S    
C96   O133  D    
O88   Zn11  S    
H100  O103  S    
C23   C27   A    
O1    Zn3   S    
C118  N13   S    
C87   H123  S    
O68   Zn2   S    
C148  O53   S    
C165  C172  A    
C166  C171  A    
C208  C216  A    
C141  C173  S    
C140  O38   S    
C206  O93   A    
H84   O51   S    
C85   N30   S    
C13   C146  A    
H68   O132  S    
C163  C176  A    
C89   H132  S    
O82   Zn1   S    
C35   C200  A    
C57   C169  A    
O83   Zn6   S    
C93   N6    S    
C147  O50   D    
C154  C163  A    
C82   H102  S    
C12   C61   S    
H43   N20   S    
O61   Zn2   S    
C197  O85   A    
C115  H175  S    
C51   C58   A    
O127  Zn2   S    
C181  C185  A    
C210  C214  A    
C49   C58   A    
C184  C188  S    
O85   Zn10  S    
H122  O108  S    
C52   C59   A    
C33   N27   S    
C206  O78   A    
C9    C223  A    
C144  O47   S    
C188  O58   A    
C45   N7    S    
H72   O27   S    
C49   C211  A    
C33   C34   S    
C79   C178  A    
H39   N19   S    
C93   H146  S    
O61   Zn9   S    
C37   C209  S    
C41   C223  S    
C175  C182  A    
C161  C170  A    
C79   N18   S    
C202  O74   A    
C80   H92   S    
C113  C159  A    
C124  N22   S    
C204  O96   A    
C100  O143  S    
C117  H11   S    
C22   C71   S    
C97   O135  D    
C123  H38   S    
H121  N32   S    
C186  O35   A    
C39   C105  S    
H167  O7    S    
C195  C226  S    
C136  O28   D    
C128  N22   S    
C76   O129  D    
C138  O33   S    
C62   O100  D    
C8    C199  S    
C90   N19   S    
C173  C182  A    
H2    O119  S    
C194  O66   A    
C155  C164  A    
C17   C65   S    
C39   N32   S    
C21   C70   S    
H113  N30   S    
C127  H49   S    
O64   Zn2   S    
C14   C227  A    
C119  H20   S    
O81   Zn11  S    
C4    C21   A    
C138  C157  S    
C122  H32   S    
C109  O14   S    
C191  C230  S    
C73   O122  D    
C88   H128  S    
C131  N26   S    
H95   N23   S    
C32   N23   S    
H169  O11   S    
C81   H96   S    
C8    C221  A    
C135  N24   S    
C6    C219  A    
H160  O141  S    
C84   H109  S    
C11   C29   A    
C4    C217  A    
C150  C154  A    
C145  C177  S    
C15   C63   S    
O94   Zn3   S    
C164  C171  A    
C16   C64   S    
C66   O109  D    
C42   C108  S    
C89   H134  S    
C56   C112  S    
C164  C177  A    
C122  H33   S    
C36   C210  S    
C92   N5    S    
C90   C189  A    
C44   C110  S    
