data_mof_unit_65784.cif
_audit_creation_date              2012-12-10T17:35:38-0500
_audit_creation_method            fapswitch 2.2
_symmetry_space_group_name_H-M    P1
_symmetry_Int_Tables_number       1
_space_group_crystal_system       triclinic
_cell_length_a                    37.124493
_cell_length_b                    30.215125
_cell_length_c                    21.627772
_cell_angle_alpha                 89.999774
_cell_angle_beta                  53.988956
_cell_angle_gamma                 89.999729
_cell_volume                      19624.270478

loop_
_atom_site_label
_atom_site_type_symbol
_atom_type_description
_atom_site_fract_x
_atom_site_fract_y
_atom_site_fract_z
_atom_type_partial_charge
Br1   Br    Br    0.903415 0.497857 0.419593 -0.520176
Br2   Br    Br    0.949505 0.414698 0.743713 -0.486317
Br3   Br    Br    0.550487 0.914693 0.256293 -0.486313
Br4   Br    Br    0.449493 0.914704 0.743724 -0.486322
Br5   Br    Br    0.941975 0.421353 0.243501 -0.459644
Br6   Br    Br    0.058006 0.421341 0.756521 -0.459666
Br7   Br    Br    0.441984 0.921348 0.243492 -0.459655
Br8   Br    Br    0.557992 0.921331 0.756538 -0.459679
Br9   Br    Br    0.096584 0.497839 0.580404 -0.520147
Br10  Br    Br    0.403415 0.997849 0.419594 -0.520153
Br11  Br    Br    0.596583 0.997825 0.580403 -0.520168
Br12  Br    Br    0.970505 0.594561 0.228970 -0.601287
Br13  Br    Br    0.029516 0.594555 0.771009 -0.601282
Br14  Br    Br    0.470495 0.094558 0.228979 -0.601283
Br15  Br    Br    0.529531 0.094550 0.770992 -0.601279
Br16  Br    Br    0.050479 0.414688 0.256300 -0.486299
C1    C     C_R   0.913240 0.499967 0.586487 0.925393
C2    C     C_R   0.343141 0.468668 0.121880 -0.250077
C3    C     C_R   0.967729 0.843845 0.066469 -0.252835
C4    C     C_R   0.500000 0.366312 0.000000 -0.051206
C5    C     C_R   1.000000 0.866312 0.000000 -0.051208
C6    C     C_R   0.467029 0.297932 0.066515 0.120563
C7    C     C_R   0.532971 0.297932 0.933486 0.120561
C8    C     C_R   0.967030 0.797932 0.066516 0.120561
C9    C     C_R   0.032970 0.797932 0.933485 0.120562
C10   C     C_R   0.500000 0.274615 0.000000 0.078867
C11   C     C_R   1.000000 0.774615 0.000000 0.078867
C12   C     C_R   0.433862 0.275153 0.131819 -0.206241
C13   C     C_R   0.156859 0.968670 0.878125 -0.250074
C14   C     C_R   0.566137 0.275153 0.868182 -0.206239
C15   C     C_R   0.933864 0.775153 0.131821 -0.206238
C16   C     C_R   0.066135 0.775153 0.868180 -0.206241
C17   C     C_R   0.932938 0.729299 0.131501 -0.181611
C18   C     C_R   0.067062 0.729299 0.868500 -0.181614
C19   C     C_R   0.432936 0.229300 0.131499 -0.181614
C20   C     C_R   0.567064 0.229300 0.868502 -0.181616
C21   C     C_R   0.965795 0.705173 0.065959 0.066771
C22   C     C_R   0.034205 0.705173 0.934042 0.066770
C23   C     C_R   0.465794 0.205173 0.065958 0.066770
C24   C     C_R   0.843140 0.968681 0.121858 -0.250074
C25   C     C_R   0.534206 0.205173 0.934043 0.066768
C26   C     C_3   0.960058 0.531781 0.257827 0.085522
C27   C     C_3   0.039948 0.531772 0.742165 0.085531
C28   C     C_3   0.460055 0.031777 0.257831 0.085524
C29   C     C_3   0.539953 0.031766 0.742159 0.085545
C30   C     C_R   1.000000 0.728175 0.000000 0.034475
C31   C     C_R   0.500000 0.228175 0.000000 0.034476
C32   C     C_R   0.965076 0.658787 0.065066 -0.073132
C33   C     C_R   0.034924 0.658787 0.934935 -0.073142
C34   C     C_R   0.465075 0.158787 0.065065 -0.073136
C35   C     C_R   0.634302 0.499760 0.864902 -0.054670
C36   C     C_R   0.534925 0.158787 0.934936 -0.073148
C37   C     C_R   0.000000 0.635515 0.000000 -0.155459
C38   C     C_R   0.500000 0.135516 0.000000 -0.155464
C39   C     C_R   0.524299 0.656851 0.020392 -0.248986
C40   C     C_R   0.475701 0.656851 0.979607 -0.248990
C41   C     C_R   0.024298 0.156851 0.020393 -0.248990
C42   C     C_R   0.975702 0.156851 0.979605 -0.248986
C43   C     C_R   0.500000 0.634149 1.000000 -0.064280
C44   C     C_R   0.000000 0.134149 0.999999 -0.064281
C45   C     C_R   0.475052 0.702820 0.980472 0.118182
C46   C     C_R   0.365698 0.499760 0.135097 -0.054653
C47   C     C_R   0.524948 0.702820 0.019527 0.118181
C48   C     C_R   0.975053 0.202820 0.980470 0.118181
C49   C     C_R   0.024948 0.202820 0.019528 0.118182
C50   C     C_R   0.500000 0.726133 0.999999 0.081423
C51   C     C_R   0.000000 0.226133 0.999999 0.081423
C52   C     C_R   0.449776 0.725676 0.962341 -0.205820
C53   C     C_R   0.550223 0.725675 0.037658 -0.205821
C54   C     C_R   0.949779 0.225676 0.962336 -0.205820
C55   C     C_R   0.050222 0.225675 0.037662 -0.205823
C56   C     C_R   0.948897 0.271582 0.963749 -0.176701
C57   C     C_R   0.134302 0.999760 0.864903 -0.054658
C58   C     C_R   0.051104 0.271581 0.036250 -0.176703
C59   C     C_R   0.448894 0.771582 0.963753 -0.176701
C60   C     C_R   0.551105 0.771582 0.036246 -0.176703
C61   C     C_R   0.973855 0.295654 0.982447 0.072886
C62   C     C_R   0.026145 0.295654 0.017552 0.072888
C63   C     C_R   0.473854 0.795654 0.982449 0.072886
C64   C     C_R   0.526146 0.795654 0.017550 0.072888
C65   C     C_3   0.042203 0.526292 0.244297 -0.246228
C66   C     C_3   0.957801 0.526300 0.755699 -0.246218
C67   C     C_3   0.542201 0.026296 0.244299 -0.246219
C68   C     C_R   0.865697 0.999760 0.135098 -0.054678
C69   C     C_3   0.457804 0.026306 0.755696 -0.246215
C70   C     C_R   0.000000 0.272601 0.999999 0.033249
C71   C     C_R   0.500000 0.772601 0.999999 0.033250
C72   C     C_R   0.973279 0.342066 0.983943 -0.067280
C73   C     C_R   0.026721 0.342065 0.016056 -0.067286
C74   C     C_R   0.473278 0.842066 0.983945 -0.067278
C75   C     C_R   0.526721 0.842065 0.016054 -0.067286
C76   C     C_R   0.000000 0.365009 1.000000 -0.139482
C77   C     C_R   0.500000 0.865009 0.999999 -0.139480
C78   C     C_3   0.999432 0.451673 0.284356 0.098405
C79   C     C_R   0.657140 0.530618 0.805792 -0.246581
C80   C     C_3   0.000558 0.451673 0.715654 0.098401
C81   C     C_3   0.499437 0.951673 0.284351 0.098403
C82   C     C_3   0.500551 0.951673 0.715661 0.098398
C83   C     C_3   0.000787 0.500016 0.310340 -0.099303
C84   C     C_3   0.999212 0.500016 0.689661 -0.099307
C85   C     C_3   0.500788 0.000016 0.310339 -0.099307
C86   C     C_3   0.499211 0.000016 0.689661 -0.099299
C87   C     C_3   0.999447 0.502109 0.190564 -0.116617
C88   C     C_3   0.000553 0.502109 0.809436 -0.116618
C89   C     C_3   0.499447 0.002109 0.190564 -0.116616
C90   C     C_R   0.342861 0.530628 0.194191 -0.246584
C91   C     C_3   0.500553 0.002109 0.809436 -0.116614
C92   C     C_3   0.045542 0.520585 0.169657 -0.238184
C93   C     C_3   0.954462 0.520594 0.830339 -0.238194
C94   C     C_3   0.545540 0.020589 0.169658 -0.238188
C95   C     C_3   0.454464 0.020601 0.830337 -0.238202
C96   C     C_1   0.084194 0.516794 0.235673 0.244686
C97   C     C_1   0.915809 0.516810 0.764325 0.244687
C98   C     C_1   0.584192 0.016803 0.235674 0.244685
C99   C     C_1   0.415810 0.016821 0.764324 0.244687
C100  C     C_1   0.084645 0.493139 0.112114 0.289452
C101  C     C_R   0.157139 0.030626 0.805806 -0.246582
C102  C     C_1   0.915354 0.493157 0.887889 0.289450
C103  C     C_1   0.584645 0.993147 0.112113 0.289453
C104  C     C_1   0.415352 0.993170 0.887892 0.289446
C105  C     C_1   0.928480 0.635351 0.131483 0.262292
C106  C     C_1   0.071522 0.635351 0.868520 0.262302
C107  C     C_1   0.428478 0.135351 0.131481 0.262296
C108  C     C_1   0.571524 0.135351 0.868522 0.262306
C109  C     C_1   0.945777 0.366228 0.967925 0.209732
C110  C     C_1   0.054221 0.366227 0.032077 0.209712
C111  C     C_1   0.445775 0.866228 0.967931 0.209746
C112  C     C_R   0.086760 0.499967 0.413513 0.925399
C113  C     C_R   0.842860 0.030614 0.194215 -0.246580
C114  C     C_1   0.554223 0.866227 0.032073 0.209720
C115  C     C_1   0.915683 0.523370 0.275247 0.460067
C116  C     C_1   0.084322 0.523350 0.724745 0.460073
C117  C     C_1   0.415680 0.023361 0.275251 0.460070
C118  C     C_1   0.584326 0.023336 0.724739 0.460073
C119  C     C_R   0.703392 0.531217 0.759759 0.118117
C120  C     C_R   0.296608 0.531226 0.240225 0.118121
C121  C     C_R   0.203392 0.031225 0.759773 0.118121
C122  C     C_R   0.796608 0.031212 0.240249 0.118115
C123  C     C_R   0.726494 0.499476 0.772068 0.063337
C124  C     C_R   0.273507 0.499476 0.227933 0.063334
C125  C     C_R   0.226493 0.999476 0.772070 0.063334
C126  C     C_R   0.773506 0.999475 0.227934 0.063337
C127  C     C_R   0.703093 0.467806 0.831066 0.119585
C128  C     C_R   0.413240 0.999967 0.586488 0.925399
C129  C     C_R   0.296908 0.467797 0.168951 0.119589
C130  C     C_R   0.203092 0.967799 0.831055 0.119588
C131  C     C_R   0.796907 0.967809 0.168928 0.119584
C132  C     C_R   0.726874 0.563030 0.702060 -0.202430
C133  C     C_R   0.273126 0.563047 0.297908 -0.202426
C134  C     C_R   0.226874 0.063045 0.702087 -0.202426
C135  C     C_R   0.773125 0.063021 0.297955 -0.202430
C136  C     C_R   0.773229 0.563665 0.656834 -0.182266
C137  C     C_R   0.226771 0.563682 0.343135 -0.182281
C138  C     C_R   0.273228 0.063679 0.656861 -0.182276
C139  C     C_R   0.586760 0.999967 0.413513 0.925394
C140  C     C_R   0.726770 0.063657 0.343181 -0.182268
C141  C     C_R   0.796396 0.532081 0.668278 0.112693
C142  C     C_R   0.203604 0.532089 0.331707 0.112695
C143  C     C_R   0.296396 0.032088 0.668292 0.112694
C144  C     C_R   0.703603 0.032076 0.331731 0.112695
C145  C     C_R   0.000470 0.499856 0.378531 0.933799
C146  C     C_R   0.999528 0.499856 0.621470 0.933806
C147  C     C_R   0.500471 0.999856 0.378530 0.933802
C148  C     C_R   0.499528 0.999856 0.621470 0.933808
C149  C     C_R   0.772988 0.499472 0.725524 0.056904
C150  C     C_3   0.995093 0.453221 0.217787 -0.012255
C151  C     C_R   0.227013 0.499472 0.274477 0.056910
C152  C     C_R   0.272987 0.999473 0.725526 0.056909
C153  C     C_R   0.727012 0.999471 0.274478 0.056903
C154  C     C_R   0.796068 0.466925 0.736369 0.110920
C155  C     C_R   0.203932 0.466916 0.263648 0.110918
C156  C     C_R   0.296068 0.966919 0.736359 0.110919
C157  C     C_R   0.703932 0.966927 0.263627 0.110920
C158  C     C_R   0.772610 0.435253 0.794324 -0.185468
C159  C     C_R   0.227391 0.435235 0.205709 -0.185472
C160  C     C_R   0.272610 0.935240 0.794301 -0.185468
C161  C     C_3   0.004896 0.453220 0.782224 -0.012268
C162  C     C_R   0.727390 0.935259 0.205665 -0.185468
C163  C     C_R   0.726261 0.435900 0.841909 -0.206053
C164  C     C_R   0.273740 0.435882 0.158124 -0.206049
C165  C     C_R   0.226260 0.935886 0.841885 -0.206048
C166  C     C_R   0.773739 0.935907 0.158079 -0.206054
C167  C     C_R   0.842629 0.532461 0.623517 -0.193903
C168  C     C_R   0.157371 0.532468 0.376468 -0.193913
C169  C     C_R   0.342629 0.032467 0.623530 -0.193908
C170  C     C_R   0.657370 0.032457 0.376491 -0.193907
C171  C     C_R   0.865294 0.499811 0.633853 -0.053404
C172  C     C_3   0.495098 0.953221 0.217782 -0.012261
C173  C     C_R   0.134706 0.499811 0.366148 -0.053400
C174  C     C_R   0.365294 0.999812 0.633855 -0.053400
C175  C     C_R   0.634705 0.999811 0.366148 -0.053398
C176  C     C_R   0.842287 0.466832 0.689191 -0.209107
C177  C     C_R   0.157713 0.466824 0.310825 -0.209095
C178  C     C_R   0.342287 0.966827 0.689183 -0.209100
C179  C     C_R   0.657713 0.966834 0.310805 -0.209105
C180  C     C_R   1.000000 0.586944 0.000000 0.904806
C181  C     C_R   0.500000 0.086944 0.000000 0.904801
C182  C     C_R   0.999807 0.502174 0.121610 0.903474
C183  C     C_3   0.504888 0.953219 0.782232 -0.012275
C184  C     C_R   0.000193 0.502175 0.878390 0.903483
C185  C     C_R   0.499806 0.002174 0.121610 0.903479
C186  C     C_R   0.500193 0.002175 0.878390 0.903488
C187  C     C_R   0.000000 0.413191 1.000000 0.921999
C188  C     C_R   0.500000 0.913191 1.000000 0.922010
C189  C     C_3   0.958325 0.525338 0.331181 -0.060203
C190  C     C_3   0.041679 0.525330 0.668813 -0.060212
C191  C     C_3   0.458323 0.025334 0.331184 -0.060204
C192  C     C_3   0.541683 0.025323 0.668809 -0.060230
C193  C     C_R   0.500000 0.413586 0.000000 0.879131
C194  C     C_R   0.656859 0.468677 0.878136 -0.250074
C195  C     C_R   1.000000 0.913586 0.000000 0.879134
C196  C     C_R   0.586556 0.499962 0.913174 0.878669
C197  C     C_R   0.413444 0.499962 0.086825 0.878667
C198  C     C_R   0.086556 0.999962 0.913175 0.878666
C199  C     C_R   0.913443 0.999962 0.086826 0.878672
C200  C     C_R   0.500000 0.586503 0.000000 0.881137
C201  C     C_R   0.000000 0.086503 1.000000 0.881140
C202  C     C_R   0.532271 0.343846 0.933533 -0.252837
C203  C     C_R   0.467728 0.343846 0.066468 -0.252840
C204  C     C_R   0.032270 0.843845 0.933532 -0.252839
H1    H     H_    0.957848 0.558659 0.353530 0.202316
H2    H     H_    0.361679 0.444775 0.075952 0.149134
H3    H     H_    0.138321 0.944778 0.924055 0.149137
H4    H     H_    0.861678 0.944798 0.075913 0.149153
H5    H     H_    0.638813 0.554624 0.796989 0.150027
H6    H     H_    0.361187 0.554640 0.202982 0.150013
H7    H     H_    0.138813 0.054637 0.797013 0.150016
H8    H     H_    0.861186 0.054617 0.203023 0.150031
H9    H     H_    0.709394 0.587557 0.692361 0.156864
H10   H     H_    0.290606 0.587582 0.307594 0.156863
H11   H     H_    0.209394 0.087578 0.692398 0.156862
H12   H     H_    0.042161 0.558651 0.646459 0.202313
H13   H     H_    0.790605 0.087546 0.307659 0.156863
H14   H     H_    0.790952 0.588684 0.612803 0.162130
H15   H     H_    0.209048 0.588707 0.387153 0.162121
H16   H     H_    0.290952 0.088704 0.612840 0.162123
H17   H     H_    0.709047 0.088673 0.387217 0.162129
H18   H     H_    0.861046 0.557509 0.579671 0.173767
H19   H     H_    0.138954 0.557522 0.420304 0.173753
H20   H     H_    0.361046 0.057520 0.579692 0.173757
H21   H     H_    0.638953 0.057502 0.420342 0.173757
H22   H     H_    0.860431 0.441887 0.696730 0.178867
H23   H     H_    0.457843 0.058656 0.353535 0.202314
H24   H     H_    0.139570 0.441873 0.303297 0.178861
H25   H     H_    0.360431 0.941878 0.696713 0.178866
H26   H     H_    0.639569 0.941892 0.303262 0.178866
H27   H     H_    0.790105 0.410257 0.803153 0.165542
H28   H     H_    0.209896 0.410233 0.196892 0.165535
H29   H     H_    0.290104 0.910239 0.803122 0.165539
H30   H     H_    0.709896 0.910266 0.196830 0.165543
H31   H     H_    0.708545 0.411402 0.886886 0.155806
H32   H     H_    0.291455 0.411376 0.113160 0.155804
H33   H     H_    0.208545 0.911382 0.886852 0.155804
H34   H     H_    0.542170 0.058645 0.646450 0.202310
H35   H     H_    0.791455 0.911411 0.113097 0.155805
H36   H     H_    0.557243 0.362209 0.882673 0.148875
H37   H     H_    0.442756 0.362209 0.117328 0.148874
H38   H     H_    0.057241 0.862209 0.882671 0.148876
H39   H     H_    0.942758 0.862209 0.117330 0.148877
H40   H     H_    0.408383 0.292817 0.183062 0.156310
H41   H     H_    0.591617 0.292817 0.816939 0.156311
H42   H     H_    0.908385 0.792817 0.183065 0.156311
H43   H     H_    0.091614 0.792817 0.816936 0.156311
H44   H     H_    0.906382 0.713063 0.183386 0.164865
H45   H     H_    0.022339 0.433524 0.169360 0.187964
H46   H     H_    0.093618 0.713063 0.816616 0.164865
H47   H     H_    0.406379 0.213064 0.183383 0.164864
H48   H     H_    0.593621 0.213064 0.816619 0.164865
H49   H     H_    0.543321 0.638664 0.035461 0.157599
H50   H     H_    0.456679 0.638665 0.964538 0.157599
H51   H     H_    0.043319 0.138664 0.035464 0.157600
H52   H     H_    0.956681 0.138665 0.964534 0.157600
H53   H     H_    0.430453 0.708026 0.947431 0.156131
H54   H     H_    0.569547 0.708025 0.052568 0.156131
H55   H     H_    0.930456 0.208026 0.947425 0.156131
H56   H     H_    0.977645 0.433529 0.830654 0.187977
H57   H     H_    0.069545 0.208025 0.052573 0.156131
H58   H     H_    0.928654 0.287934 0.949652 0.168188
H59   H     H_    0.071347 0.287933 0.050347 0.168189
H60   H     H_    0.428651 0.787934 0.949658 0.168187
H61   H     H_    0.571349 0.787933 0.050341 0.168188
H62   H     H_    0.036223 0.562079 0.259410 0.179084
H63   H     H_    0.963788 0.562086 0.740578 0.179084
H64   H     H_    0.536217 0.062083 0.259415 0.179085
H65   H     H_    0.463796 0.062091 0.740569 0.179084
H66   H     H_    0.052200 0.553628 0.142354 0.182840
H67   H     H_    0.522346 0.933526 0.169353 0.187970
H68   H     H_    0.947811 0.553639 0.857634 0.182833
H69   H     H_    0.552195 0.053633 0.142359 0.182837
H70   H     H_    0.447819 0.053647 0.857626 0.182827
H71   H     H_    0.970235 0.433905 0.333209 0.223741
H72   H     H_    0.029752 0.433900 0.666805 0.223745
H73   H     H_    0.470242 0.933902 0.333202 0.223743
H74   H     H_    0.529743 0.933895 0.666816 0.223752
H75   H     H_    0.477633 0.933533 0.830666 0.187986
H76   H     H_    0.638322 0.444791 0.924076 0.149148
N1    N     N_1   0.117056 0.509617 0.228555 -0.193116
N2    N     N_1   0.100878 0.616863 0.815724 -0.159724
N3    N     N_1   0.399123 0.116863 0.184277 -0.159733
N4    N     N_1   0.600881 0.116863 0.815728 -0.159716
N5    N     N_1   0.923581 0.385255 0.955615 -0.165705
N6    N     N_1   0.076416 0.385254 0.044391 -0.165702
N7    N     N_1   0.423577 0.885256 0.955623 -0.165706
N8    N     N_1   0.576418 0.885254 0.044385 -0.165704
N9    N     N_1   0.880888 0.517143 0.288968 -0.129252
N10   N     N_1   0.119115 0.517115 0.711024 -0.129252
N11   N     N_1   0.380886 0.017130 0.288972 -0.129251
N12   N     N_1   0.882945 0.509638 0.771446 -0.193120
N13   N     N_1   0.619119 0.017095 0.711018 -0.129259
N14   N     N_1   0.617056 0.009630 0.228553 -0.193131
N15   N     N_1   0.382945 0.009653 0.771445 -0.193103
N16   N     N_1   0.115162 0.471990 0.067335 -0.151274
N17   N     N_1   0.884832 0.472014 0.932673 -0.151282
N18   N     N_1   0.615165 0.972000 0.067332 -0.151280
N19   N     N_1   0.384827 0.972032 0.932681 -0.151285
N20   N     N_1   0.899125 0.616862 0.184280 -0.159738
O1    O     O_R   0.933920 0.537280 0.566050 -0.629126
O2    O     O_R   0.433920 0.499950 0.013850 -0.619999
O3    O     O_R   0.066080 0.999950 0.986150 -0.620000
O4    O     O_R   0.933920 0.999950 0.013850 -0.620005
O5    O     O_R   0.499950 0.566010 0.947790 -0.622644
O6    O     O_R   0.500050 0.566010 0.052210 -0.622644
O7    O     O_R   0.999950 0.066010 0.947790 -0.622644
O8    O     O_R   0.000050 0.066010 0.052210 -0.622645
O9    O     O_R   0.933880 0.462680 0.566080 -0.603194
O10   O     O_R   0.066120 0.462680 0.433920 -0.603197
O11   O     O_R   0.433880 0.962680 0.566080 -0.603196
O12   O     O_R   0.066080 0.537280 0.433950 -0.629133
O13   O     O_R   0.566120 0.962680 0.433920 -0.603185
O14   O     O_R   0.999990 0.537270 0.407410 -0.640703
O15   O     O_R   0.000010 0.537270 0.592590 -0.640707
O16   O     O_R   0.499990 0.037270 0.407410 -0.640703
O17   O     O_R   0.500010 0.037270 0.592590 -0.640712
O18   O     O_R   0.999940 0.462670 0.407440 -0.583074
O19   O     O_R   0.000060 0.462670 0.592560 -0.583074
O20   O     O_R   0.499940 0.962670 0.407440 -0.583075
O21   O     O_R   0.500060 0.962670 0.592560 -0.583074
O22   O     O_R   0.962660 0.566020 0.037320 -0.621134
O23   O     O_R   0.433920 0.037280 0.566050 -0.629130
O24   O     O_R   0.037340 0.566020 0.962680 -0.621128
O25   O     O_R   0.462660 0.066020 0.037320 -0.621135
O26   O     O_R   0.537340 0.066020 0.962680 -0.621128
O27   O     O_R   0.962680 0.499950 0.129900 -0.596700
O28   O     O_R   0.037320 0.499950 0.870100 -0.596705
O29   O     O_R   0.462680 0.999950 0.129900 -0.596702
O30   O     O_R   0.537320 0.999950 0.870100 -0.596707
O31   O     O_R   0.037280 0.499990 0.055330 -0.632335
O32   O     O_R   0.962720 0.499990 0.944670 -0.632333
O33   O     O_R   0.537280 0.999990 0.055330 -0.632336
O34   O     O_R   0.566080 0.037280 0.433950 -0.629130
O35   O     O_R   0.462720 0.999990 0.944670 -0.632333
O36   O     O_R   0.962680 0.433880 0.037290 -0.600838
O37   O     O_R   0.037320 0.433880 0.962710 -0.600837
O38   O     O_R   0.462680 0.933880 0.037290 -0.600839
O39   O     O_R   0.537320 0.933880 0.962710 -0.600837
O40   O     O_R   0.499930 0.433870 0.947760 -0.619933
O41   O     O_R   0.500070 0.433870 0.052240 -0.619934
O42   O     O_R   0.999930 0.933870 0.947760 -0.619934
O43   O     O_R   0.000070 0.933870 0.052240 -0.619934
O44   O     O_R   0.566010 0.499970 0.881660 -0.619035
O45   O     O_R   0.433990 0.499970 0.118340 -0.619032
O46   O     O_R   0.066010 0.999970 0.881660 -0.619031
O47   O     O_R   0.933990 0.999970 0.118340 -0.619037
O48   O     O_R   0.566080 0.499950 0.986150 -0.620003
Zn1   Zn    Zn3+2 0.000000 0.549780 0.500000 0.988773
Zn2   Zn    Zn3+2 0.500070 0.499950 0.069750 0.976929
Zn3   Zn    Zn3+2 0.999930 0.999950 0.930250 0.976927
Zn4   Zn    Zn3+2 0.000070 0.999950 0.069750 0.976926
Zn5   Zn    Zn3+2 0.500000 0.049780 0.500000 0.988771
Zn6   Zn    Zn3+2 0.000000 0.450160 0.500000 1.080160
Zn7   Zn    Zn3+2 0.500000 0.950160 0.500000 1.080164
Zn8   Zn    Zn3+2 0.950160 0.499940 0.049810 1.039365
Zn9   Zn    Zn3+2 0.049840 0.499940 0.950190 1.039361
Zn10  Zn    Zn3+2 0.450160 0.999940 0.049810 1.039365
Zn11  Zn    Zn3+2 0.549840 0.999940 0.950190 1.039358
Zn12  Zn    Zn3+2 0.499930 0.499950 0.930250 0.976929

loop_
_geom_bond_atom_site_label_1
_geom_bond_atom_site_label_2
_ccdc_geom_bond_type
C89   C94   S    
C39   C43   A    
C156  C178  A    
C8    C11   A    
C120  C124  A    
C40   H50   S    
O14   Zn1   S    
C63   C71   A    
C169  C174  A    
C52   C59   A    
C119  C123  A    
C133  H10   S    
C3    H39   S    
C169  H20   S    
C136  H14   S    
C42   C44   A    
C42   H52   S    
C199  O47   A    
O3    Zn4   S    
C133  C137  A    
C117  N11   T    
C63   C74   A    
Br12  C26   S    
C85   C191  S    
C139  O13   A    
C61   C72   A    
C5    C204  A    
C203  H37   S    
C195  O42   A    
C182  O31   A    
C130  C165  A    
C185  O33   A    
C65   C92   S    
C193  O41   A    
C20   H48   S    
C67   C98   S    
O18   Zn6   S    
C93   C102  S    
C62   C73   A    
C145  O18   A    
C188  O38   A    
C85   C147  S    
C91   C186  S    
C13   C130  A    
C151  C155  A    
C65   C83   S    
C82   C86   S    
C16   C18   A    
C99   N15   T    
C48   C51   A    
C55   C58   A    
C147  O20   A    
C162  H30   S    
C172  H67   S    
C146  O15   A    
O21   Zn7   S    
O11   Zn7   S    
C55   H57   S    
C162  C166  A    
C128  O11   A    
C10   C31   A    
C182  O27   A    
C11   C30   A    
O7    Zn3   S    
C102  N17   T    
Br6   C161  S    
C140  H17   S    
C177  H24   S    
C147  O16   A    
C74   C77   A    
C23   C31   A    
C154  C158  A    
C136  C141  A    
C125  C152  A    
C24   C131  A    
C107  N3    T    
C80   H72   S    
C124  C129  A    
C46   C90   A    
C122  C135  A    
Br16  C78   S    
C40   C43   A    
C14   C20   A    
C148  O21   A    
O30   Zn11  S    
Br2   C80   S    
C36   C108  S    
C33   C37   A    
C126  C131  A    
C113  H8    S    
C56   H58   S    
O25   Zn10  S    
C92   H66   S    
C181  O25   A    
O29   Zn10  S    
O19   Zn6   S    
C37   C180  S    
C202  H36   S    
C9    C204  A    
C19   H47   S    
C197  O2    A    
C86   C192  S    
C161  H56   S    
C35   C79   A    
C199  O4    A    
O45   Zn2   S    
O47   Zn4   S    
C155  C177  A    
O1    Zn1   S    
C26   C87   S    
C186  O30   A    
C28   C89   S    
O10   Zn6   S    
C17   H44   S    
C56   C61   A    
C82   C183  S    
C83   C189  S    
C3    C5    A    
C41   H51   S    
C201  O7    A    
C26   C189  S    
C137  C142  A    
C123  C149  A    
C27   C88   S    
C67   H64   S    
C123  C127  A    
C52   H53   S    
C47   C53   A    
C12   C19   A    
C39   C47   A    
C26   C115  S    
C39   H49   S    
C127  C163  A    
C109  N5    T    
C124  C151  A    
C90   C120  A    
C183  H75   S    
C27   C190  S    
C88   C184  S    
C195  O43   A    
C79   C119  A    
C148  O17   A    
O35   Zn10  S    
C42   C48   A    
C32   C37   A    
C184  O32   A    
O9    Zn6   S    
O15   Zn1   S    
C66   C93   S    
C140  C144  A    
C141  C149  A    
C32   C105  S    
C2    C46   A    
C49   C51   A    
C28   C191  S    
C73   C76   A    
C204  H38   S    
C79   H5    S    
C72   C109  S    
C89   C185  S    
C88   C161  S    
C65   C96   S    
C74   C111  S    
C25   C31   A    
C67   C94   S    
C194  H76   S    
Br5   C150  S    
O6    Zn2   S    
C198  O3    A    
C94   H69   S    
C29   C192  S    
C6    C10   A    
C4    C203  A    
C121  C134  A    
C67   C85   S    
C1    O1    A    
C98   N14   T    
C91   C95   S    
C78   H71   S    
C132  C136  A    
C66   C97   S    
C116  N10   T    
C94   C103  S    
C159  C164  A    
C146  O19   A    
C59   H60   S    
C143  C169  A    
O28   Zn9   S    
C138  C143  A    
C91   C183  S    
C164  H32   S    
C128  C174  S    
C157  C162  A    
C80   C84   S    
O5    Zn12  S    
O37   Zn9   S    
C196  O44   A    
C175  C179  A    
C22   C30   A    
O39   Zn11  S    
C173  C177  A    
C86   C148  S    
C153  C157  A    
O36   Zn8   S    
C84   C146  S    
C69   C86   S    
C156  C160  A    
C193  O40   A    
C24   C68   A    
C6    C203  A    
C2    C129  A    
C180  O22   A    
C78   C150  S    
C120  C133  A    
O42   Zn3   S    
C22   C33   A    
C105  N20   T    
C34   C38   A    
C38   C181  S    
C81   H73   S    
C89   C172  S    
Br9   C190  S    
C167  H18   S    
C135  H13   S    
C97   N12   T    
C7    C10   A    
C170  C175  A    
C139  O34   A    
C83   C145  S    
C93   H68   S    
C35   C196  S    
O24   Zn9   S    
C12   H40   S    
C142  C151  A    
C144  C153  A    
O26   Zn11  S    
C80   C161  S    
C166  H35   S    
C108  N4    T    
C68   C199  S    
C73   C110  S    
C114  N8    T    
C115  N9    T    
C47   C50   A    
C6    C12   A    
C20   C25   A    
O17   Zn5   S    
C200  O5    A    
C158  H27   S    
O38   Zn10  S    
C127  C194  A    
O46   Zn3   S    
C160  C165  A    
C176  H22   S    
C104  N19   T    
C190  H12   S    
C60   C64   A    
C60   H61   S    
C69   C99   S    
C122  C126  A    
C160  H29   S    
C43   C200  S    
C41   C44   A    
O41   Zn2   S    
C17   C21   A    
C134  H11   S    
O43   Zn4   S    
C87   C182  S    
C16   H43   S    
C19   C23   A    
C1    O9    A    
C167  C171  A    
C75   C77   A    
C163  H31   S    
Br3   C81   S    
C110  N6    T    
C187  O37   A    
C135  C140  A    
O32   Zn8   S    
C165  H33   S    
C125  C130  A    
C126  C153  A    
C197  O45   A    
C131  C166  A    
C159  H28   S    
C184  O28   A    
C24   H4    S    
C187  O36   A    
C46   C197  S    
C112  O10   A    
C180  O24   A    
Br13  C27   S    
Br14  C28   S    
C149  C154  A    
C13   H3    S    
C121  C125  A    
O12   Zn1   S    
C51   C70   A    
C4    C202  A    
C128  O23   A    
C65   H62   S    
C41   C49   A    
C69   C95   S    
C170  H21   S    
C14   H41   S    
C92   C100  S    
C64   C75   A    
C3    C8    A    
C8    C15   A    
C35   C194  A    
C1    C171  S    
C129  C164  A    
C150  H45   S    
O48   Zn2   S    
C2    H2    S    
C118  N13   T    
C103  N18   T    
C152  C156  A    
C58   C62   A    
C40   C45   A    
C141  C167  A    
C21   C30   A    
C142  C168  A    
C81   C172  S    
Br4   C82   S    
O23   Zn5   S    
C144  C170  A    
C185  O29   A    
C75   C114  S    
C53   H54   S    
C29   C118  S    
C95   H70   S    
C69   H65   S    
C53   C60   A    
C15   H42   S    
C27   C116  S    
C196  O48   A    
C64   C71   A    
C111  N7    T    
C88   C93   S    
C13   C57   A    
C154  C176  A    
C68   C113  A    
C143  C152  A    
C137  H15   S    
C112  C173  S    
O8    Zn4   S    
C77   C188  S    
C45   C50   A    
C181  O26   A    
C72   C76   A    
C178  H25   S    
C157  C179  A    
C15   C17   A    
C87   C92   S    
C48   C54   A    
Br1   C189  S    
C168  H19   S    
O2    Zn12  S    
C62   C70   A    
C9    C16   A    
C7    C202  A    
C188  O39   A    
C82   H74   S    
C192  H34   S    
C66   H63   S    
O34   Zn5   S    
C36   C38   A    
C179  H26   S    
C58   H59   S    
C57   C101  A    
C90   H6    S    
C113  C122  A    
C7    C14   A    
C200  O6    A    
Br7   C172  S    
C50   C71   A    
C84   C190  S    
O4    Zn3   S    
C49   C55   A    
C201  O8    A    
C155  C159  A    
C5    C195  S    
C95   C104  S    
C106  N2    T    
Br10  C191  S    
C145  O14   A    
C191  H23   S    
O31   Zn9   S    
O20   Zn7   S    
C112  O12   A    
O16   Zn5   S    
C198  O46   A    
C21   C32   A    
C76   C187  S    
O27   Zn8   S    
C139  C175  S    
O40   Zn12  S    
C100  N16   T    
C61   C70   A    
C59   C63   A    
Br11  C192  S    
Br15  C29   S    
C28   C117  S    
C101  H7    S    
C54   H55   S    
C25   C36   A    
C18   C22   A    
C66   C84   S    
C18   H46   S    
C101  C121  A    
C34   C107  S    
C9    C11   A    
C96   N1    T    
O13   Zn7   S    
O22   Zn8   S    
C44   C201  S    
C45   C52   A    
C78   C83   S    
C33   C106  S    
C186  O35   A    
C189  H1    S    
C171  C176  A    
C57   C198  S    
C174  C178  A    
C29   C91   S    
C23   C34   A    
C87   C150  S    
C4    C193  S    
C119  C132  A    
C134  C138  A    
C138  H16   S    
C168  C173  A    
Br8   C183  S    
C54   C56   A    
C132  H9    S    
O33   Zn11  S    
C158  C163  A    
C81   C85   S    
O44   Zn12  S    
