data_mof_unit_51990.cif
_audit_creation_date              2012-12-11T16:06:42-0500
_audit_creation_method            fapswitch 2.2
_symmetry_space_group_name_H-M    P1
_symmetry_Int_Tables_number       1
_space_group_crystal_system       triclinic
_cell_length_a                    8.229336
_cell_length_b                    12.608422
_cell_length_c                    17.355606
_cell_angle_alpha                 94.212243
_cell_angle_beta                  96.010814
_cell_angle_gamma                 97.79052
_cell_volume                      1767.33564573

loop_
_atom_site_label
_atom_site_type_symbol
_atom_type_description
_atom_site_fract_x
_atom_site_fract_y
_atom_site_fract_z
_atom_type_partial_charge
Ba1   Ba    Ba6+2 0.158660 0.552610 0.463110 1.643100
Ba2   Ba    Ba6+2 0.651510 0.447380 0.536830 1.636539
C1    C     C_3   0.416413 0.984016 0.204956 0.327714
C2    C     C_R   0.733759 0.816071 0.469083 -0.278879
C3    C     C_R   0.701270 0.997818 0.442341 -0.096819
C4    C     C_3   0.913600 0.839215 0.278608 0.323651
C5    C     C_R   0.638430 0.888440 0.437117 -0.027325
C6    C     C_R   0.888151 0.850882 0.510840 0.055944
C7    C     C_R   0.952080 0.963186 0.519211 -0.063392
C8    C     C_R   0.857487 0.037749 0.483468 -0.054449
C9    C     C_R   0.921207 0.150009 0.491286 0.061869
C10   C     C_R   0.171916 0.112470 0.564451 -0.012000
C11   C     C_R   0.108591 0.003193 0.560381 -0.096878
C12   C     C_3   0.465159 0.898979 0.258891 0.716685
C13   C     C_R   0.600793 0.541003 0.278637 -0.266363
C14   C     C_R   0.446044 0.481971 0.254468 0.068496
C15   C     C_R   0.389121 0.463399 0.174839 -0.145746
C16   C     C_3   0.895275 0.938390 0.235527 -0.359415
C17   C     C_R   0.488590 0.503647 0.119480 -0.017533
C18   C     C_R   0.647508 0.559445 0.144398 -0.098911
C19   C     C_R   0.703972 0.576053 0.224125 0.032059
C20   C     C_R   0.415991 0.518987 0.834874 -0.112753
C21   C     C_R   0.358892 0.512288 0.755492 0.034076
C22   C     C_R   0.098317 0.413950 0.779697 0.012536
C23   C     C_3   0.563994 0.774777 0.642893 0.275314
C24   C     C_R   0.154462 0.419766 0.859416 -0.136026
C25   C     C_R   0.315065 0.471172 0.887083 0.001210
C26   C     C_1   0.374546 0.479949 0.969165 -0.005186
C27   C     C_1   0.426484 0.489550 0.037614 -0.007992
C28   C     C_3   0.754038 0.314688 0.302706 0.303884
C29   C     C_R   0.203513 0.456134 0.728090 -0.281325
C30   C     C_3   0.744327 0.288054 0.215365 -0.387481
C31   C     C_3   0.057362 0.682547 0.696093 0.309072
C32   C     C_3   0.095077 0.711815 0.783368 -0.400066
C33   C     C_3   0.239536 0.229579 0.374358 0.289883
C34   C     C_3   0.569574 0.895559 0.655818 -0.331471
C35   C     C_3   0.235423 0.108767 0.362388 -0.353292
C36   C     C_3   0.352034 0.739967 0.181752 0.241696
C37   C     C_3   0.447654 0.046198 0.084782 0.156603
C38   C     C_3   0.892722 0.153622 0.715886 0.344290
C39   C     C_3   0.952215 0.066839 0.763498 -0.414838
C40   C     C_3   0.402781 0.210069 0.750622 0.370650
C41   C     C_3   0.434846 0.177483 0.832867 -0.372778
C42   C     C_R   0.075303 0.184977 0.533379 -0.286818
H1    H     H_    0.645599 0.219427 0.196506 0.136450
H2    H     H_    0.178026 0.079194 0.302945 0.108756
H3    H     H_    0.163136 0.067152 0.404309 0.075797
H4    H     H_    0.362884 0.089103 0.370201 0.112606
H5    H     H_    0.582428 0.936874 0.292847 -0.108009
H6    H     H_    0.690189 0.756707 0.636383 0.015388
H7    H     H_    0.481010 0.747110 0.588382 0.068453
H8    H     H_    0.644042 0.926102 0.711805 0.119326
H9    H     H_    0.625465 0.935206 0.607982 0.074510
H10   H     H_    0.442565 0.915235 0.657551 0.140841
H11   H     H_    0.433482 0.063376 0.239454 -0.015816
H12   H     H_    0.716481 0.357907 0.184065 0.057573
H13   H     H_    0.794541 0.918705 0.186883 0.192069
H14   H     H_    0.793784 0.116147 0.669686 0.078522
H15   H     H_    0.998605 0.190070 0.687251 -0.051648
H16   H     H_    0.991286 0.003434 0.724615 0.095776
H17   H     H_    0.058549 0.102554 0.806420 0.110961
H18   H     H_    0.852316 0.030300 0.795658 0.130077
H19   H     H_    0.270136 0.218292 0.739130 -0.075260
H20   H     H_    0.478869 0.288963 0.747161 0.089377
H21   H     H_    0.397791 0.237887 0.874894 0.066367
H22   H     H_    0.568086 0.172624 0.847417 0.152855
H23   H     H_    0.864069 0.266307 0.200061 0.127615
H24   H     H_    0.005242 0.861741 0.330968 0.073694
H25   H     H_    0.362470 0.097842 0.837990 0.106890
H26   H     H_    0.624900 0.050470 0.415116 0.091301
H27   H     H_    0.185040 0.950648 0.587933 0.107349
H28   H     H_    0.125393 0.269371 0.537803 0.066052
H29   H     H_    0.683074 0.731791 0.464935 0.069905
H30   H     H_    0.536697 0.563073 0.855984 0.079126
H31   H     H_    0.727365 0.588339 0.102287 0.075719
H32   H     H_    0.073220 0.386153 0.899456 0.074964
H33   H     H_    0.268759 0.417183 0.156197 0.082544
H34   H     H_    0.949471 0.618264 0.685283 0.070317
H35   H     H_    0.645653 0.553167 0.339971 0.062151
H36   H     H_    0.791466 0.809781 0.297359 -0.007408
H37   H     H_    0.159916 0.451777 0.666743 0.062733
H38   H     H_    0.866710 0.004216 0.275749 0.085759
H39   H     H_    0.010450 0.965676 0.210483 0.105539
H40   H     H_    0.633938 0.334840 0.317402 0.007403
H41   H     H_    0.852138 0.384415 0.319754 0.066625
H42   H     H_    0.378767 0.694967 0.128551 0.042461
H43   H     H_    0.249480 0.784621 0.163271 0.058688
H44   H     H_    0.312237 0.682018 0.223378 0.102381
H45   H     H_    0.208871 0.771553 0.795978 0.132398
H46   H     H_    0.165271 0.653413 0.673524 0.011572
H47   H     H_    0.113417 0.247465 0.378872 0.012898
H48   H     H_    0.416993 0.124957 0.107767 0.014970
H49   H     H_    0.335469 0.996389 0.052967 0.039359
H50   H     H_    0.538375 0.062337 0.042575 0.071997
H51   H     H_    0.113408 0.639535 0.813889 0.065078
H52   H     H_    0.990469 0.746644 0.805863 0.124066
H53   H     H_    0.320876 0.259096 0.429026 0.069026
H54   H     H_    0.283439 0.963449 0.182223 -0.019391
O1    O     O_2   0.163080 0.763400 0.536930 -0.459010
O2    O     O_2   0.759908 0.423473 0.774116 -0.491745
O3    O     O_3   0.827863 0.227181 0.764981 -0.591268
O4    O     O_3   0.893330 0.628980 0.538660 -0.493160
O5    O     O_3   0.422000 0.445190 0.409310 -0.488197
O6    O     O_2   0.648720 0.552000 0.685060 -0.459737
O7    O     O_3   0.506286 0.727406 0.707482 -0.641518
O8    O     O_2   0.507618 0.112811 0.553569 -0.482735
O9    O     O_3   0.445882 0.131603 0.697826 -0.599653
O10   O     O_3   0.379830 0.697590 0.399610 -0.461022
O11   O     O_2   0.311788 0.884871 0.454209 -0.480158
O12   O     O_3   0.297166 0.275315 0.309570 -0.640443
O13   O     O_3   0.023813 0.774508 0.660877 -0.645679
O14   O     O_3   0.340100 0.873930 0.307555 -0.654984
O15   O     O_2   0.161570 0.447940 0.314920 -0.463670
O16   O     O_3   0.953630 0.643360 0.361440 -0.483173
O17   O     O_2   0.038679 0.567246 0.225320 -0.502886
O18   O     O_3   0.498190 0.806133 0.215369 -0.682921
O19   O     O_3   0.518122 0.990296 0.144225 -0.644824
O20   O     O_3   0.969902 0.762690 0.228795 -0.594159
O21   O     O_2   0.647210 0.236530 0.463040 -0.464629
O22   O     O_3   0.916960 0.371010 0.461280 -0.496817
O23   O     O_3   0.430470 0.302400 0.600330 -0.481909
O24   O     O_3   0.788801 0.223928 0.339204 -0.643979
O25   O     O_3   0.388290 0.554800 0.590630 -0.478047
O26   O     O_3   0.856660 0.356630 0.638500 -0.475613
P1    P     P_3+3 0.990420 0.746550 0.559720 0.969961
P2    P     P_3+3 0.330880 0.415450 0.326700 0.985202
P3    P     P_3+3 0.916528 0.635218 0.259731 0.958127
P4    P     P_3+3 0.819870 0.253440 0.440220 0.968953
P5    P     P_3+3 0.885533 0.357777 0.740109 0.959678
P6    P     P_3+3 0.422136 0.837691 0.397942 0.956664
P7    P     P_3+3 0.474086 0.587709 0.687229 0.946993
P8    P     P_3+3 0.387930 0.163272 0.603295 0.950071

loop_
_geom_bond_atom_site_label_1
_geom_bond_atom_site_label_2
_ccdc_geom_bond_type
C30   H1    S    
C17   C18   A    
C39   H17   S    
C2    C6    A    
O4    P1    S    
Ba1   O1    S    
Ba1   O10   S    
C23   H7    S    
C23   O7    S    
O7    P7    S    
Ba2   O25   S    
C12   O14   S    
C10   C11   A    
C24   C25   A    
C36   H42   S    
C26   C27   T    
C33   C35   S    
C32   H52   S    
C31   H34   S    
C12   H5    S    
Ba2   O4    S    
C13   C14   A    
O17   P3    D    
Ba1   Ba2   S    
O5    P2    S    
C7    C11   A    
C23   H6    S    
C37   H49   S    
C5    P6    S    
C34   H9    S    
C1    O19   S    
C15   C17   A    
C38   O3    S    
C1    H11   S    
C22   P5    S    
C13   H35   S    
C28   O24   S    
C40   C41   S    
C14   C15   A    
O6    P7    D    
O13   P1    S    
C24   H32   S    
C31   O13   S    
C35   H3    S    
C40   O9    S    
Ba1   O5    S    
O10   P6    S    
C34   H8    S    
O21   P4    D    
C4    H24   S    
C41   H25   S    
C38   H15   S    
O24   P4    S    
Ba1   O15   S    
C39   H18   S    
C2    C5    A    
C16   H39   S    
C4    C16   S    
C38   H14   S    
C32   H51   S    
O1    P1    D    
C3    C5    A    
Ba2   O22   S    
O2    P5    D    
C6    C7    A    
O15   P2    D    
C11   H27   S    
C37   O19   S    
C18   H31   S    
C36   H44   S    
C28   H41   S    
Ba1   O22   S    
C21   C29   A    
O8    P8    D    
Ba1   O25   S    
C37   H50   S    
C3    H26   S    
C36   O18   S    
C16   H13   S    
C4    H36   S    
Ba2   O6    S    
C41   H21   S    
C15   H33   S    
C31   C32   S    
C21   P7    S    
C9    C42   A    
Ba1   P2    S    
C35   H4    S    
C33   O12   S    
C2    H29   S    
C1    C12   S    
O12   P2    S    
C30   H23   S    
C38   C39   S    
C20   C25   A    
O3    P5    S    
C19   P3    S    
Ba1   O16   S    
C20   H30   S    
O23   P8    S    
C17   C27   S    
C40   H20   S    
C37   H48   S    
O11   P6    D    
C7    C8    A    
Ba2   O23   S    
C10   P8    S    
O25   P7    S    
C22   C24   A    
C39   H16   S    
Ba1   P1    S    
O9    P8    S    
Ba2   O21   S    
O22   P4    S    
Ba2   O26   S    
C29   H37   S    
C36   H43   S    
C9    P4    S    
C32   H45   S    
C3    C8    A    
C10   C42   A    
C31   H46   S    
C28   C30   S    
O16   P3    S    
C1    H54   S    
Ba2   O5    S    
C41   H22   S    
C12   O18   S    
Ba1   O4    S    
C16   H38   S    
C30   H12   S    
O26   P5    S    
C42   H28   S    
C28   H40   S    
C22   C29   A    
C34   H10   S    
C8    C9    A    
C23   C34   S    
C6    P1    S    
C13   C19   A    
C18   C19   A    
O20   P3    S    
C25   C26   S    
C20   C21   A    
O14   P6    S    
C35   H2    S    
C33   H53   S    
C14   P2    S    
C40   H19   S    
C4    O20   S    
Ba2   P4    S    
C33   H47   S    
