data_mof_unit_54194.cif
_audit_creation_date              2012-12-11T14:41:07-0500
_audit_creation_method            fapswitch 2.2
_symmetry_space_group_name_H-M    P1
_symmetry_Int_Tables_number       1
_space_group_crystal_system       triclinic
_cell_length_a                    24.534486
_cell_length_b                    17.469052
_cell_length_c                    15.549488
_cell_angle_alpha                 90.565217
_cell_angle_beta                  129.027219
_cell_angle_gamma                 90.1721
_cell_volume                      5176.61828333

loop_
_atom_site_label
_atom_site_type_symbol
_atom_type_description
_atom_site_fract_x
_atom_site_fract_y
_atom_site_fract_z
_atom_type_partial_charge
C1    C     C_R   0.334490 0.389408 0.200212 -0.121374
C2    C     C_R   0.682953 0.617840 0.498386 -0.019439
C3    C     C_3   0.204351 0.361690 0.750619 -0.259914
C4    C     C_R   0.182574 0.880889 0.498401 -0.004281
C5    C     C_R   0.182953 0.117840 0.498386 -0.019439
C6    C     C_R   0.355273 0.319705 0.498630 -0.004497
C7    C     C_R   0.356253 0.680232 0.500823 -0.004128
C8    C     C_R   0.855273 0.819705 0.498630 -0.004497
C9    C     C_R   0.856253 0.180232 0.500823 -0.004129
C10   C     C_3   0.357106 0.207879 0.598875 -0.397424
C11   C     C_3   0.357274 0.792363 0.602530 -0.397259
C12   C     C_3   0.857106 0.707878 0.598875 -0.397421
C13   C     C_R   0.334180 0.604627 0.197475 -0.126584
C14   C     C_3   0.857274 0.292363 0.602530 -0.397258
C15   C     C_3   0.808948 0.652875 0.600811 -0.413424
C16   C     C_3   0.808634 0.346476 0.604019 -0.410125
C17   C     C_3   0.308948 0.152875 0.600812 -0.413423
C18   C     C_3   0.308634 0.846476 0.604019 -0.410125
C19   C     C_3   0.259541 0.305624 0.503128 -0.414615
C20   C     C_3   0.258730 0.693494 0.501439 -0.405016
C21   C     C_3   0.759541 0.805624 0.503129 -0.414617
C22   C     C_3   0.758730 0.193494 0.501439 -0.405016
C23   C     C_3   0.271136 0.210713 0.391267 -0.402068
C24   C     C_R   0.834490 0.889408 0.200212 -0.121374
C25   C     C_3   0.273391 0.788249 0.394738 -0.400598
C26   C     C_3   0.771136 0.710713 0.391267 -0.402068
C27   C     C_3   0.773391 0.288249 0.394738 -0.400600
C28   C     C_3   0.312059 0.261629 0.497860 0.405951
C29   C     C_3   0.312784 0.737945 0.499915 0.400426
C30   C     C_3   0.812059 0.761629 0.497860 0.405950
C31   C     C_3   0.812784 0.237945 0.499915 0.400426
C32   C     C_3   0.731318 0.666352 0.498135 0.407483
C33   C     C_3   0.731223 0.332529 0.498730 0.404679
C34   C     C_3   0.231318 0.166352 0.498135 0.407484
C35   C     C_R   0.834180 0.104627 0.197475 -0.126584
C36   C     C_3   0.231223 0.832529 0.498730 0.404678
C37   C     C_3   0.711095 0.749674 0.500703 -0.389889
C38   C     C_3   0.709389 0.248960 0.496985 -0.390199
C39   C     C_3   0.211095 0.249674 0.500702 -0.389891
C40   C     C_3   0.209389 0.748960 0.496985 -0.390197
C41   C     C_R   0.652196 0.364550 0.759932 -0.076767
C42   C     C_R   0.654927 0.634614 0.765953 -0.068887
C43   C     C_R   0.152196 0.864550 0.759932 -0.076767
C44   C     C_R   0.154928 0.134614 0.765954 -0.068886
C45   C     C_3   0.724527 0.652888 0.392758 -0.409010
C46   C     C_R   0.624284 0.327451 0.802583 0.196141
C47   C     C_3   0.726790 0.346025 0.395975 -0.410338
C48   C     C_3   0.224527 0.152888 0.392758 -0.409011
C49   C     C_3   0.226790 0.846025 0.395975 -0.410338
C50   C     C_2   0.652041 0.257817 0.866187 -0.449979
C51   C     C_2   0.655470 0.743582 0.874479 -0.411512
C52   C     C_2   0.152041 0.757818 0.866187 -0.449979
C53   C     C_2   0.155471 0.243580 0.874481 -0.411512
C54   C     C_2   0.720258 0.242454 0.925166 0.691915
C55   C     C_2   0.692706 0.795047 0.865937 0.687859
C56   C     C_2   0.220258 0.742454 0.925166 0.691915
C57   C     C_R   0.626018 0.674082 0.805774 0.199592
C58   C     C_2   0.192706 0.295047 0.865938 0.687859
C59   C     C_2   0.312852 0.652870 0.025997 -0.164580
C60   C     C_2   0.308516 0.339411 0.024204 -0.200538
C61   C     C_2   0.812852 0.152870 0.025997 -0.164581
C62   C     C_2   0.808516 0.839411 0.024205 -0.200538
C63   C     C_2   0.246099 0.668315 0.976254 -0.319195
C64   C     C_2   0.238791 0.346384 0.961821 -0.325153
C65   C     C_2   0.746099 0.168315 0.976254 -0.319196
C66   C     C_2   0.738791 0.846384 0.961821 -0.325152
C67   C     C_R   0.614285 0.395102 0.406861 -0.134686
C68   C     C_R   0.124284 0.827451 0.802583 0.196142
C69   C     C_R   0.614442 0.603484 0.407002 -0.136269
C70   C     C_R   0.114285 0.895102 0.406861 -0.134687
C71   C     C_R   0.114442 0.103484 0.407002 -0.136269
C72   C     C_R   0.405958 0.363049 0.591361 -0.135849
C73   C     C_R   0.406440 0.637384 0.592661 -0.130398
C74   C     C_R   0.905958 0.863049 0.591361 -0.135849
C75   C     C_R   0.906440 0.137385 0.592661 -0.130397
C76   C     C_R   0.689020 0.398331 0.590901 -0.163638
C77   C     C_R   0.689336 0.601985 0.591004 -0.111823
C78   C     C_R   0.189020 0.898331 0.590901 -0.163638
C79   C     C_R   0.126019 0.174082 0.805776 0.199593
C80   C     C_R   0.189336 0.101986 0.591004 -0.111823
C81   C     C_R   0.334672 0.359746 0.406419 -0.144823
C82   C     C_R   0.335746 0.639918 0.407759 -0.145581
C83   C     C_R   0.834672 0.859746 0.406419 -0.144823
C84   C     C_R   0.835746 0.139918 0.407759 -0.145580
C85   C     C_R   0.565107 0.366384 0.770609 -0.172066
C86   C     C_R   0.566469 0.633933 0.773078 -0.172107
C87   C     C_R   0.065107 0.866384 0.770609 -0.172066
C88   C     C_R   0.066470 0.133933 0.773079 -0.172108
C89   C     C_R   0.425457 0.387700 0.199855 -0.161621
C90   C     C_R   0.682574 0.380889 0.498401 -0.004281
C91   C     C_R   0.425893 0.606660 0.198869 -0.156478
C92   C     C_R   0.925457 0.887699 0.199855 -0.161621
C93   C     C_R   0.925893 0.106660 0.198869 -0.156478
C94   C     C_R   0.355140 0.367832 0.138774 0.156662
C95   C     C_R   0.355592 0.621933 0.136045 0.139009
C96   C     C_R   0.855140 0.867832 0.138775 0.156662
C97   C     C_R   0.855592 0.121933 0.136045 0.139009
C98   C     C_3   0.792095 0.340126 0.040975 -0.283365
C99   C     C_3   0.704356 0.861690 0.750622 -0.259920
C100  C     C_3   0.292095 0.840126 0.040975 -0.283364
H1    H     H_    0.281617 0.391350 0.172423 0.081329
H2    H     H_    0.824446 0.407071 0.608330 0.149258
H3    H     H_    0.248363 0.871116 0.029390 0.144350
H4    H     H_    0.330730 0.883626 0.057215 0.168106
H5    H     H_    0.258821 0.384076 0.812236 0.151624
H6    H     H_    0.165904 0.403201 0.739081 0.133936
H7    H     H_    0.193813 0.356017 0.670239 0.158524
H8    H     H_    0.323629 0.092530 0.601492 0.149183
H9    H     H_    0.324446 0.907071 0.608330 0.149258
H10   H     H_    0.317166 0.163787 0.678799 0.153497
H11   H     H_    0.315242 0.834946 0.680247 0.154845
H12   H     H_    0.817167 0.663786 0.678799 0.153497
H13   H     H_    0.815242 0.334946 0.680247 0.154845
H14   H     H_    0.288053 0.341180 0.580315 0.154413
H15   H     H_    0.286062 0.659031 0.578009 0.155094
H16   H     H_    0.788053 0.841180 0.580315 0.154413
H17   H     H_    0.281148 0.601789 0.169108 0.082101
H18   H     H_    0.786062 0.159031 0.578009 0.155093
H19   H     H_    0.714823 0.759806 0.575090 0.170763
H20   H     H_    0.710637 0.238806 0.568841 0.158309
H21   H     H_    0.214823 0.259806 0.575089 0.170763
H22   H     H_    0.210637 0.738806 0.568841 0.158308
H23   H     H_    0.736602 0.745796 0.315902 0.146786
H24   H     H_    0.738910 0.252619 0.318220 0.146067
H25   H     H_    0.236602 0.245796 0.315902 0.146786
H26   H     H_    0.238910 0.752618 0.318220 0.146067
H27   H     H_    0.308316 0.180005 0.385229 0.155005
H28   H     H_    0.781617 0.891350 0.172423 0.081329
H29   H     H_    0.311572 0.819034 0.390894 0.153299
H30   H     H_    0.808316 0.680005 0.385229 0.155005
H31   H     H_    0.811572 0.319034 0.390894 0.153300
H32   H     H_    0.740083 0.593425 0.391190 0.151440
H33   H     H_    0.743950 0.405515 0.397924 0.151607
H34   H     H_    0.240083 0.093425 0.391190 0.151440
H35   H     H_    0.243950 0.905515 0.397924 0.151608
H36   H     H_    0.669748 0.660659 0.316082 0.145993
H37   H     H_    0.672246 0.338363 0.317806 0.144691
H38   H     H_    0.169748 0.160659 0.316083 0.145993
H39   H     H_    0.781148 0.101789 0.169108 0.082101
H40   H     H_    0.172246 0.838363 0.317806 0.144691
H41   H     H_    0.227568 0.345064 0.431881 0.155640
H42   H     H_    0.227477 0.652972 0.429509 0.153797
H43   H     H_    0.727568 0.845064 0.431881 0.155641
H44   H     H_    0.727477 0.152972 0.429508 0.153797
H45   H     H_    0.696649 0.348723 0.765280 0.146198
H46   H     H_    0.703832 0.646508 0.781984 0.130091
H47   H     H_    0.196649 0.848723 0.765280 0.146198
H48   H     H_    0.203832 0.146508 0.781985 0.130089
H49   H     H_    0.655861 0.760641 0.426477 0.157296
H50   H     H_    0.393718 0.174727 0.593870 0.155331
H51   H     H_    0.654697 0.237413 0.420337 0.155494
H52   H     H_    0.155861 0.260641 0.426476 0.157296
H53   H     H_    0.154697 0.737413 0.420337 0.155493
H54   H     H_    0.216185 0.636359 0.993864 0.114463
H55   H     H_    0.215321 0.377925 0.991348 0.118840
H56   H     H_    0.716185 0.136359 0.993864 0.114463
H57   H     H_    0.715321 0.877924 0.991348 0.118839
H58   H     H_    0.340525 0.681465 0.001490 0.166809
H59   H     H_    0.331129 0.306666 0.993953 0.144828
H60   H     H_    0.840525 0.181465 0.001490 0.166809
H61   H     H_    0.394730 0.826183 0.599958 0.157465
H62   H     H_    0.831129 0.806666 0.993953 0.144828
H63   H     H_    0.616217 0.217381 0.860861 0.118476
H64   H     H_    0.650369 0.750089 0.938771 0.110248
H65   H     H_    0.116216 0.717380 0.860860 0.118476
H66   H     H_    0.150371 0.250088 0.938775 0.110248
H67   H     H_    0.591213 0.391904 0.320549 0.082657
H68   H     H_    0.590985 0.605514 0.320574 0.084150
H69   H     H_    0.091213 0.891904 0.320549 0.082658
H70   H     H_    0.090985 0.105514 0.320574 0.084150
H71   H     H_    0.424586 0.356006 0.674533 0.081146
H72   H     H_    0.893719 0.674727 0.593870 0.155330
H73   H     H_    0.425350 0.645429 0.676107 0.080853
H74   H     H_    0.924586 0.856006 0.674533 0.081146
H75   H     H_    0.925350 0.145429 0.676107 0.080853
H76   H     H_    0.736213 0.399899 0.676186 0.094640
H77   H     H_    0.736557 0.601991 0.676268 0.081943
H78   H     H_    0.236213 0.899899 0.676186 0.094640
H79   H     H_    0.236557 0.101991 0.676268 0.081943
H80   H     H_    0.291860 0.347277 0.320552 0.089827
H81   H     H_    0.293776 0.651872 0.321901 0.089794
H82   H     H_    0.791860 0.847277 0.320552 0.089827
H83   H     H_    0.894730 0.326183 0.599958 0.157465
H84   H     H_    0.793776 0.151872 0.321901 0.089794
H85   H     H_    0.535058 0.354556 0.797802 0.096642
H86   H     H_    0.536395 0.645841 0.800288 0.095764
H87   H     H_    0.035058 0.854556 0.797802 0.096643
H88   H     H_    0.036396 0.145841 0.800290 0.095764
H89   H     H_    0.455132 0.388051 0.170046 0.091206
H90   H     H_    0.456703 0.606106 0.171055 0.089486
H91   H     H_    0.955133 0.888051 0.170046 0.091206
H92   H     H_    0.956703 0.106106 0.171055 0.089486
H93   H     H_    0.389401 0.240569 0.678378 0.144708
H94   H     H_    0.823630 0.592529 0.601491 0.149184
H95   H     H_    0.388616 0.760103 0.681012 0.145332
H96   H     H_    0.889401 0.740569 0.678378 0.144707
H97   H     H_    0.888616 0.260103 0.681012 0.145332
H98   H     H_    0.819096 0.302976 0.114873 0.147977
H99   H     H_    0.748363 0.371116 0.029390 0.144350
H100  H     H_    0.830730 0.383626 0.057214 0.168106
H101  H     H_    0.758825 0.884076 0.812245 0.151622
H102  H     H_    0.665907 0.903201 0.739077 0.133940
H103  H     H_    0.693824 0.856016 0.670247 0.158524
H104  H     H_    0.319096 0.802976 0.114873 0.147977
N1    N     N_R   0.389430 0.421450 0.294590 -0.043651
N2    N     N_R   0.581780 0.577610 0.443390 -0.031486
N3    N     N_R   0.081780 0.922390 0.443390 -0.031506
N4    N     N_R   0.081780 0.077610 0.443390 -0.031486
N5    N     N_R   0.419850 0.423100 0.556610 -0.034578
N6    N     N_R   0.419850 0.576900 0.556610 -0.034501
N7    N     N_R   0.919850 0.923100 0.556610 -0.034578
N8    N     N_R   0.919850 0.076900 0.556610 -0.034502
N9    N     N_R   0.627410 0.423100 0.556610 -0.036337
N10   N     N_R   0.627410 0.576900 0.556610 -0.033155
N11   N     N_R   0.127410 0.923100 0.556610 -0.036337
N12   N     N_R   0.389430 0.578550 0.294590 -0.042145
N13   N     N_R   0.127410 0.076900 0.556610 -0.033154
N14   N     N_R   0.374220 0.422390 0.443390 -0.037266
N15   N     N_R   0.374220 0.577610 0.443390 -0.037026
N16   N     N_R   0.874220 0.922390 0.443390 -0.037266
N17   N     N_R   0.874220 0.077610 0.443390 -0.037026
N18   N     N_R   0.555000 0.424040 0.705410 -0.042923
N19   N     N_R   0.555000 0.575960 0.705410 -0.042085
N20   N     N_R   0.055000 0.924040 0.705410 -0.042923
N21   N     N_R   0.055000 0.075960 0.705410 -0.042085
N22   N     N_R   0.446630 0.421450 0.294590 -0.040308
N23   N     N_R   0.889430 0.921450 0.294590 -0.043650
N24   N     N_R   0.446630 0.578550 0.294590 -0.038548
N25   N     N_R   0.946630 0.921450 0.294590 -0.040308
N26   N     N_R   0.946630 0.078550 0.294590 -0.038548
N27   N     N_R   0.889430 0.078550 0.294590 -0.042145
N28   N     N_R   0.612200 0.424040 0.705410 -0.061612
N29   N     N_R   0.612200 0.575960 0.705410 -0.060164
N30   N     N_R   0.112200 0.924040 0.705410 -0.061612
N31   N     N_R   0.112200 0.075960 0.705410 -0.060164
N32   N     N_R   0.581780 0.422390 0.443390 -0.031506
Ni1   Ni    Ni4+2 0.382890 0.500000 0.370170 0.203244
Ni2   Ni    Ni4+2 0.882890 0.000000 0.370170 0.203244
Ni3   Ni    Ni4+2 0.618740 0.500000 0.629830 0.206835
Ni4   Ni    Ni4+2 0.118740 1.000000 0.629830 0.206835
Ni5   Ni    Ni4+2 0.514090 0.500000 0.370170 0.208425
Ni6   Ni    Ni4+2 0.014090 0.000000 0.370170 0.208425
Ni7   Ni    Ni4+2 0.487550 0.500000 0.629830 0.206545
Ni8   Ni    Ni4+2 0.987550 1.000000 0.629830 0.206545
O1    O     O_3   0.768129 0.297663 0.945055 -0.635428
O2    O     O_3   0.696996 0.788837 0.780917 -0.627868
O3    O     O_3   0.268129 0.797663 0.945055 -0.635428
O4    O     O_3   0.196994 0.288837 0.780916 -0.627869

loop_
_geom_bond_atom_site_label_1
_geom_bond_atom_site_label_2
_ccdc_geom_bond_type
C93   N26   A    
C4    C36   S    
C11   C18   S    
C7    C29   S    
C53   C58   D    
C62   C96   S    
C91   N24   A    
C8    C83   A    
C27   H31   S    
N31   Ni4   S    
C18   H9    S    
C100  H4    S    
C89   N22   A    
C25   H29   S    
C17   H10   S    
N5    Ni7   S    
C4    C70   A    
C14   H83   S    
C15   C32   S    
C7    C73   A    
C54   C65   S    
C3    H5    S    
N21   Ni8   S    
C6    C72   A    
N7    N16   A    
C64   H55   S    
C69   N2    A    
C50   C54   D    
C98   H99   S    
C13   C95   A    
N27   Ni2   S    
N12   Ni1   S    
C13   N12   A    
C48   H34   S    
C60   C94   S    
C53   C79   S    
C70   H69   S    
N4    Ni6   S    
N6    Ni7   S    
C74   H74   S    
C65   H56   S    
C84   N17   A    
C24   C96   A    
C20   C40   S    
C59   H58   S    
C10   C17   S    
C11   H61   S    
C22   C38   S    
C92   C96   A    
C57   C86   A    
C24   H28   S    
C2    C32   S    
C32   C45   S    
C54   O1    S    
C89   C94   A    
N20   N30   A    
N19   N29   A    
C26   C45   S    
C35   H39   S    
C15   H94   S    
C76   N9    A    
C6    C28   S    
N24   Ni5   S    
C72   N5    A    
N19   Ni7   S    
C1    C94   A    
C63   H54   S    
C55   O2    S    
N28   Ni3   S    
C41   C46   A    
C60   H59   S    
C51   C57   S    
C84   H84   S    
C24   N23   A    
C1    N1    A    
C85   N18   A    
C14   C31   S    
C35   N27   A    
C52   C68   S    
C92   H91   S    
C23   H25   S    
C46   C85   A    
C12   C30   S    
N2    N10   A    
C49   H35   S    
N18   N28   A    
C19   H41   S    
C6    C81   A    
C47   H33   S    
C25   C29   S    
C12   H96   S    
N16   Ni2   S    
N30   Ni4   S    
C59   C95   S    
C21   H16   S    
N7    Ni8   S    
C42   C57   A    
C8    C74   A    
C79   C88   A    
C14   H97   S    
C77   N10   A    
C25   C49   S    
N8    N17   A    
C3    H6    S    
C58   C64   S    
C75   N8    A    
C56   O3    S    
C67   N32   A    
C56   C63   S    
C22   C31   S    
C62   C66   D    
C75   H75   S    
C34   C39   S    
N21   N31   A    
C72   H71   S    
C20   H42   S    
C73   N6    A    
C36   C40   S    
C18   H11   S    
C21   H43   S    
C98   O1    S    
C12   H72   S    
C10   C28   S    
C10   H93   S    
C80   N13   A    
C98   H98   S    
N20   Ni8   S    
N22   Ni5   S    
C87   H87   S    
C19   H14   S    
C3    H7    S    
C70   N3    A    
C32   C37   S    
N23   Ni2   S    
C27   C31   S    
C39   H52   S    
C100  H3    S    
C77   H77   S    
N6    N15   A    
C83   H82   S    
C5    C80   A    
N32   Ni5   S    
C25   H26   S    
C80   H79   S    
C4    C78   A    
N26   Ni6   S    
C52   H65   S    
C16   H13   S    
C93   C97   A    
N3    Ni6   S    
C88   N21   A    
C37   H19   S    
C41   N28   A    
C76   H76   S    
C27   H24   S    
C5    C34   S    
C47   H37   S    
N3    N11   A    
C71   H70   S    
C21   C37   S    
N1    N22   A    
N12   N24   A    
C23   C28   S    
C82   N15   A    
C99   O2    S    
N1    Ni1   S    
C19   C28   S    
N13   Ni4   S    
C26   H23   S    
C19   C39   S    
C45   H32   S    
C16   H2    S    
C71   N4    A    
N23   N25   A    
C26   C30   S    
C12   C15   S    
C99   H102  S    
C74   N7    A    
C33   C47   S    
C14   C16   S    
C40   H53   S    
C44   N31   A    
N2    Ni5   S    
C34   C48   S    
C86   N19   A    
N5    N14   A    
C22   H44   S    
C2    C69   A    
C1    H1    S    
C38   H51   S    
N14   Ni1   S    
C55   C66   S    
N9    N32   A    
C23   H27   S    
C93   H92   S    
C27   C47   S    
N4    N13   A    
C22   H18   S    
C91   H90   S    
C45   H36   S    
C23   C48   S    
C85   H85   S    
C99   H103  S    
C50   H63   S    
C78   H78   S    
C15   H12   S    
C44   C79   A    
C61   C97   S    
C67   H67   S    
C81   H80   S    
C37   H49   S    
N9    Ni3   S    
C43   N30   A    
C26   H30   S    
C78   N11   A    
C20   H15   S    
C13   H17   S    
N18   Ni7   S    
C86   H86   S    
C48   H38   S    
C40   H22   S    
C21   C30   S    
C46   C50   S    
C59   C63   D    
C33   C38   S    
C39   H21   S    
C73   H73   S    
C98   H100  S    
N17   Ni2   S    
C60   C64   D    
C11   H95   S    
C8    C30   S    
C87   N20   A    
N15   Ni1   S    
C58   O4    S    
N10   Ni3   S    
N29   Ni3   S    
C69   H68   S    
C38   H20   S    
C5    C71   A    
C2    C77   A    
C33   C90   S    
C10   H50   S    
C61   H60   S    
C83   N16   A    
C100  H104  S    
C62   H62   S    
C92   N25   A    
C81   N14   A    
C44   H48   S    
C51   C55   D    
C67   C90   A    
C51   H64   S    
N26   N27   A    
N25   Ni6   S    
C43   H47   S    
C9    C31   S    
C9    C84   A    
C91   C95   A    
C82   H81   S    
C61   C65   D    
C53   H66   S    
C88   H88   S    
C7    C82   A    
C41   H45   S    
C11   C29   S    
C20   C29   S    
N8    Ni8   S    
C16   C33   S    
C17   C34   S    
C49   H40   S    
C17   H8    S    
C100  O3    S    
C68   C87   A    
C89   H89   S    
N11   Ni4   S    
C9    C75   A    
C42   N29   A    
C3    O4    S    
C35   C97   A    
C18   C36   S    
C66   H57   S    
C99   H101  S    
C36   C49   S    
C52   C56   D    
C76   C90   A    
C43   C68   A    
C42   H46   S    
