data_mof_unit_34548.cif
_audit_creation_date              2012-12-11T16:12:51-0500
_audit_creation_method            fapswitch 2.2
_symmetry_space_group_name_H-M    P1
_symmetry_Int_Tables_number       1
_space_group_crystal_system       triclinic
_cell_length_a                    23.458093
_cell_length_b                    13.583335
_cell_length_c                    28.466492
_cell_angle_alpha                 90.004919
_cell_angle_beta                  90.510516
_cell_angle_gamma                 89.998047
_cell_volume                      9070.17830928

loop_
_atom_site_label
_atom_site_type_symbol
_atom_type_description
_atom_site_fract_x
_atom_site_fract_y
_atom_site_fract_z
_atom_type_partial_charge
C1    C     C_R   0.284693 0.005565 0.815999 0.550417
C2    C     C_R   0.715286 0.005433 0.183979 0.550010
C3    C     C_R   0.784688 0.505563 0.815986 0.550361
C4    C     C_R   0.215257 0.505400 0.183946 0.550116
C5    C     C_3   0.494036 0.827947 0.953958 0.045259
C6    C     C_3   0.504034 0.828677 0.046479 0.044074
C7    C     C_3   0.995989 0.327769 0.953505 0.043190
C8    C     C_3   0.005344 0.328110 0.046078 0.043858
C9    C     C_3   0.501534 0.718208 0.028376 0.493274
C10   C     C_3   0.499690 0.717958 0.972163 0.493376
C11   C     C_3   0.995763 0.218449 0.028426 0.495007
C12   C     C_3   0.994170 0.217617 0.972194 0.493302
C13   C     C_1   0.513834 0.832308 0.097541 0.062427
C14   C     C_1   0.484725 0.831244 0.902871 0.065925
C15   C     C_1   0.014924 0.331617 0.097177 0.060441
C16   C     C_1   0.986506 0.331468 0.902387 0.061429
C17   C     C_1   0.266334 0.634044 0.860907 0.008455
C18   C     C_1   0.732760 0.636885 0.138347 0.008402
C19   C     C_1   0.766690 0.134903 0.861108 0.008330
C20   C     C_1   0.233024 0.136192 0.138508 0.008509
C21   C     C_R   0.298687 0.546012 0.975834 -0.034014
C22   C     C_R   0.699552 0.550912 0.023061 -0.027446
C23   C     C_R   0.797630 0.042359 0.975665 -0.030999
C24   C     C_R   0.199124 0.052733 0.023007 -0.035042
C25   C     C_R   0.295967 0.536327 0.024685 0.251473
C26   C     C_R   0.702220 0.541058 0.974222 0.254232
C27   C     C_R   0.794767 0.031677 0.024438 0.249851
C28   C     C_R   0.201690 0.043552 0.974122 0.253010
C29   C     C_R   0.206448 0.630980 0.023629 0.243469
C30   C     C_R   0.789477 0.641704 0.974697 0.239461
C31   C     C_R   0.709660 0.137771 0.024466 0.245852
C32   C     C_R   0.291406 0.137556 0.975237 0.238585
C33   C     C_R   0.210534 0.638578 0.974885 -0.072174
C34   C     C_R   0.785287 0.650030 0.023412 -0.075804
C35   C     C_R   0.713873 0.146428 0.975789 -0.071196
C36   C     C_R   0.287385 0.145072 0.023976 -0.075302
C37   C     C_R   0.255976 0.595839 0.951045 -0.084525
C38   C     C_R   0.741304 0.603656 0.047580 -0.084056
C39   C     C_R   0.757036 0.098227 0.951436 -0.081596
C40   C     C_R   0.242092 0.101854 0.047859 -0.087408
C41   C     C_R   0.249289 0.578790 0.049066 0.018490
C42   C     C_R   0.748021 0.585660 0.949613 0.015639
C43   C     C_R   0.750223 0.079381 0.049330 0.020352
C44   C     C_R   0.248646 0.085164 0.949803 0.013769
C45   C     C_R   0.446201 0.824079 0.816527 0.538613
C46   C     C_R   0.553713 0.824140 0.183522 0.538590
C47   C     C_R   0.946338 0.324101 0.816457 0.539014
C48   C     C_R   0.053872 0.324079 0.183429 0.539215
C49   C     C_1   0.241782 0.560037 0.098486 -0.065319
C50   C     C_1   0.756618 0.564242 0.900563 -0.069099
C51   C     C_1   0.742335 0.060395 0.098662 -0.069606
C52   C     C_1   0.256943 0.064007 0.900697 -0.065531
C53   C     C_1   0.261161 0.611819 0.901486 -0.050114
C54   C     C_1   0.737074 0.617114 0.097393 -0.051982
C55   C     C_1   0.761880 0.113424 0.901814 -0.051086
C56   C     C_1   0.237596 0.115843 0.097625 -0.051726
C57   C     C_1   0.231980 0.539128 0.138617 -0.008355
C58   C     C_1   0.767259 0.541180 0.860825 -0.009346
C59   C     C_1   0.732211 0.039357 0.138740 -0.010703
C60   C     C_1   0.267368 0.041061 0.860898 -0.007587
C61   C     C_1   0.470256 0.833113 0.639024 -0.007347
C62   C     C_1   0.529266 0.833358 0.360783 -0.006579
C63   C     C_1   0.971697 0.333123 0.639585 -0.008191
C64   C     C_1   0.030632 0.333125 0.361294 -0.008082
C65   C     C_R   0.494560 0.744331 0.523947 0.252419
C66   C     C_R   0.497920 0.744815 0.474873 0.254722
C67   C     C_R   0.002621 0.244039 0.525597 0.255147
C68   C     C_R   0.006892 0.243904 0.476596 0.255351
C69   C     C_R   0.505346 0.924568 0.475737 0.258642
C70   C     C_R   0.497566 0.924526 0.524445 0.258900
C71   C     C_R   0.007614 0.424298 0.476556 0.255374
C72   C     C_R   0.999837 0.424372 0.525331 0.255973
C73   C     C_R   0.494077 0.834682 0.548838 -0.062912
C74   C     C_R   0.503795 0.835330 0.450646 -0.062124
C75   C     C_R   0.998746 0.334677 0.550103 -0.061025
C76   C     C_R   0.008847 0.334510 0.451885 -0.062159
C77   C     C_1   0.514912 0.836374 0.401108 -0.026961
C78   C     C_1   0.483961 0.835874 0.598524 -0.027891
C79   C     C_1   0.017814 0.335819 0.402011 -0.030001
C80   C     C_1   0.986889 0.335818 0.599479 -0.029013
C81   C     C_1   0.265635 0.632578 0.637677 0.018918
C82   C     C_1   0.734250 0.632299 0.362255 0.019138
C83   C     C_1   0.765784 0.132847 0.637624 0.018424
C84   C     C_1   0.234436 0.132448 0.362335 0.017834
C85   C     C_R   0.219504 0.658088 0.522241 0.299856
C86   C     C_R   0.783127 0.653200 0.477045 0.301984
C87   C     C_R   0.721817 0.161392 0.521887 0.297439
C88   C     C_R   0.279892 0.158564 0.477944 0.300626
C89   C     C_R   0.274558 0.673934 0.815079 0.545732
C90   C     C_R   0.725319 0.674311 0.184754 0.545489
C91   C     C_R   0.774599 0.174023 0.815107 0.545846
C92   C     C_R   0.225351 0.174234 0.184785 0.545608
C93   C     C_R   0.218406 0.655359 0.472964 0.198655
C94   C     C_R   0.785156 0.650200 0.526309 0.199381
C95   C     C_R   0.720592 0.157905 0.472618 0.196427
C96   C     C_R   0.280604 0.156242 0.527232 0.199469
C97   C     C_R   0.288769 0.522065 0.474825 0.308009
C98   C     C_R   0.709502 0.525779 0.525538 0.313170
C99   C     C_R   0.787460 0.019145 0.474966 0.304402
C100  C     C_R   0.211439 0.021118 0.525157 0.307633
C101  C     C_R   0.290516 0.525608 0.523985 0.228600
C102  C     C_R   0.707317 0.528789 0.476296 0.226129
C103  C     C_R   0.789759 0.023958 0.524104 0.225140
C104  C     C_R   0.209991 0.024374 0.475978 0.227080
C105  C     C_R   0.255803 0.594564 0.547540 -0.065448
C106  C     C_R   0.744251 0.593531 0.452277 -0.063729
C107  C     C_R   0.756603 0.095622 0.547389 -0.064002
C108  C     C_R   0.244184 0.094262 0.452513 -0.065807
C109  C     C_R   0.251958 0.584646 0.449488 -0.074693
C110  C     C_R   0.749133 0.583893 0.550255 -0.067524
C111  C     C_R   0.752238 0.084187 0.449454 -0.075049
C112  C     C_R   0.247518 0.084792 0.550617 -0.074665
C113  C     C_1   0.243525 0.566185 0.400403 -0.028180
C114  C     C_1   0.757038 0.565751 0.599447 -0.017634
C115  C     C_1   0.743626 0.065883 0.400396 -0.029921
C116  C     C_1   0.256082 0.066371 0.599696 -0.026235
C117  C     C_1   0.260580 0.609533 0.597236 -0.010986
C118  C     C_1   0.739176 0.608877 0.402640 -0.010183
C119  C     C_1   0.761003 0.110143 0.597120 -0.011706
C120  C     C_1   0.239503 0.109284 0.402780 -0.011924
C121  C     C_1   0.232943 0.543774 0.360578 0.004018
C122  C     C_1   0.767174 0.543548 0.639385 0.007077
C123  C     C_1   0.732974 0.043644 0.360548 0.003395
C124  C     C_1   0.266865 0.043929 0.639482 0.005052
C125  C     C_R   0.284377 0.007334 0.684059 0.542614
C126  C     C_R   0.715617 0.007336 0.315932 0.542604
C127  C     C_R   0.784391 0.507331 0.684085 0.542055
C128  C     C_R   0.215596 0.507315 0.315949 0.542459
C129  C     C_R   0.445891 0.825231 0.684506 0.541861
C130  C     C_R   0.554101 0.825265 0.315462 0.541368
C131  C     C_R   0.946043 0.325222 0.684606 0.541666
C132  C     C_R   0.054180 0.325248 0.315545 0.540939
C133  C     C_R   0.274215 0.673984 0.682991 0.546807
C134  C     C_R   0.725754 0.673966 0.316998 0.546980
C135  C     C_R   0.774212 0.173943 0.683012 0.546835
C136  C     C_R   0.225793 0.173984 0.317028 0.546684
C137  C     C_3   0.440304 0.875110 0.977625 0.036665
C138  C     C_3   0.556274 0.880453 0.022641 0.040427
C139  C     C_3   0.945626 0.385903 0.976812 0.041438
C140  C     C_3   0.060858 0.368880 0.022378 0.037609
C141  C     C_3   0.548362 0.887270 0.968136 0.127882
C142  C     C_3   0.447936 0.883144 0.032234 0.125275
C143  C     C_3   0.053971 0.376064 0.967706 0.125692
C144  C     C_3   0.953394 0.392944 0.031362 0.125545
C145  C     C_1   0.528275 0.831025 0.138089 0.010031
C146  C     C_1   0.470931 0.830540 0.862199 0.011949
C147  C     C_1   0.028906 0.330645 0.137835 0.010157
C148  C     C_1   0.972023 0.330692 0.861828 0.010259
Cr1   Cr    Cr6+3 0.250680 0.837130 0.748990 1.047236
Cr2   Cr    Cr6+3 0.749320 0.837130 0.251010 1.045886
Cr3   Cr    Cr6+3 0.750680 0.337130 0.748990 1.047889
Cr4   Cr    Cr6+3 0.249320 0.337130 0.251010 1.046750
Cr5   Cr    Cr6+3 0.378160 0.960100 0.750430 1.047676
Cr6   Cr    Cr6+3 0.621840 0.960100 0.249570 1.048833
Cr7   Cr    Cr6+3 0.878160 0.460100 0.750430 1.049113
Cr8   Cr    Cr6+3 0.121840 0.460100 0.249570 1.048062
Cr9   Cr    Cr6+3 0.376090 0.707720 0.749670 1.038599
Cr10  Cr    Cr6+3 0.623910 0.707720 0.250330 1.038496
Cr11  Cr    Cr6+3 0.876090 0.207720 0.749670 1.037147
Cr12  Cr    Cr6+3 0.123910 0.207720 0.250330 1.038770
H1    H     H_    0.452341 0.961667 0.043179 0.126369
H2    H     H_    0.541399 0.965117 0.957021 0.123892
H3    H     H_    0.963021 0.470124 0.042200 0.126115
H4    H     H_    0.052673 0.454577 0.956253 0.126155
H5    H     H_    0.178033 0.678858 0.955515 0.165278
H6    H     H_    0.816962 0.692658 0.042554 0.168011
H7    H     H_    0.683033 0.191214 0.956854 0.166496
H8    H     H_    0.320024 0.185047 0.043376 0.166785
H9    H     H_    0.594346 0.834151 0.030148 0.237309
H10   H     H_    0.403833 0.825101 0.970133 0.236382
H11   H     H_    0.095440 0.315400 0.030420 0.236306
H12   H     H_    0.905951 0.343817 0.969239 0.237460
H13   H     H_    0.334556 0.514735 0.957235 0.171133
H14   H     H_    0.664623 0.517119 0.041873 0.169759
H15   H     H_    0.831835 0.006794 0.956690 0.166231
H16   H     H_    0.163239 0.021432 0.041579 0.174283
O1    O     O_R   0.237900 0.735050 0.799950 -0.506568
O2    O     O_R   0.762100 0.735050 0.200050 -0.507577
O3    O     O_R   0.737900 0.235050 0.799950 -0.507082
O4    O     O_R   0.262100 0.235050 0.200050 -0.507012
O5    O     O_R   0.425240 0.902610 0.703070 -0.495303
O6    O     O_R   0.574760 0.902610 0.296930 -0.494762
O7    O     O_R   0.925240 0.402610 0.703070 -0.494538
O8    O     O_R   0.074760 0.402610 0.296930 -0.494078
O9    O     O_R   0.433420 0.739640 0.698910 -0.507377
O10   O     O_R   0.566580 0.739640 0.301090 -0.507289
O11   O     O_R   0.933420 0.239640 0.698910 -0.507765
O12   O     O_R   0.066580 0.239640 0.301090 -0.508746
O13   O     O_R   0.323550 0.666510 0.701520 -0.499025
O14   O     O_R   0.676450 0.666510 0.298480 -0.499109
O15   O     O_R   0.823550 0.166510 0.701520 -0.499416
O16   O     O_R   0.176450 0.166510 0.298480 -0.499436
O17   O     O_3   0.334980 0.834990 0.749700 -0.254033
O18   O     O_3   0.665020 0.834990 0.250300 -0.254343
O19   O     O_3   0.834980 0.334990 0.749700 -0.254317
O20   O     O_3   0.165020 0.334990 0.250300 -0.254373
O21   O     O_R   0.256160 0.936210 0.796950 -0.499183
O22   O     O_R   0.743840 0.936210 0.203050 -0.500299
O23   O     O_R   0.756160 0.436210 0.796950 -0.499587
O24   O     O_R   0.243840 0.436210 0.203050 -0.499745
O25   O     O_R   0.333710 0.029860 0.801630 -0.496398
O26   O     O_R   0.666290 0.029860 0.198370 -0.495599
O27   O     O_R   0.833710 0.529860 0.801630 -0.495486
O28   O     O_R   0.166290 0.529860 0.198370 -0.496503
O29   O     O_R   0.425340 0.901920 0.798280 -0.483251
O30   O     O_R   0.574660 0.901920 0.201720 -0.483135
O31   O     O_R   0.925340 0.401920 0.798280 -0.482349
O32   O     O_R   0.074660 0.401920 0.201720 -0.483776
O33   O     O_R   0.433530 0.738890 0.801610 -0.513439
O34   O     O_R   0.566470 0.738890 0.198390 -0.513664
O35   O     O_R   0.933530 0.238890 0.801610 -0.514948
O36   O     O_R   0.066470 0.238890 0.198390 -0.511586
O37   O     O_R   0.323650 0.665810 0.796720 -0.491867
O38   O     O_R   0.676350 0.665810 0.203280 -0.491224
O39   O     O_R   0.823650 0.165810 0.796720 -0.491719
O40   O     O_R   0.176350 0.165810 0.203280 -0.491239
O41   O     O_R   0.237790 0.735800 0.697250 -0.493349
O42   O     O_R   0.762210 0.735800 0.302750 -0.493028
O43   O     O_R   0.737790 0.235800 0.697250 -0.492887
O44   O     O_R   0.262210 0.235800 0.302750 -0.492946
O45   O     O_R   0.256050 0.936910 0.701750 -0.485487
O46   O     O_R   0.743950 0.936910 0.298250 -0.485646
O47   O     O_R   0.756050 0.436910 0.701750 -0.484400
O48   O     O_R   0.243950 0.436910 0.298250 -0.485405
O49   O     O_R   0.333600 0.030610 0.698930 -0.515688
O50   O     O_R   0.666400 0.030610 0.301070 -0.515067
O51   O     O_R   0.833600 0.530610 0.698930 -0.516156
O52   O     O_R   0.166400 0.530610 0.301070 -0.515126
O53   O     O_3   0.490541 0.653540 0.545739 -0.657846
H17   H     H_    0.494542 0.660714 0.580167 0.319385
O54   O     O_3   0.496579 0.654512 0.452300 -0.660159
H18   H     H_    0.492364 0.663735 0.418007 0.317764
O55   O     O_3   0.001262 0.153392 0.547827 -0.658687
H19   H     H_    0.003920 0.161707 0.582257 0.318513
O56   O     O_3   0.009861 0.152975 0.454650 -0.654468
H20   H     H_    0.011021 0.160695 0.420127 0.321436
O57   O     O_3   0.511976 0.013684 0.452752 -0.548997
C149  C     C_3   0.570713 0.033026 0.446621 -0.079314
H21   H     H_    0.582935 0.015071 0.409971 0.141594
H22   H     H_    0.599648 0.992958 0.471689 0.105673
H23   H     H_    0.578201 0.113156 0.451633 0.160271
O58   O     O_3   0.496205 0.013638 0.548057 -0.550320
C150  C     C_3   0.438961 0.041297 0.555948 -0.078499
H24   H     H_    0.427891 0.026455 0.593186 0.143400
H25   H     H_    0.406983 0.004375 0.532374 0.103961
H26   H     H_    0.434939 0.122043 0.550248 0.157708
O59   O     O_3   0.010781 0.513456 0.453047 -0.553349
C151  C     C_3   0.068731 0.537627 0.446020 -0.081431
H27   H     H_    0.084248 0.504426 0.412864 0.136048
H28   H     H_    0.097165 0.515123 0.475744 0.111741
H29   H     H_    0.072304 0.618806 0.442320 0.164751
O60   O     O_3   0.996542 0.513531 0.548804 -0.553136
C152  C     C_3   0.938596 0.538887 0.554788 -0.079844
H30   H     H_    0.922094 0.506141 0.587711 0.135089
H31   H     H_    0.910741 0.516700 0.524665 0.113539
H32   H     H_    0.935461 0.620160 0.558320 0.165425
O61   O     O_3   0.188818 0.728973 0.546349 -0.481979
C153  C     C_3   0.129919 0.707402 0.543924 -0.021184
H33   H     H_    0.120297 0.627240 0.540563 0.099896
H34   H     H_    0.109656 0.749216 0.514662 0.192568
H35   H     H_    0.109867 0.732210 0.577029 0.134431
O62   O     O_3   0.815226 0.721603 0.452535 -0.483782
C154  C     C_3   0.873636 0.695996 0.454514 -0.026304
H36   H     H_    0.881302 0.614867 0.457302 0.100192
H37   H     H_    0.895165 0.735537 0.483969 0.188957
H38   H     H_    0.894100 0.720559 0.421477 0.133021
O63   O     O_3   0.692762 0.234692 0.545764 -0.486536
C155  C     C_3   0.633337 0.218182 0.542589 -0.019052
H39   H     H_    0.621479 0.138969 0.538634 0.098665
H40   H     H_    0.614815 0.262182 0.513291 0.193059
H41   H     H_    0.613439 0.244268 0.575552 0.138827
O64   O     O_3   0.310927 0.229033 0.453883 -0.482860
C156  C     C_3   0.369803 0.207723 0.457215 -0.021042
H42   H     H_    0.379560 0.127881 0.462236 0.094963
H43   H     H_    0.389547 0.251672 0.485955 0.192194
H44   H     H_    0.390335 0.230136 0.423913 0.134602
O65   O     O_3   0.184253 0.722701 0.449512 -0.661330
H45   H     H_    0.192320 0.721395 0.415464 0.327756
O66   O     O_3   0.822209 0.713519 0.549328 -0.665203
H46   H     H_    0.815664 0.711555 0.583622 0.327973
O67   O     O_3   0.688249 0.227543 0.448954 -0.666356
H47   H     H_    0.695000 0.223307 0.414771 0.327396
O68   O     O_3   0.314063 0.224468 0.550795 -0.660502
H48   H     H_    0.305253 0.223820 0.584723 0.327410
O69   O     O_3   0.320350 0.451653 0.451467 -0.484591
C157  C     C_3   0.374595 0.491350 0.442076 -0.048581
H49   H     H_    0.399144 0.503916 0.475160 0.198770
H50   H     H_    0.371525 0.560828 0.421391 0.105259
H51   H     H_    0.398764 0.437525 0.420755 0.136530
O70   O     O_3   0.675125 0.461086 0.550126 -0.499809
C158  C     C_3   0.618787 0.497980 0.551130 -0.041990
H52   H     H_    0.593629 0.468216 0.521039 0.195497
H53   H     H_    0.616627 0.580343 0.551463 0.119038
H54   H     H_    0.598287 0.472543 0.583949 0.126790
O71   O     O_3   0.817068 0.945835 0.451854 -0.479326
C159  C     C_3   0.872212 0.981165 0.441995 -0.043397
H55   H     H_    0.897603 0.991063 0.474858 0.188400
H56   H     H_    0.870801 0.051303 0.421650 0.101528
H57   H     H_    0.894544 0.925853 0.420154 0.138360
O72   O     O_3   0.180144 0.950300 0.548478 -0.483341
C160  C     C_3   0.125444 0.988843 0.557232 -0.047649
H58   H     H_    0.101015 0.999166 0.523918 0.197077
H59   H     H_    0.127641 0.059327 0.577218 0.105260
H60   H     H_    0.101655 0.935317 0.578997 0.135802
O73   O     O_3   0.326696 0.460925 0.547130 -0.628617
H61   H     H_    0.321870 0.466658 0.581475 0.326842
O74   O     O_3   0.668864 0.467707 0.453496 -0.643370
H62   H     H_    0.673734 0.472296 0.419164 0.330101
O75   O     O_3   0.824792 0.957636 0.547430 -0.629275
H63   H     H_    0.824024 0.969853 0.581642 0.325762
O76   O     O_3   0.174741 0.958330 0.452727 -0.627974
H64   H     H_    0.178848 0.965525 0.418375 0.326222
O77   O     O_3   0.425470 0.966707 0.957538 -0.711175
H65   H     H_    0.453163 0.017019 0.968535 0.323322
O78   O     O_3   0.568245 0.973530 0.042472 -0.711452
H66   H     H_    0.538938 0.021056 0.031481 0.320955
O79   O     O_3   0.937401 0.479780 0.956562 -0.708171
H67   H     H_    0.968416 0.524031 0.967537 0.319902
O80   O     O_3   0.078731 0.459403 0.041958 -0.712562
H68   H     H_    0.052864 0.512184 0.030508 0.325027
O81   O     O_3   0.596390 0.849458 0.943876 -0.545085
C161  C     C_3   0.645599 0.907733 0.951463 -0.084826
H69   H     H_    0.671203 0.876507 0.981069 0.152765
H70   H     H_    0.636147 0.986938 0.958189 0.136726
H71   H     H_    0.672445 0.904076 0.919522 0.137452
O82   O     O_3   0.401074 0.841594 0.056654 -0.549818
C162  C     C_3   0.349491 0.891884 0.046916 -0.087613
H72   H     H_    0.325232 0.851265 0.019325 0.152643
H73   H     H_    0.355483 0.969963 0.036103 0.144539
H74   H     H_    0.322895 0.891838 0.078985 0.136281
O83   O     O_3   0.099342 0.328420 0.943847 -0.548499
C163  C     C_3   0.152719 0.373116 0.953404 -0.087801
H75   H     H_    0.175473 0.330524 0.981200 0.151497
H76   H     H_    0.149683 0.451964 0.963936 0.142160
H77   H     H_    0.179291 0.369455 0.921339 0.135719
O84   O     O_3   0.903817 0.361065 0.055445 -0.550444
C164  C     C_3   0.856808 0.424128 0.047053 -0.085285
H78   H     H_    0.830155 0.393914 0.017905 0.154004
H79   H     H_    0.869251 0.501586 0.038937 0.142007
H80   H     H_    0.829896 0.425645 0.079009 0.137706
O85   O     O_3   0.451563 0.663118 0.956826 -0.712769
H81   H     H_    0.458880 0.592955 0.964762 0.357655
O86   O     O_3   0.551244 0.667960 0.043745 -0.712571
H82   H     H_    0.546162 0.597234 0.035772 0.356998
O87   O     O_3   0.942644 0.172797 0.956898 -0.711781
H83   H     H_    0.945055 0.101732 0.965069 0.357508
O88   O     O_3   0.041918 0.159244 0.044198 -0.711100
H84   H     H_    0.032333 0.089692 0.036574 0.359461
O89   O     O_3   0.551456 0.673922 0.955747 -0.504656
C165  C     C_3   0.549804 0.638394 0.908862 -0.060342
H85   H     H_    0.580770 0.680864 0.887549 0.153802
H86   H     H_    0.507627 0.641587 0.890859 0.136108
H87   H     H_    0.563500 0.560114 0.908933 0.151134
O90   O     O_3   0.451295 0.668912 0.044727 -0.504712
C166  C     C_3   0.452612 0.639791 0.092562 -0.056372
H88   H     H_    0.428232 0.693446 0.113887 0.155271
H89   H     H_    0.495809 0.630406 0.108236 0.136075
H90   H     H_    0.430804 0.567617 0.095672 0.151173
O91   O     O_3   0.042468 0.162268 0.956194 -0.503434
C167  C     C_3   0.040107 0.132015 0.908535 -0.055504
H91   H     H_    0.067120 0.181449 0.887052 0.155614
H92   H     H_    0.996733 0.128497 0.892623 0.135817
H93   H     H_    0.058356 0.056805 0.905978 0.151723
O92   O     O_3   0.942620 0.179278 0.044823 -0.507116
C168  C     C_3   0.941771 0.152277 0.092939 -0.058127
H94   H     H_    0.922060 0.212195 0.113800 0.154656
H95   H     H_    0.983929 0.133014 0.108553 0.136646
H96   H     H_    0.914246 0.086327 0.096736 0.148600
O93   O     O_3   0.339277 0.483772 0.046465 -0.682340
H97   H     H_    0.334040 0.484073 0.080893 0.323786
O94   O     O_3   0.660006 0.485617 0.952657 -0.685807
H98   H     H_    0.663967 0.488870 0.918135 0.323103
O95   O     O_3   0.835734 0.972919 0.045627 -0.687420
H99   H     H_    0.830361 0.971589 0.080033 0.324113
O96   O     O_3   0.158128 0.991880 0.952218 -0.677956
H100  H     H_    0.162197 0.995647 0.917708 0.323939
O97   O     O_3   0.159557 0.674474 0.044332 -0.672951
H101  H     H_    0.163551 0.672701 0.078923 0.341492
O98   O     O_3   0.835376 0.687633 0.953714 -0.666643
H102  H     H_    0.831575 0.684284 0.919123 0.340888
O99   O     O_3   0.664762 0.186271 0.045620 -0.669939
H103  H     H_    0.667301 0.179550 0.080159 0.342217
O100  O     O_3   0.338338 0.180824 0.954491 -0.670827
H104  H     H_    0.334139 0.179301 0.919930 0.340524

loop_
_geom_bond_atom_site_label_1
_geom_bond_atom_site_label_2
_ccdc_geom_bond_type
C99   C103  A    
C129  O9    A    
C108  C120  S    
C62   C77   T    
C161  H70   S    
C158  H52   S    
C2    O26   A    
C76   C79   S    
C71   O59   S    
C128  O48   A    
C90   O2    A    
C164  H78   S    
C133  O13   A    
C160  H58   S    
C102  O74   S    
C20   C92   S    
C136  O16   A    
Cr9   O17   S    
Cr5   O49   S    
Cr7   O31   S    
C88   C108  A    
C161  H71   S    
C31   O99   S    
C22   C38   A    
C81   C117  T    
C36   H8    S    
C104  O76   S    
Cr11  O35   S    
Cr4   O24   S    
C83   C119  T    
Cr2   O18   S    
C91   O39   A    
C92   O4    A    
C48   O36   A    
O64   C156  S    
C143  O83   S    
O82   C162  S    
C93   O65   S    
Cr12  O20   S    
Cr8   O52   S    
C106  C118  S    
C132  O12   A    
C126  O50   A    
C41   C49   S    
C151  H28   S    
Cr5   O25   S    
C149  H22   S    
C115  C123  T    
O98   H102  S    
C17   C89   S    
C30   O98   S    
C121  C128  S    
C1    C60   S    
C25   C41   A    
C30   C34   A    
C2    C59   S    
C123  C126  S    
C98   C102  A    
C28   C44   A    
C82   C134  S    
O53   H17   S    
Cr3   O3    S    
C166  H88   S    
C48   O32   A    
C69   C74   A    
Cr1   O41   S    
C159  H55   S    
C155  H40   S    
C21   H13   S    
O99   H103  S    
C64   C79   T    
Cr3   O43   S    
C82   C118  T    
O100  H104  S    
C24   H16   S    
C90   O38   A    
C164  H80   S    
O72   C160  S    
C160  H60   S    
C154  H37   S    
C157  H51   S    
C98   O70   S    
O84   C164  S    
C144  O84   S    
C138  C141  S    
C29   O97   S    
O96   H100  S    
C5    C137  S    
C137  O77   S    
C8    C140  S    
C168  H94   S    
C157  H50   S    
C165  H85   S    
Cr8   O32   S    
C87   C107  A    
C12   O91   S    
O81   C161  S    
O91   C167  S    
C103  C107  A    
C85   O61   S    
C86   O62   S    
C150  H24   S    
O60   C152  S    
C139  O79   S    
C131  O11   A    
C137  C142  S    
Cr9   O33   S    
O89   C165  S    
C29   C33   A    
C62   C130  S    
C140  C143  S    
C100  C104  A    
C20   C56   T    
C156  H44   S    
C142  H1    S    
C7    C143  S    
Cr11  O19   S    
Cr7   O51   S    
C31   C43   A    
C32   C36   A    
C158  H53   S    
Cr9   O9    S    
Cr10  O14   S    
C152  H30   S    
Cr7   O7    S    
C101  O73   S    
C25   O93   S    
C66   C74   A    
C49   C57   T    
O92   C168  S    
O61   C153  S    
Cr11  O11   S    
C122  C127  S    
C52   C60   T    
Cr1   O17   S    
C85   C93   A    
C159  H57   S    
C95   O67   S    
C28   O96   S    
C87   C95   A    
C9    C10   S    
C110  C114  S    
C61   C129  S    
C37   C53   S    
C44   C52   S    
C141  H2    S    
O57   C149  S    
C138  H9    S    
C86   C106  A    
C72   C75   A    
Cr7   O27   S    
C167  H91   S    
C63   C80   T    
C32   C44   A    
C7    C12   S    
Cr11  O39   S    
Cr4   O20   S    
Cr7   O19   S    
C163  H75   S    
C168  H96   S    
C162  H73   S    
C103  O75   S    
C66   O54   S    
C45   O33   A    
C10   O85   S    
C68   O56   S    
C97   C109  A    
C128  O52   A    
C150  H26   S    
C99   C111  A    
C137  H10   S    
C42   C50   S    
Cr5   O29   S    
C166  H89   S    
C140  H11   S    
C63   C131  S    
C67   C75   A    
C112  C116  S    
C26   C42   A    
C46   O30   A    
C21   C25   A    
C29   C41   A    
C1    O21   A    
C24   C28   A    
C152  H32   S    
O63   C155  S    
C81   C133  S    
O62   C154  S    
C125  O45   A    
Cr10  O38   S    
C65   O53   S    
C153  H33   S    
C71   C72   A    
O71   C159  S    
C156  H43   S    
Cr3   O47   S    
C27   O95   S    
C12   O87   S    
C4    O24   A    
C113  C121  T    
O90   C166  S    
O68   H48   S    
C167  H93   S    
C87   O63   S    
C88   C96   A    
C98   C110  A    
C3    O27   A    
C163  H77   S    
O76   H64   S    
C1    O25   A    
C138  O78   S    
Cr8   O8    S    
C154  H36   S    
C149  H23   S    
Cr10  O18   S    
Cr6   O50   S    
Cr8   O20   S    
C99   O71   S    
C69   C70   A    
C71   C76   A    
C23   H15   S    
O94   H98   S    
Cr12  O40   S    
C48   C147  S    
O70   C158  S    
Cr3   O19   S    
Cr6   O26   S    
C26   O94   S    
C131  O7    A    
C39   C55   S    
C64   C132  S    
C40   C56   S    
O56   H20   S    
C13   C145  T    
C6    C142  S    
C159  H56   S    
C161  H69   S    
O78   H66   S    
C141  O81   S    
C127  O51   A    
Cr2   O46   S    
C105  C117  S    
C6    C9    S    
C125  O49   A    
Cr10  O10   S    
C107  C119  S    
C164  H79   S    
C160  H59   S    
C33   H5    S    
C96   O68   S    
O74   H62   S    
C50   C58   T    
Cr11  O15   S    
Cr12  O16   S    
O88   H84   S    
C165  H87   S    
C134  O42   A    
C94   C110  A    
C33   C37   A    
C67   C68   A    
C18   C90   S    
C35   C39   A    
O83   C163  S    
O69   C157  S    
C11   O88   S    
C38   C54   S    
C84   C120  T    
C70   C73   A    
C126  O46   A    
O58   C150  S    
C139  H12   S    
C165  H86   S    
C142  O82   S    
C135  O15   A    
C5    C14   S    
C32   O100  S    
C7    C16   S    
Cr5   O5    S    
C100  C112  A    
C8    C15   S    
Cr4   O48   S    
C144  H3    S    
C31   C35   A    
C68   C76   A    
C17   C53   T    
C143  H4    S    
C104  C108  A    
C151  H27   S    
C89   O37   A    
C19   C55   T    
C140  O80   S    
C149  H21   S    
C84   C136  S    
C45   O29   A    
C116  C124  T    
C97   O69   S    
C136  O44   A    
O66   H46   S    
C162  H72   S    
C46   O34   A    
C132  O8    A    
C15   C147  T    
C43   C51   S    
O77   H65   S    
C92   O40   A    
C19   C91   S    
O80   H68   S    
C3    C58   S    
C27   C43   A    
C21   C37   A    
C155  H39   S    
O73   H61   S    
C22   C26   A    
C30   C42   A    
C34   H6    S    
Cr2   O22   S    
Cr10  O34   S    
C154  H38   S    
O86   H82   S    
Cr4   O4    S    
C167  H92   S    
O75   H63   S    
C96   C112  A    
C9    O90   S    
C163  H76   S    
C168  H95   S    
C157  H49   S    
C4    O28   A    
C46   C145  S    
Cr4   O44   S    
C65   C73   A    
C47   O35   A    
C86   C94   A    
C94   O66   S    
C88   O64   S    
C150  H25   S    
C91   O3    A    
C4    C57   S    
C35   H7    S    
C73   C78   S    
C89   O1    A    
C100  O72   S    
C75   C80   S    
C83   C135  S    
C151  H29   S    
C127  O47   A    
Cr2   O2    S    
C9    O86   S    
Cr1   O45   S    
C85   C105  A    
C22   H14   S    
C101  C105  A    
Cr12  O36   S    
C45   C146  S    
Cr3   O23   S    
C36   C40   A    
C158  H54   S    
C130  O6    A    
C11   O92   S    
C152  H31   S    
C34   C38   A    
O67   H47   S    
C74   C77   S    
C133  O41   A    
Cr6   O18   S    
C6    C138  S    
C153  H34   S    
C139  C144  S    
C3    O23   A    
C155  H41   S    
C61   C78   T    
C135  O43   A    
Cr1   O1    S    
C156  H42   S    
Cr2   O42   S    
Cr5   O17   S    
C8    C144  S    
C72   O60   S    
O97   H101  S    
Cr6   O30   S    
C23   C27   A    
C153  H35   S    
C51   C59   T    
Cr12  O12   S    
Cr8   O28   S    
O93   H97   S    
O55   H19   S    
C129  O5    A    
C47   C148  S    
C67   O55   S    
C2    O22   A    
C5    C141  S    
C162  H74   S    
O59   C151  S    
C130  O10   A    
C109  C113  S    
C14   C146  T    
Cr9   O37   S    
C47   O31   A    
C16   C148  T    
C134  O14   A    
C5    C10   S    
C95   C111  A    
O95   H99   S    
C70   O58   S    
C6    C13   S    
C7    C139  S    
C8    C11   S    
C23   C39   A    
Cr6   O6    S    
C24   C40   A    
C102  C106  A    
O79   H67   S    
Cr9   O13   S    
C18   C54   T    
C114  C122  T    
C166  H90   S    
C65   C66   A    
C93   C109  A    
O54   H18   S    
O85   H81   S    
C111  C115  S    
C10   O89   S    
O87   H83   S    
O65   H45   S    
C69   O57   S    
C97   C101  A    
C11   C12   S    
Cr1   O21   S    
C124  C125  S    
