data_mof_unit_56664.cif
_audit_creation_date              2013-03-05T16:50:10-0500
_audit_creation_method            fapswitch 2.2
_symmetry_space_group_name_H-M    P1
_symmetry_Int_Tables_number       1
_space_group_crystal_system       triclinic
_cell_length_a                    27.808517
_cell_length_b                    10.830119
_cell_length_c                    26.459867
_cell_angle_alpha                 90.379955
_cell_angle_beta                  89.711019
_cell_angle_gamma                 90.050461
_cell_volume                      7968.62675522

loop_
_atom_site_label
_atom_site_type_symbol
_atom_site_description
_atom_site_fract_x
_atom_site_fract_y
_atom_site_fract_z
_atom_type_partial_charge
O1    O     O_R   0.500000 0.319660 0.542350 -0.587980
O2    O     O_R   0.500000 0.680340 0.457650 -0.585888
O3    O     O_R   0.500000 0.319630 0.457650 -0.572438
O4    O     O_R   0.500000 0.680370 0.542350 -0.573718
C1    C     C_R   0.498987 0.261997 0.499770 0.812433
C2    C     C_R   0.501006 0.738005 0.500262 0.807301
O5    O     O_R   0.430260 0.500030 0.542340 -0.584342
O6    O     O_R   0.569740 0.499970 0.457660 -0.584608
O7    O     O_R   0.430270 0.500010 0.457650 -0.592383
O8    O     O_R   0.569730 0.499990 0.542350 -0.591128
C3    C     C_R   0.407335 0.500445 0.500118 0.809195
C4    C     C_R   0.592608 0.499867 0.499863 0.804975
Cu1   Cu    Cu3+1 0.500000 0.500020 0.550150 0.961187
Cu2   Cu    Cu3+1 0.500000 0.499980 0.449850 0.962393
O9    O     O_2   0.422312 0.419142 0.785824 -0.532080
O10   O     O_2   0.576302 0.593982 0.214147 -0.534083
C5    C     C_R   0.421220 0.403930 0.055600 -0.199315
C6    C     C_R   0.581373 0.586152 0.944285 -0.199318
H1    H     H_    0.443074 0.629541 0.630728 0.141781
H2    H     H_    0.560976 0.383188 0.369364 0.147364
C7    C     C_R   0.177965 0.393502 0.508644 0.551381
C8    C     C_R   0.821124 0.616154 0.501150 0.556292
O11   O     O_2   0.203385 0.287664 0.509750 -0.527440
O12   O     O_2   0.794957 0.719642 0.508109 -0.501904
N1    N     N_R   0.202038 0.502581 0.502555 -0.467625
N2    N     N_R   0.797710 0.505284 0.498173 -0.470188
C9    C     C_R   0.178189 0.611752 0.497470 0.546011
C10   C     C_R   0.822185 0.396437 0.495037 0.544730
C11   C     C_R   0.278602 0.525674 0.456696 -0.118983
C12   C     C_R   0.721193 0.458117 0.540732 -0.104397
C13   C     C_R   0.328775 0.525015 0.456033 -0.216744
C14   C     C_R   0.671044 0.456736 0.541161 -0.224089
C15   C     C_R   0.329159 0.479092 0.545683 -0.219181
C16   C     C_R   0.670534 0.544008 0.456955 -0.211058
C17   C     C_R   0.279056 0.479080 0.546173 -0.094558
C18   C     C_R   0.720653 0.545984 0.456700 -0.092135
C19   C     C_R   0.253618 0.502432 0.501749 0.345175
C20   C     C_R   0.746135 0.503181 0.498582 0.350153
C21   C     C_R   0.101881 0.503471 0.504265 -0.051029
C22   C     C_R   0.897870 0.508664 0.497808 -0.051666
C23   C     C_R   0.127093 0.391480 0.511866 -0.085322
C24   C     C_R   0.872041 0.621475 0.498680 -0.090917
C25   C     C_R   0.100463 0.282233 0.521221 -0.004379
C26   C     C_R   0.898111 0.734085 0.498957 0.002426
C27   C     C_R   0.127853 0.614147 0.497618 -0.029400
C28   C     C_R   0.872498 0.395809 0.495674 -0.023155
C29   C     C_R   0.354461 0.501608 0.500566 -0.048994
C30   C     C_R   0.645377 0.500221 0.499367 -0.044499
H3    H     H_    0.348049 0.460574 0.580511 0.172028
H4    H     H_    0.651467 0.577997 0.424281 0.168315
H5    H     H_    0.259906 0.461261 0.581108 0.156089
H6    H     H_    0.739765 0.580530 0.423953 0.152944
C31   C     C_R   0.974082 0.393696 0.500939 0.048566
C32   C     C_R   0.025924 0.619239 0.497858 0.047160
C33   C     C_R   0.974719 0.620809 0.499304 0.029018
C34   C     C_R   0.024846 0.393227 0.506560 0.026603
C35   C     C_R   0.949030 0.507883 0.499269 0.075094
C36   C     C_R   0.050737 0.505301 0.503016 0.074935
C37   C     C_R   0.947447 0.283109 0.496219 -0.189324
C38   C     C_R   0.053396 0.727826 0.490880 -0.186627
C39   C     C_R   0.897692 0.284380 0.493783 -0.121288
C40   C     C_R   0.103236 0.725019 0.490804 -0.119896
H7    H     H_    0.389715 0.364014 0.038619 0.141557
H8    H     H_    0.614152 0.618651 0.961220 0.141543
H9    H     H_    0.442407 0.633472 0.724239 0.162714
H10   H     H_    0.562247 0.380321 0.275923 0.175315
O13   O     O_2   0.797761 0.288944 0.491512 -0.527313
O14   O     O_2   0.203239 0.717782 0.492227 -0.525223
C41   C     C_R   0.050384 0.284175 0.517375 -0.248880
C42   C     C_R   0.948316 0.732019 0.500457 -0.246866
H11   H     H_    0.652339 0.420859 0.573915 0.153373
H12   H     H_    0.347403 0.542658 0.420765 0.154173
H13   H     H_    0.740719 0.424597 0.573167 0.143354
H14   H     H_    0.259098 0.543354 0.422184 0.142873
H15   H     H_    0.878986 0.196882 0.490633 0.206769
H16   H     H_    0.122483 0.810825 0.484989 0.220988
H17   H     H_    0.964167 0.193609 0.492937 0.156307
H18   H     H_    0.037656 0.816776 0.483801 0.158495
H19   H     H_    0.031762 0.199538 0.526237 0.159232
H20   H     H_    0.965904 0.820529 0.502551 0.154015
H21   H     H_    0.382388 0.274536 0.307900 0.174946
H22   H     H_    0.599256 0.745049 0.708096 0.190792
C43   C     C_R   0.379396 0.206526 0.384261 0.315867
C44   C     C_R   0.607101 0.774237 0.627329 0.322861
C45   C     C_R   0.406166 0.150613 0.422898 -0.187924
C46   C     C_R   0.585085 0.826351 0.584875 -0.199306
H23   H     H_    0.389807 0.131054 0.459168 0.145509
H24   H     H_    0.603697 0.824849 0.548778 0.129425
C47   C     C_R   0.454688 0.119168 0.415478 -0.009705
C48   C     C_R   0.539406 0.881184 0.588395 0.012616
C49   C     C_R   0.477215 0.142213 0.368171 0.016375
C50   C     C_R   0.514806 0.883597 0.635566 0.002442
C51   C     C_R   0.450136 0.198672 0.330015 -0.197270
C52   C     C_R   0.537675 0.834271 0.678086 -0.238672
H25   H     H_    0.466093 0.218699 0.293570 0.208823
H26   H     H_    0.520049 0.835202 0.714681 0.198501
C53   C     C_R   0.402194 0.231322 0.338152 -0.176192
C54   C     C_R   0.583135 0.780831 0.674172 -0.130278
C55   C     C_R   0.482334 0.932592 0.459054 -0.178394
C56   C     C_R   0.517968 0.067533 0.541020 -0.181854
H27   H     H_    0.467442 0.880513 0.427643 0.148578
H28   H     H_    0.532395 0.119791 0.572626 0.145144
C57   C     C_R   0.501615 0.871737 0.500784 -0.067357
C58   C     C_R   0.498668 0.128252 0.499325 -0.060444
C59   C     C_R   0.519189 0.939650 0.542589 0.068249
C60   C     C_R   0.480109 0.060346 0.458104 0.074259
H29   H     H_    0.388172 0.385403 0.871884 0.188933
H30   H     H_    0.609619 0.632765 0.128140 0.188873
H31   H     H_    0.386687 0.382748 0.961285 0.141791
H32   H     H_    0.611156 0.635125 0.038752 0.141788
C61   C     C_R   0.461680 0.450959 0.188294 0.541086
C62   C     C_R   0.540195 0.543348 0.811627 0.536285
O15   O     O_2   0.424232 0.402714 0.214106 -0.568500
O16   O     O_2   0.578850 0.584757 0.785793 -0.577027
N3    N     N_R   0.500234 0.498512 0.214094 -0.449733
N4    N     N_R   0.500530 0.502305 0.785856 -0.450973
C63   C     C_R   0.538889 0.546074 0.188309 0.549764
C64   C     C_R   0.460845 0.460721 0.811655 0.550471
C65   C     C_R   0.534997 0.433149 0.295835 -0.215013
C66   C     C_R   0.467778 0.574957 0.704239 -0.231512
C67   C     C_R   0.534260 0.434793 0.348796 0.052177
C68   C     C_R   0.468144 0.572663 0.651270 0.061475
C69   C     C_R   0.465843 0.564863 0.349222 0.048708
C70   C     C_R   0.532293 0.428911 0.650657 0.044463
C71   C     C_R   0.465189 0.565266 0.296259 -0.227206
C72   C     C_R   0.533233 0.428820 0.703611 -0.225881
C73   C     C_R   0.500098 0.498824 0.268917 0.344106
C74   C     C_R   0.500592 0.502269 0.731042 0.356288
C75   C     C_R   0.500366 0.499038 0.107780 -0.042107
C76   C     C_R   0.500451 0.501413 0.892161 -0.042338
C77   C     C_R   0.460977 0.450918 0.134900 -0.020007
C78   C     C_R   0.540835 0.543716 0.865016 -0.018594
C79   C     C_R   0.421820 0.403194 0.108236 -0.142983
C80   C     C_R   0.581032 0.585375 0.891645 -0.144291
C81   C     C_R   0.539720 0.546677 0.134925 -0.028531
C82   C     C_R   0.460104 0.459598 0.865041 -0.029398
N5    N     N_R   0.500000 0.499970 0.374520 -0.173940
N6    N     N_R   0.500000 0.500030 0.625480 -0.170408
H33   H     H_    0.439050 0.616800 0.370115 0.124906
H34   H     H_    0.557421 0.371971 0.629643 0.122159
H35   H     H_    0.437947 0.617555 0.276665 0.154542
H36   H     H_    0.558913 0.371412 0.723126 0.153864
H37   H     H_    0.391135 0.364713 0.128030 0.186067
H38   H     H_    0.612751 0.617818 0.871820 0.185479
C83   C     C_R   0.459562 0.455755 0.972953 0.040601
C84   C     C_R   0.540871 0.546937 0.026999 0.040660
C85   C     C_R   0.541288 0.545229 0.972951 0.040978
C86   C     C_R   0.459950 0.452759 0.026976 0.040929
C87   C     C_R   0.500432 0.500811 0.946253 0.071351
C88   C     C_R   0.500398 0.499568 0.053687 0.071511
C89   C     C_R   0.419487 0.415542 0.944318 -0.198028
C90   C     C_R   0.579605 0.595005 0.055674 -0.198141
C91   C     C_R   0.419875 0.417429 0.891687 -0.138142
C92   C     C_R   0.578944 0.594719 0.108309 -0.138514
N7    N     N_2   0.329577 0.236415 0.389814 -0.452549
H39   H     H_    0.318030 0.314144 0.371089 0.245734
C93   C     C_3   0.304022 0.206625 0.435947 -0.584300
H40   H     H_    0.265600 0.232314 0.432014 0.257775
H41   H     H_    0.319359 0.258499 0.468385 0.230171
H42   H     H_    0.305842 0.105795 0.443088 0.240120
N8    N     N_2   0.653991 0.721257 0.622421 -0.423533
H43   H     H_    0.666497 0.711466 0.585834 0.267488
C94   C     C_3   0.666321 0.619423 0.655123 -0.643848
H44   H     H_    0.701392 0.579630 0.643160 0.225467
H45   H     H_    0.638398 0.546131 0.653018 0.220161
H46   H     H_    0.670424 0.652073 0.694691 0.244995
C95   C     C_2   0.528491 0.111018 0.357302 0.816701
O17   O     O_2   0.555883 0.082618 0.391288 -0.585620
O18   O     O_R   0.545822 0.115968 0.307623 -0.777721
H47   H     H_    0.581201 0.094233 0.304920 0.346044
C96   C     C_2   0.465294 0.934029 0.641885 0.818580
O19   O     O_2   0.438727 0.945312 0.605529 -0.590712
O20   O     O_R   0.448472 0.966022 0.690133 -0.763506
H48   H     H_    0.414250 0.998215 0.689792 0.349215
C97   C     C_2   0.122559 0.165457 0.538569 0.932412
O21   O     O_2   0.111761 0.067652 0.518206 -0.615971
O22   O     O_R   0.153796 0.166596 0.579826 -0.714638
H49   H     H_    0.165981 0.081129 0.588462 0.346824
C98   C     C_2   0.875215 0.857127 0.494756 0.919566
O23   O     O_2   0.884478 0.937989 0.525697 -0.600243
O24   O     O_R   0.845051 0.882410 0.453992 -0.716865
H50   H     H_    0.832280 0.970067 0.454870 0.349374

loop_
_geom_bond_atom_site_label_1
_geom_bond_atom_site_label_2
_geom_bond_distance
_ccdc_geom_bond_type
C55   C57   1.399035 A    
C96   O19   1.222728 D    
H1    C68   1.081641 S    
C93   H40   1.109908 S    
N7    C93   1.447493 S    
C23   C25   1.417757 A    
O18   H47   1.013891 S    
C3    C29   1.470414 S    
C94   H44   1.110361 S    
C4    C30   1.467419 S    
C37   H17   1.078208 S    
C58   C60   1.411111 A    
N8    H43   1.031830 S    
C31   C37   1.412802 A    
C95   O18   1.399123 S    
C32   C38   1.414435 A    
O24   H50   1.013968 S    
C39   H15   1.083535 S    
C22   C28   1.411682 A    
C96   O20   1.398942 S    
C38   H18   1.076411 S    
C56   C59   1.386342 A    
C81   C92   1.397339 A    
O1    C1    1.284954 A    
C49   C95   1.491815 S    
H31   C89   1.075680 S    
C44   C46   1.403988 A    
H32   C90   1.075657 S    
C46   H24   1.084066 S    
C69   C71   1.401658 A    
C43   N7    1.429612 S    
C52   C54   1.393895 A    
C50   C96   1.489890 S    
C15   H3    1.083023 S    
C69   H33   1.081486 S    
C27   C40   1.395885 A    
C56   C58   1.397782 A    
N3    C73   1.450590 S    
C12   C20   1.400714 A    
C38   C40   1.386325 A    
C67   N5    1.362902 A    
O4    Cu1   1.965445 S    
C9    O14   1.350139 S    
N1    C19   1.434405 S    
C75   C81   1.407733 A    
C25   C97   1.483116 S    
C61   O15   1.349285 S    
C71   H35   1.082577 S    
N3    C63   1.372083 A    
C47   C60   1.481918 S    
C8    C24   1.418240 A    
C72   C74   1.403724 A    
C26   C42   1.397108 A    
C76   C78   1.407923 A    
C47   C49   1.420401 A    
C18   H6    1.082846 S    
C21   C27   1.410412 A    
C9    C27   1.400015 A    
C22   C24   1.417796 A    
C1    C58   1.448467 S    
N4    C74   1.450350 S    
C93   H41   1.109539 S    
C13   C29   1.405599 A    
Cu1   Cu2   2.653924 S    
H22   C54   1.079763 S    
C40   H16   1.083482 S    
O2    C2    1.285709 A    
C24   C26   1.418234 A    
C26   C98   1.482433 S    
C62   O16   1.348958 S    
N8    C94   1.448784 S    
C66   C68   1.401583 A    
C14   H11   1.082684 S    
C65   C67   1.401372 A    
C79   H37   1.083442 S    
C37   C39   1.385509 A    
C28   C39   1.396439 A    
C42   H20   1.076993 S    
C12   C14   1.394618 A    
C94   H46   1.109223 S    
C68   N6    1.362799 A    
O4    C2    1.280414 A    
C6    C85   1.417528 A    
C46   C48   1.405106 A    
C95   O17   1.222486 D    
C12   H13   1.082758 S    
C45   C47   1.404436 A    
C5    C86   1.417527 A    
N2    C20   1.434359 S    
C11   H14   1.082713 S    
O3    C1    1.281153 A    
O20   H48   1.013921 S    
C21   C36   1.422948 A    
C72   H36   1.082570 S    
O5    C3    1.289107 A    
O7    Cu2   1.949008 S    
C49   C51   1.406014 A    
C48   C50   1.420381 A    
C97   O21   1.223095 D    
Cu2   N5    1.993221 S    
O6    C4    1.287861 A    
C10   C28   1.399323 A    
C10   O13   1.350223 S    
C76   C87   1.431330 A    
C56   H28   1.085063 S    
H30   C92   1.083432 S    
C57   C59   1.413293 A    
C83   C89   1.417396 A    
C2    C57   1.448392 S    
C62   C78   1.412865 A    
C52   H26   1.083080 S    
O7    C3    1.289256 A    
H2    C67   1.081360 S    
H29   C91   1.083431 S    
O3    Cu2   1.965447 S    
O8    C4    1.288930 A    
N4    C64   1.371976 A    
C7    C23   1.416993 A    
C78   C80   1.397278 A    
C13   H12   1.083056 S    
C43   C45   1.408077 A    
C90   C92   1.392765 A    
O22   H49   1.013871 S    
C97   O22   1.398479 S    
H10   C65   1.082541 S    
C7    O11   1.347764 S    
C5    C79   1.392998 A    
N1    C9    1.363919 A    
C15   C29   1.405254 A    
C8    O12   1.347927 S    
C41   H19   1.078960 S    
O1    Cu1   1.962832 S    
C70   N6    1.362926 A    
C63   C81   1.412677 A    
C51   C53   1.394908 A    
C62   N4    1.371831 A    
C83   C86   1.430117 A    
C64   C82   1.412784 A    
C17   C19   1.399527 A    
C70   C72   1.401533 A    
C84   C85   1.430067 A    
C32   C36   1.422010 A    
C31   C34   1.420253 A    
C61   C77   1.413026 A    
C55   C60   1.385422 A    
C7    N1    1.367366 A    
C32   C33   1.424350 A    
O6    Cu2   1.951381 S    
C22   C35   1.423424 A    
C94   H45   1.111257 S    
C70   H34   1.081663 S    
C76   C82   1.407769 A    
C48   C59   1.484480 S    
C86   C88   1.422633 A    
C77   C79   1.397325 A    
O8    Cu1   1.949005 S    
C31   C35   1.420977 A    
C16   H4    1.083176 S    
C66   C74   1.403780 A    
C84   C88   1.422820 A    
C93   H42   1.110709 S    
C85   C87   1.422647 A    
C69   N5    1.363093 A    
N2    C10   1.363575 A    
O9    C64   1.349275 S    
C44   C54   1.405746 A    
Cu1   N6    1.993221 S    
C33   C35   1.415820 A    
C75   C88   1.431352 A    
C11   C13   1.395277 A    
O10   C63   1.349280 S    
C5    H7    1.075682 S    
C17   H5    1.082848 S    
C82   C91   1.397357 A    
C6    H8    1.075655 S    
C50   C52   1.404082 A    
C14   C30   1.403443 A    
H21   C53   1.083048 S    
C84   C90   1.417370 A    
C18   C20   1.400133 A    
C15   C17   1.393310 A    
H9    C66   1.082590 S    
C34   C36   1.414120 A    
C6    C80   1.392902 A    
C16   C18   1.393886 A    
C43   C53   1.399559 A    
C89   C91   1.392866 A    
O2    Cu2   1.962832 S    
C33   C42   1.411205 A    
C80   H38   1.083453 S    
C98   O23   1.223016 D    
C45   H23   1.082101 S    
O5    Cu1   1.951381 S    
C16   C30   1.404352 A    
C21   C23   1.417454 A    
C51   H25   1.082669 S    
C34   C41   1.410350 A    
C8    N2    1.367403 A    
C11   C19   1.400882 A    
N7    H39   1.031931 S    
C71   C73   1.403836 A    
C61   N3    1.372031 A    
C98   O24   1.398363 S    
C25   C41   1.397042 A    
C55   H27   1.085014 S    
C83   C87   1.422804 A    
C44   N8    1.430015 S    
C75   C77   1.407962 A    
C65   C73   1.403546 A    
