data_mof_unit_58590.cif
_audit_creation_date              2012-10-26T20:31:40-0400
_audit_creation_method            fapswitch 2.2
_symmetry_space_group_name_H-M    P1
_symmetry_Int_Tables_number       1
_space_group_crystal_system       triclinic
_cell_length_a                    15.889919
_cell_length_b                    10.86937
_cell_length_c                    9.54139
_cell_angle_alpha                 90.219356
_cell_angle_beta                  90.083987
_cell_angle_gamma                 90.152278
_cell_volume                      1647.90630003

loop_
_atom_site_label
_atom_site_type_symbol
_atom_type_description
_atom_site_fract_x
_atom_site_fract_y
_atom_site_fract_z
_atom_type_partial_charge
C1    C     C_R   0.500715 0.262604 0.499456 0.578927
C2    C     C_R   0.503042 0.129831 0.496964 0.022178
C3    C     C_R   0.511293 0.063026 0.369825 0.372332
C4    C     C_R   0.340238 0.499924 0.499912 0.562942
C5    C     C_R   0.511188 0.934040 0.371142 -0.116971
C6    C     C_R   0.503087 0.869647 0.498551 -0.044195
C7    C     C_R   0.497339 0.938548 0.620640 -0.007625
C8    C     C_3   0.485013 0.930658 0.775073 -0.232405
C9    C     C_3   0.484753 0.072362 0.774245 -0.231588
C10   C     C_R   0.541156 0.590400 0.074114 0.097090
C11   C     C_R   0.452152 0.418713 0.073724 0.516837
C12   C     C_3   0.949509 0.366300 0.531596 -0.223687
C13   C     C_R   0.452371 0.418617 0.924861 0.030185
C14   C     C_R   0.541154 0.590378 0.926774 0.133231
C15   C     C_3   0.632818 0.619737 0.921285 -0.263974
C16   C     C_R   0.500705 0.737232 0.500059 0.543869
C17   C     C_3   0.632772 0.619969 0.080390 -0.275707
C18   C     C_R   0.659767 0.500071 0.500039 0.537695
C19   C     C_3   0.047507 0.363484 0.525062 -0.033119
C20   C     C_3   0.046918 0.547478 0.350868 -0.022772
C21   C     C_3   0.949441 0.533120 0.349865 -0.197820
C22   C     C_1   0.749346 0.499390 0.500080 -0.028941
C23   C     C_3   0.916907 0.496817 0.497247 0.013902
C24   C     C_3   0.082853 0.495387 0.492488 0.012151
C25   C     C_2   0.079154 0.264175 0.426659 0.607318
C26   C     C_2   0.085102 0.499845 0.215167 0.597846
C27   C     C_3   0.952564 0.588125 0.607510 -0.230849
C28   C     C_3   0.049953 0.581822 0.610675 -0.269843
C29   C     C_1   0.824828 0.498414 0.499309 -0.068975
C30   C     C_1   0.175194 0.497642 0.496675 -0.004557
C31   C     C_1   0.250671 0.498990 0.499115 0.042244
C32   C     C_R   0.497173 0.062429 0.619828 -0.052089
Cu1   Cu    Cu3+1 0.500000 0.499980 0.640670 0.946414
Cu2   Cu    Cu3+1 0.500000 0.500020 0.359330 1.080383
F1    F     F_    0.519204 0.120682 0.244527 -0.591746
F2    F     F_    0.404470 0.334894 0.142361 -0.559350
H1    H     H_    0.920369 0.298218 0.458788 0.162686
H2    H     H_    0.415063 0.351364 0.868406 0.140041
H3    H     H_    0.670940 0.543815 0.875989 0.161208
H4    H     H_    0.645090 0.711954 0.875632 0.126277
H5    H     H_    0.670987 0.544305 0.125545 0.161195
H6    H     H_    0.644777 0.712415 0.126587 0.131985
H7    H     H_    0.060656 0.648043 0.349703 0.098544
H8    H     H_    0.929327 0.461612 0.272755 0.172076
H9    H     H_    0.920418 0.621407 0.316343 0.119250
H10   H     H_    0.071045 0.548091 0.715001 0.133768
H11   H     H_    0.076300 0.676192 0.598366 0.132510
H12   H     H_    0.070090 0.337915 0.631779 0.106887
H13   H     H_    0.927348 0.566151 0.713317 0.141826
H14   H     H_    0.064914 0.170949 0.244766 0.356026
H15   H     H_    0.081508 0.503156 0.003701 0.337093
H16   H     H_    0.928622 0.339950 0.638756 0.110934
H17   H     H_    0.932440 0.683394 0.581616 0.132214
H18   H     H_    0.517030 0.885335 0.272371 0.156481
H19   H     H_    0.423156 0.889604 0.803000 0.158280
H20   H     H_    0.540401 0.890578 0.829344 0.141228
H21   H     H_    0.422696 0.112735 0.801661 0.165361
H22   H     H_    0.539938 0.114285 0.828133 0.166295
N1    N     N_R   0.500530 0.500930 0.147930 -0.231798
N2    N     N_R   0.500530 0.500890 0.852020 -0.275964
O1    O     O_R   0.500000 0.319640 0.618810 -0.532136
O2    O     O_R   0.037320 0.239391 0.300485 -0.689055
O3    O     O_2   0.146273 0.431873 0.215184 -0.453492
O4    O     O_R   0.051121 0.539118 0.087712 -0.714827
O5    O     O_R   0.500010 0.319680 0.381230 -0.374602
O6    O     O_R   0.379430 0.499990 0.618840 -0.513919
O7    O     O_R   0.379440 0.500030 0.381260 -0.437571
O8    O     O_R   0.499990 0.680320 0.618770 -0.497017
O9    O     O_R   0.500000 0.680360 0.381190 -0.522088
O10   O     O_R   0.620560 0.499970 0.618740 -0.506398
O11   O     O_R   0.620570 0.500010 0.381160 -0.511574
O12   O     O_2   0.141345 0.204470 0.458804 -0.491054

loop_
_geom_bond_atom_site_label_1
_geom_bond_atom_site_label_2
_ccdc_geom_bond_type
Cu2   O7    S    
C18   O10   A    
C4    O7    A    
C1    O5    A    
C26   O3    D    
C27   H17   S    
C28   H11   S    
C6    C7    A    
C16   O8    A    
C22   C29   T    
C23   C27   S    
C21   H8    S    
C14   N2    A    
C1    C2    S    
C21   H9    S    
C12   C23   S    
C3    F1    S    
C28   H10   S    
C8    H20   S    
C10   N1    A    
C18   O11   A    
C7    C8    S    
C13   N2    A    
C18   C22   S    
C4    O6    A    
C11   C13   A    
Cu2   O9    S    
C15   H3    S    
C13   H2    S    
Cu2   N1    S    
C20   C26   S    
Cu1   O10   S    
C11   N1    A    
C5    C6    A    
C23   C29   S    
C12   C19   S    
Cu1   O1    S    
C11   F2    S    
C12   H16   S    
Cu1   O6    S    
Cu1   Cu2   S    
Cu1   N2    S    
C9    H21   S    
C25   O2    S    
C21   C23   S    
Cu2   O5    S    
C30   C31   T    
H14   O2    S    
C17   H5    S    
C15   H4    S    
C24   C30   S    
H15   O4    S    
C19   C25   S    
C6    C16   S    
C4    C31   S    
C24   C28   S    
C5    H18   S    
C12   H1    S    
C20   H7    S    
C20   C21   S    
C8    H19   S    
C2    C32   A    
C9    H22   S    
C10   C14   A    
C27   C28   S    
C15   C17   S    
C26   O4    S    
C17   H6    S    
C25   O12   D    
C2    C3    A    
C7    C32   A    
C10   C17   S    
C9    C32   S    
C14   C15   S    
C19   C24   S    
Cu2   O11   S    
C20   C24   S    
C16   O9    A    
C27   H13   S    
Cu1   O8    S    
C19   H12   S    
C8    C9    S    
C3    C5    A    
C1    O1    A    
