data_mof_unit_7416.cif
_audit_creation_date              2012-12-11T14:47:31-0500
_audit_creation_method            fapswitch 2.2
_symmetry_space_group_name_H-M    P1
_symmetry_Int_Tables_number       1
_space_group_crystal_system       triclinic
_cell_length_a                    19.49295
_cell_length_b                    6.973885
_cell_length_c                    19.416987
_cell_angle_alpha                 90.001806
_cell_angle_beta                  95.866291
_cell_angle_gamma                 90.002901
_cell_volume                      2625.75297173

loop_
_atom_site_label
_atom_site_type_symbol
_atom_type_description
_atom_site_fract_x
_atom_site_fract_y
_atom_site_fract_z
_atom_type_partial_charge
O1    O     O_R   0.673510 0.377480 0.186100 -0.533031
O2    O     O_R   0.326490 0.622520 0.813900 -0.533033
O3    O     O_R   0.826490 0.877480 0.313900 -0.533043
O4    O     O_R   0.173510 0.122520 0.686100 -0.533038
O5    O     O_R   0.807790 0.705750 0.184090 -0.524233
O6    O     O_R   0.192210 0.294250 0.815910 -0.524233
O7    O     O_R   0.692210 0.205750 0.315910 -0.524230
O8    O     O_R   0.307790 0.794250 0.684090 -0.524231
C1    C     C_1   0.478149 0.994569 0.521222 -0.000985
C2    C     C_1   0.521852 0.005430 0.478779 -0.000985
C3    C     C_1   0.021851 0.494568 0.978778 -0.000989
C4    C     C_1   0.978149 0.505432 0.021222 -0.000989
C5    C     C_R   0.830882 0.538246 0.166295 0.712287
C6    C     C_R   0.169118 0.461754 0.833705 0.712288
C7    C     C_R   0.669118 0.038243 0.333705 0.712310
C8    C     C_R   0.330882 0.961756 0.666295 0.712307
O9    O     O_R   0.672870 0.707110 0.178120 -0.534849
O10   O     O_R   0.327130 0.292890 0.821880 -0.534850
O11   O     O_R   0.827130 0.207110 0.321880 -0.534860
O12   O     O_R   0.172870 0.792890 0.678120 -0.534862
O13   O     O_R   0.690610 0.878650 0.307880 -0.523369
O14   O     O_R   0.309390 0.121350 0.692120 -0.523366
O15   O     O_R   0.809390 0.378650 0.192120 -0.523354
O16   O     O_R   0.190610 0.621350 0.807880 -0.523355
C9    C     C_R   0.648239 0.538688 0.160831 0.725626
C10   C     C_R   0.351761 0.461311 0.839168 0.725626
C11   C     C_R   0.851763 0.038704 0.339169 0.725575
C12   C     C_R   0.148237 0.961296 0.660832 0.725577
C13   C     C_1   0.382885 0.971883 0.614284 -0.212338
C14   C     C_1   0.617115 0.028117 0.385717 -0.212338
C15   C     C_1   0.117114 0.471878 0.885716 -0.212305
C16   C     C_1   0.882885 0.528122 0.114284 -0.212305
O17   O     O_3   0.755980 0.544260 0.292580 -0.358517
O18   O     O_3   0.244020 0.455740 0.707420 -0.358516
O19   O     O_3   0.744020 0.044260 0.207420 -0.358496
O20   O     O_3   0.255980 0.955740 0.792580 -0.358497
V1    V     V_3+5 0.748890 0.818640 0.242100 1.413824
V2    V     V_3+5 0.251110 0.181360 0.757900 1.413828
V3    V     V_3+5 0.751110 0.318640 0.257900 1.413812
V4    V     V_3+5 0.248890 0.681360 0.742100 1.413808
C17   C     C_R   0.087003 0.967321 0.608310 -0.066063
C18   C     C_R   0.912996 0.032680 0.391691 -0.066062
C19   C     C_R   0.412998 0.467400 0.891684 -0.065947
C20   C     C_R   0.587002 0.532599 0.108316 -0.065948
C21   C     C_1   0.426376 0.981889 0.571605 0.002346
C22   C     C_1   0.573624 0.018110 0.428395 0.002346
C23   C     C_1   0.073624 0.481884 0.928395 0.002342
C24   C     C_1   0.926376 0.518116 0.071605 0.002343
C25   C     C_R   0.033763 0.112739 0.423742 -0.161086
C26   C     C_R   0.966234 0.887283 0.576262 -0.161083
C27   C     C_R   0.466165 0.611981 0.076359 -0.161043
C28   C     C_R   0.533834 0.388010 0.923641 -0.161045
C29   C     C_R   0.975986 0.110135 0.374526 0.103381
C30   C     C_R   0.024012 0.889874 0.625476 0.103376
C31   C     C_R   0.523958 0.609495 0.125557 0.103351
C32   C     C_R   0.476041 0.390495 0.874444 0.103350
C33   C     C_R   0.908777 0.958081 0.459330 0.083069
C34   C     C_R   0.091222 0.041920 0.540671 0.083068
C35   C     C_R   0.591260 0.458432 0.040621 0.083085
C36   C     C_R   0.408741 0.541571 0.959377 0.083082
C37   C     C_R   0.968470 0.960792 0.508911 0.063234
C38   C     C_R   0.031527 0.039224 0.491092 0.063230
C39   C     C_R   0.531556 0.461059 0.991052 0.063236
C40   C     C_R   0.468444 0.538936 0.008947 0.063236
H1    H     H_    0.080759 0.174289 0.408401 0.139692
H2    H     H_    0.919237 0.825745 0.591604 0.139692
H3    H     H_    0.419120 0.673058 0.091764 0.139682
H4    H     H_    0.580878 0.326932 0.908237 0.139683
C41   C     C_3   0.159197 0.118930 0.520266 -0.787930
H5    H     H_    0.174387 0.037799 0.475018 0.202453
H6    H     H_    0.153608 0.273309 0.506870 0.212145
H7    H     H_    0.202773 0.106003 0.561210 0.200423
C42   C     C_3   0.840805 0.881048 0.479733 -0.787961
H8    H     H_    0.825601 0.962213 0.524968 0.202458
H9    H     H_    0.797235 0.893899 0.438779 0.200447
H10   H     H_    0.846405 0.726685 0.493149 0.212143
C43   C     C_3   0.340724 0.618110 0.979837 -0.788034
H11   H     H_    0.325553 0.536522 0.024990 0.202508
H12   H     H_    0.346245 0.772396 0.993401 0.212137
H13   H     H_    0.297172 0.605380 0.938856 0.200347
C44   C     C_3   0.659279 0.381919 0.020158 -0.788026
H14   H     H_    0.674446 0.463515 0.975006 0.202510
H15   H     H_    0.702831 0.394664 0.061138 0.200338
H16   H     H_    0.653764 0.227630 0.006593 0.212134
C45   C     C_3   0.017226 0.810604 0.696897 -0.767554
H17   H     H_    0.963550 0.765707 0.703171 0.202935
H18   H     H_    0.050930 0.683148 0.706552 0.213138
H19   H     H_    0.032269 0.921699 0.736566 0.195458
C46   C     C_3   0.982773 0.189394 0.303104 -0.767552
H20   H     H_    0.036449 0.234289 0.296829 0.202935
H21   H     H_    0.967732 0.078291 0.263436 0.195457
H22   H     H_    0.949069 0.316848 0.293444 0.213138
C47   C     C_3   0.482859 0.311708 0.802960 -0.767707
H23   H     H_    0.536556 0.267097 0.796648 0.203000
H24   H     H_    0.449211 0.184165 0.793206 0.213068
H25   H     H_    0.467759 0.422987 0.763381 0.195508
C48   C     C_3   0.517139 0.688273 0.197041 -0.767709
H26   H     H_    0.463443 0.732879 0.203354 0.203001
H27   H     H_    0.532240 0.576991 0.236619 0.195508
H28   H     H_    0.550787 0.815817 0.206797 0.213067

loop_
_geom_bond_atom_site_label_1
_geom_bond_atom_site_label_2
_ccdc_geom_bond_type
C34   C38   A    
C1    C21   S    
C47   H23   S    
O5    V1    S    
C42   H9    S    
C42   H8    S    
C5    C16   S    
C3    C23   S    
O10   C10   A    
C6    C15   S    
C4    C24   S    
C48   H28   S    
C44   H14   S    
C43   H11   S    
O17   V3    S    
C25   H1    S    
O18   V4    S    
O19   V1    S    
C17   C34   A    
C18   C29   A    
O12   V4    S    
C25   C29   A    
C43   H13   S    
C20   C35   A    
C6    O16   A    
O14   V2    S    
C12   C17   S    
C5    O15   A    
C33   C42   S    
C41   H6    S    
C48   H27   S    
C2    C22   S    
O6    V2    S    
C46   H21   S    
O11   C11   A    
C1    C2    T    
O5    C5    A    
C28   H4    S    
O7    C7    A    
C47   H24   S    
C15   C23   T    
O1    C9    A    
C16   C24   T    
C41   H5    S    
C9    C20   S    
C44   H15   S    
C10   C19   S    
C48   H26   S    
C45   H18   S    
C32   C47   S    
C36   C43   S    
O20   V4    S    
O9    V1    S    
O12   C12   A    
C8    C13   S    
C45   H17   S    
C18   C33   A    
C13   C21   T    
C41   H7    S    
O19   V3    S    
O6    C6    A    
C31   C48   S    
C43   H12   S    
O2    C10   A    
C27   H3    S    
C46   H22   S    
C26   H2    S    
O11   V3    S    
C19   C36   A    
O4    V2    S    
C47   H25   S    
C29   C46   S    
C42   H10   S    
C44   H16   S    
C7    C14   S    
C45   H19   S    
C8    O14   A    
C25   C38   A    
O18   V2    S    
C14   C22   T    
C27   C40   A    
C35   C44   S    
C28   C39   A    
C30   C45   S    
C3    C4    T    
C34   C41   S    
C33   C37   A    
C35   C39   A    
C36   C40   A    
O9    C9    A    
O3    C11   A    
O10   V2    S    
C26   C30   A    
C11   C18   S    
O15   V3    S    
O20   V2    S    
O16   V4    S    
C20   C31   A    
C27   C31   A    
C37   C38   A    
O17   V1    S    
C17   C30   A    
O1    V3    S    
C39   C40   A    
O2    V4    S    
C19   C32   A    
C7    O13   A    
O13   V1    S    
O3    V1    S    
O8    C8    A    
O4    C12   A    
C26   C37   A    
O7    V3    S    
O8    V4    S    
C46   H20   S    
C28   C32   A    
