data_mof_unit_52012.cif
_audit_creation_date              2012-12-10T16:57:07-0500
_audit_creation_method            fapswitch 2.2
_symmetry_space_group_name_H-M    P1
_symmetry_Int_Tables_number       1
_space_group_crystal_system       triclinic
_cell_length_a                    7.749743
_cell_length_b                    8.584939
_cell_length_c                    15.484375
_cell_angle_alpha                 90.378956
_cell_angle_beta                  82.303909
_cell_angle_gamma                 93.166091
_cell_volume                      1019.35381705

loop_
_atom_site_label
_atom_site_type_symbol
_atom_type_description
_atom_site_fract_x
_atom_site_fract_y
_atom_site_fract_z
_atom_type_partial_charge
C1    C     C_R   0.545903 0.794751 0.497795 0.963889
C2    C     C_R   0.454107 0.205256 0.502013 0.955582
C3    C     C_2   0.570321 0.957892 0.496530 -0.404099
C4    C     C_2   0.429724 0.042135 0.503043 -0.388938
C5    C     C_R   0.478802 0.497819 0.658169 0.881379
C6    C     C_R   0.519715 0.498139 0.342034 0.884911
C7    C     C_R   0.460703 0.464756 0.753348 -0.128042
C8    C     C_R   0.511635 0.477836 0.247485 -0.126910
C9    C     C_R   0.536002 0.331647 0.784695 0.106563
C10   C     C_R   0.393076 0.567677 0.209497 0.131143
C11   C     C_R   0.464725 0.265693 0.866913 0.230914
C12   C     C_R   0.297639 0.499508 0.145585 0.221265
C13   C     C_R   0.322621 0.335168 0.916560 0.127455
C14   C     C_R   0.338753 0.350084 0.112671 0.125155
C15   C     C_R   0.266481 0.476526 0.889731 -0.219536
C16   C     C_R   0.480743 0.277192 0.138557 -0.219695
C17   C     C_R   0.336750 0.544239 0.810153 0.145702
C18   C     C_R   0.567411 0.338718 0.206134 0.130911
C19   C     C_2   0.205292 0.245413 0.983819 -0.226129
C20   C     C_2   0.212626 0.251782 0.069753 -0.233110
H1    H     H_    0.158189 0.529740 0.928123 0.166681
H2    H     H_    0.511797 0.163167 0.112384 0.156617
N1    N     N_2   0.953500 0.457650 0.478520 -0.169155
N2    N     N_2   0.046500 0.542350 0.521480 -0.170168
O1    O     O_R   0.388470 0.738640 0.505270 -0.605855
O2    O     O_R   0.611530 0.261360 0.494730 -0.613647
O3    O     O_R   0.679650 0.711510 0.491500 -0.624375
O4    O     O_R   0.320350 0.288490 0.508500 -0.621835
O5    O     O_R   0.337210 0.515200 0.623500 -0.588459
O6    O     O_R   0.662790 0.484800 0.376500 -0.597938
O7    O     O_R   0.628380 0.488060 0.609730 -0.609772
O8    O     O_R   0.371620 0.511940 0.390270 -0.598374
Zn1   Zn    Zn3+2 0.305580 0.518120 0.509190 0.930026
Zn2   Zn    Zn3+2 0.694420 0.481880 0.490810 0.917333
C21   C     C_3   0.682381 0.255228 0.727520 -0.849374
H3    H     H_    0.738043 0.157737 0.758761 0.235053
H4    H     H_    0.634135 0.207631 0.667868 0.246503
H5    H     H_    0.792296 0.342464 0.709580 0.250456
C22   C     C_3   0.357348 0.730763 0.242799 -0.872572
H6    H     H_    0.368822 0.813471 0.187255 0.235583
H7    H     H_    0.224452 0.732305 0.279771 0.251824
H8    H     H_    0.452745 0.774248 0.286047 0.223312
C23   C     C_3   0.704550 0.245757 0.239163 -0.879144
H9    H     H_    0.825701 0.320652 0.240444 0.250582
H10   H     H_    0.657008 0.201159 0.305715 0.246740
H11   H     H_    0.737752 0.144041 0.196638 0.226072
C24   C     C_3   0.268485 0.697210 0.786222 -0.886803
H12   H     H_    0.348794 0.752690 0.728704 0.233665
H13   H     H_    0.131819 0.678165 0.772552 0.246254
H14   H     H_    0.271481 0.780566 0.841290 0.233660
H15   H     H_    0.119757 0.177452 0.111877 0.153776
H16   H     H_    0.107112 0.166110 0.960953 0.152652
C25   C     C_3   0.144451 0.581648 0.119384 -0.912732
H17   H     H_    0.052399 0.608357 0.178202 0.244579
H18   H     H_    0.191510 0.691808 0.084704 0.238723
H19   H     H_    0.068287 0.510767 0.076358 0.247522
C26   C     C_3   0.532479 0.116922 0.898686 -0.925770
H20   H     H_    0.516664 0.021425 0.851190 0.243768
H21   H     H_    0.672159 0.136576 0.906856 0.240122
H22   H     H_    0.464045 0.076260 0.962572 0.244666
H23   H     H_    0.703353 0.008205 0.490348 0.182390
H24   H     H_    0.296692 0.991838 0.509207 0.183732
H25   H     H_    0.021356 0.379647 0.438243 0.193740
H26   H     H_    0.978637 0.620349 0.561751 0.191535

loop_
_geom_bond_atom_site_label_1
_geom_bond_atom_site_label_2
_ccdc_geom_bond_type
C2    O2    A    
C1    C3    S    
C24   H12   S    
C6    O8    A    
N1    N2    D    
C4    H24   S    
C24   H14   S    
C23   H10   S    
C2    C4    S    
N2    Zn1   S    
C15   H1    S    
C23   H9    S    
N1    Zn2   S    
C1    O3    A    
O8    Zn1   S    
C19   C20   D    
C13   C15   A    
O7    Zn2   S    
C24   H13   S    
C16   C18   A    
C11   C26   S    
C25   H17   S    
C1    O1    A    
C9    C11   A    
C26   H20   S    
C10   C12   A    
C6    C8    S    
N1    H25   S    
C21   H4    S    
C12   C14   A    
O4    Zn1   S    
N2    H26   S    
C20   H15   S    
C7    C9    A    
C25   H18   S    
O3    Zn2   S    
C23   H11   S    
C14   C16   A    
C26   H21   S    
C2    O4    A    
C13   C19   S    
C3    H23   S    
C9    C21   S    
C3    C4    D    
C5    O5    A    
C14   C20   S    
C11   C13   A    
C21   H5    S    
C22   H7    S    
C5    C7    S    
C25   H19   S    
C22   H6    S    
C15   C17   A    
O6    Zn2   S    
C22   H8    S    
C26   H22   S    
C16   H2    S    
O5    Zn1   S    
C6    O6    A    
C18   C23   S    
C19   H16   S    
O2    Zn2   S    
C8    C10   A    
C8    C18   A    
C12   C25   S    
C17   C24   S    
O1    Zn1   S    
C10   C22   S    
C5    O7    A    
C21   H3    S    
C7    C17   A    
