data_mof_unit_63393.cif
_audit_creation_date              2012-12-10T20:55:49-0500
_audit_creation_method            fapswitch 2.2
_symmetry_space_group_name_H-M    P1
_symmetry_Int_Tables_number       1
_space_group_crystal_system       triclinic
_cell_length_a                    15.839993
_cell_length_b                    15.081899
_cell_length_c                    11.033617
_cell_angle_alpha                 90.000696
_cell_angle_beta                  89.989084
_cell_angle_gamma                 87.990274
_cell_volume                      2634.27850589

loop_
_atom_site_label
_atom_site_type_symbol
_atom_type_description
_atom_site_fract_x
_atom_site_fract_y
_atom_site_fract_z
_atom_type_partial_charge
C1    C     C_1   0.250521 0.502671 0.500074 -0.071447
C2    C     C_R   0.498587 0.047172 0.389820 0.138286
C3    C     C_R   0.952105 0.580756 0.499882 0.118707
C4    C     C_R   0.047894 0.419244 0.500114 0.118707
C5    C     C_R   0.040194 0.582175 0.499936 0.142590
C6    C     C_R   0.959805 0.417825 0.500060 0.142589
C7    C     C_R   0.338947 0.500980 0.500057 0.936703
C8    C     C_R   0.661053 0.499020 0.499942 0.936704
C9    C     C_R   0.499989 0.499999 0.259512 0.916066
C10   C     C_R   0.500011 0.500001 0.740488 0.916068
C11   C     C_R   0.913141 0.498596 0.499945 -0.066345
C12   C     C_1   0.749479 0.497329 0.499924 -0.071447
C13   C     C_R   0.086859 0.501404 0.500050 -0.066346
C14   C     C_1   0.500857 0.807029 0.499999 0.226402
C15   C     C_1   0.499142 0.192970 0.500000 0.226402
C16   C     C_1   0.824274 0.497341 0.499924 0.099180
C17   C     C_1   0.175726 0.502659 0.500073 0.099180
C18   C     C_R   0.409024 0.638911 0.122861 0.180559
C19   C     C_R   0.590977 0.361090 0.877139 0.180559
C20   C     C_R   0.409045 0.638918 0.877181 0.180543
C21   C     C_R   0.590954 0.361081 0.122819 0.180545
C22   C     C_R   0.390732 0.718238 0.062572 -0.131519
C23   C     C_R   0.500009 0.500003 0.872681 -0.153692
C24   C     C_R   0.609269 0.281762 0.937427 -0.131520
C25   C     C_R   0.390748 0.718243 0.937483 -0.131520
C26   C     C_R   0.609250 0.281756 0.062515 -0.131520
C27   C     C_R   0.456935 0.569960 0.936229 0.008823
C28   C     C_R   0.543065 0.430040 0.063771 0.008822
C29   C     C_R   0.456924 0.569956 0.063792 0.008817
C30   C     C_R   0.543076 0.430044 0.936208 0.008817
C31   C     C_R   0.499991 0.499997 0.127319 -0.153692
C32   C     C_R   0.501607 0.905015 0.499999 -0.128897
C33   C     C_R   0.498393 0.094984 0.500000 -0.128898
C34   C     C_R   0.501401 0.952827 0.389819 0.138296
C35   C     C_R   0.498598 0.047173 0.610181 0.138296
C36   C     C_R   0.501413 0.952828 0.610180 0.138286
H1    H     H_    0.642443 0.227671 0.108826 0.195642
H2    H     H_    0.357554 0.772327 0.891172 0.195642
H3    H     H_    0.642474 0.227683 0.891102 0.195647
H4    H     H_    0.357528 0.772318 0.108896 0.195647
I1    I     I_    0.104002 0.705156 0.499850 -0.161973
I2    I     I_    0.692540 0.391524 0.763341 -0.285153
I3    I     I_    0.307472 0.608482 0.763457 -0.285180
I4    I     I_    0.692527 0.391514 0.236544 -0.285179
I5    I     I_    0.895998 0.294844 0.500146 -0.161973
I6    I     I_    0.876802 0.701633 0.499705 -0.186014
I7    I     I_    0.123197 0.298366 0.500291 -0.186013
I8    I     I_    0.490841 0.119070 0.223260 -0.234587
I9    I     I_    0.509158 0.880930 0.776740 -0.234587
I10   I     I_    0.490871 0.119073 0.776747 -0.234581
I11   I     I_    0.509128 0.880926 0.223253 -0.234582
I12   I     I_    0.307461 0.608478 0.236660 -0.285153
N1    N     N_1   0.500000 0.270550 0.500000 -0.072002
N2    N     N_1   0.500000 0.729450 0.500000 -0.072002
O1    O     O_R   0.378020 0.573650 0.500040 -0.584871
O2    O     O_R   0.621980 0.426350 0.499960 -0.584871
O3    O     O_R   0.621980 0.573650 0.499960 -0.604830
O4    O     O_R   0.378020 0.426350 0.500040 -0.604830
O5    O     O_R   0.499990 0.573670 0.316780 -0.604126
O6    O     O_R   0.500010 0.426330 0.683220 -0.604126
O7    O     O_R   0.500010 0.573670 0.683220 -0.604133
O8    O     O_R   0.499990 0.426330 0.316780 -0.604133
Zn1   Zn    Zn3+2 0.500000 0.598370 0.500000 1.054609
Zn2   Zn    Zn3+2 0.500000 0.401630 0.500000 1.054610

loop_
_geom_bond_atom_site_label_1
_geom_bond_atom_site_label_2
_ccdc_geom_bond_type
C10   O6    A    
C21   C26   A    
O2    Zn2   S    
C26   H1    S    
C6    I5    S    
C7    O1    A    
C8    O3    A    
C27   C29   A    
C21   I4    S    
C11   C16   S    
C7    O4    A    
C5    C13   A    
C35   C36   A    
C19   I2    S    
C13   C17   S    
O6    Zn2   S    
C22   H4    S    
C2    C34   A    
C35   I10   S    
C28   C30   A    
C19   C24   A    
C18   I12   S    
C29   C31   A    
C18   C29   A    
C18   C22   A    
C20   C27   A    
C8    O2    A    
C34   I11   S    
C12   C16   T    
C15   N1    T    
C2    C33   A    
O1    Zn1   S    
C33   C35   A    
C21   C28   A    
C24   C26   A    
O3    Zn1   S    
C23   C27   A    
O4    Zn2   S    
C25   H2    S    
N1    Zn2   S    
O5    Zn1   S    
C10   O7    A    
C3    C11   A    
N2    Zn1   S    
C9    C31   S    
C9    O8    A    
C14   N2    T    
C23   C30   A    
C32   C36   A    
C6    C11   A    
C20   I3    S    
C22   C25   A    
C4    C6    A    
C20   C25   A    
C4    C13   A    
O7    Zn1   S    
C5    I1    S    
C10   C23   S    
O8    Zn2   S    
C3    I6    S    
C2    I8    S    
C9    O5    A    
C1    C7    S    
C19   C30   A    
C1    C17   T    
C24   H3    S    
C15   C33   S    
C28   C31   A    
C36   I9    S    
C8    C12   S    
C14   C32   S    
C3    C5    A    
C4    I7    S    
C32   C34   A    
