data_mof_unit_29729.cif
_audit_creation_date              2012-12-10T18:09:51-0500
_audit_creation_method            fapswitch 2.2
_symmetry_space_group_name_H-M    P1
_symmetry_Int_Tables_number       1
_space_group_crystal_system       triclinic
_cell_length_a                    10.666664
_cell_length_b                    12.587612
_cell_length_c                    13.108037
_cell_angle_alpha                 82.142668
_cell_angle_beta                  90.681913
_cell_angle_gamma                 102.690237
_cell_volume                      1700.57538523

loop_
_atom_site_label
_atom_site_type_symbol
_atom_type_description
_atom_site_fract_x
_atom_site_fract_y
_atom_site_fract_z
_atom_type_partial_charge
C1    C     C_R   0.480460 0.438580 0.691247 0.924812
C2    C     C_R   0.467054 0.446229 0.973642 0.000378
C3    C     C_R   0.434072 0.465625 0.869670 0.072317
C4    C     C_R   0.741473 0.499356 0.504486 0.965701
C5    C     C_R   0.464802 0.528720 0.036180 0.105445
C6    C     C_R   0.409394 0.619335 0.000011 0.158067
C7    C     C_R   0.359525 0.628093 0.901312 -0.205993
C8    C     C_R   0.371971 0.552345 0.836593 -0.139103
C9    C     C_R   0.518605 0.524417 0.133350 -0.231923
C10   C     C_R   0.446457 0.686409 0.164750 -0.198482
C11   C     C_R   0.466286 0.398746 0.800987 -0.118397
C12   C     C_3   0.120395 0.494491 0.509215 -0.096373
C13   C     C_R   0.334380 0.091932 0.337362 -0.294536
C14   C     C_R   0.650558 0.799177 0.631149 -0.068026
C15   C     C_R   0.695913 0.906507 0.650023 -0.193642
C16   C     C_R   0.512833 0.561206 0.308643 0.867437
C17   C     C_R   0.652366 0.991689 0.591440 0.435755
C18   C     C_R   0.550102 0.966634 0.521376 -0.127648
C19   C     C_R   0.513978 0.856488 0.500357 0.199838
C20   C     C_R   0.483038 0.044665 0.471015 -0.008768
C21   C     C_R   0.396625 0.015087 0.390983 0.211680
C22   C     C_R   0.370727 0.908461 0.366832 -0.273070
C23   C     C_3   0.067189 0.484847 0.399843 -0.431473
C24   C     C_R   0.426006 0.829834 0.422685 -0.181078
C25   C     C_R   0.492599 0.149531 0.499868 -0.037530
C26   C     C_R   0.356105 0.196802 0.364678 0.048996
C27   C     C_R   0.257734 0.497176 0.505411 0.886071
C28   C     C_3   0.899123 0.394489 0.579717 -0.392889
C29   C     C_3   0.044307 0.399151 0.591063 0.298090
C30   C     C_3   0.927968 0.499785 0.397308 0.212520
C31   C     C_3   0.957307 0.603002 0.553296 0.279911
C32   C     C_3   0.877943 0.498796 0.509688 -0.175955
C33   C     C_3   0.100631 0.606146 0.539315 -0.527930
C34   C     C_R   0.402943 0.698811 0.064034 -0.178183
C35   C     C_R   0.500954 0.596862 0.199786 -0.051973
C36   C     C_R   0.502711 0.300345 0.838431 -0.261624
C37   C     C_R   0.515558 0.271373 0.944278 0.519016
C38   C     C_R   0.500811 0.345212 0.010934 -0.183029
H1    H     H_    0.850895 0.319981 0.546476 0.223651
H2    H     H_    0.512845 0.319960 0.091839 0.161345
H3    H     H_    0.853842 0.386666 0.657107 0.218254
H4    H     H_    0.331215 0.561642 0.760742 0.163623
H5    H     H_    0.311050 0.258196 0.322795 0.147804
H6    H     H_    0.304051 0.884684 0.306623 0.148902
H7    H     H_    0.269871 0.071103 0.275075 0.159185
H8    H     H_    0.544380 0.175350 0.566436 0.173864
H9    H     H_    0.687579 0.733682 0.674042 0.226963
H10   H     H_    0.770921 0.924220 0.705614 0.206677
H11   H     H_    0.398239 0.748557 0.403153 0.203536
H12   H     H_    0.141558 0.674533 0.477359 0.176053
H13   H     H_    0.072697 0.421576 0.668408 0.142292
H14   H     H_    0.073411 0.404822 0.376320 0.256282
H15   H     H_    0.937696 0.678115 0.506394 0.116792
H16   H     H_    0.154453 0.625876 0.609969 0.246511
H17   H     H_    0.555220 0.131288 0.927530 0.339691
H18   H     H_    0.732223 0.135845 0.525998 0.332373
H19   H     H_    0.089712 0.150508 0.487031 0.386417
H20   H     H_    0.855034 0.347304 0.375378 0.365501
H21   H     H_    0.919830 0.748869 0.771320 0.380244
H22   H     H_    0.927929 0.582101 0.353504 0.134747
H23   H     H_    0.126327 0.549381 0.342485 0.143232
H24   H     H_    0.431560 0.742995 0.216178 0.151223
H25   H     H_    0.313167 0.694677 0.873378 0.168848
H26   H     H_    0.359633 0.767668 0.037647 0.151247
H27   H     H_    0.570502 0.462032 0.161373 0.169359
H28   H     H_    0.525060 0.247943 0.785341 0.164406
N1    N     N_R   0.433240 0.222190 0.444680 -0.098704
N2    N     N_R   0.566070 0.776970 0.554790 -0.135992
O1    O     O_R   0.468120 0.366740 0.627160 -0.594857
O2    O     O_3   0.721171 0.096539 0.597338 -0.735460
O3    O     O_2   0.202694 0.258448 0.641341 -0.293005
O4    O     O_2   0.973016 0.182649 0.662511 -0.243119
O5    O     O_3   0.068735 0.224039 0.476817 -0.584737
O6    O     O_3   0.849154 0.421909 0.342968 -0.727792
O7    O     O_2   0.783169 0.558907 0.715632 -0.329957
O8    O     O_2   0.006165 0.561177 0.759915 -0.322054
O9    O     O_3   0.945335 0.747345 0.699206 -0.559056
O10   O     O_R   0.510770 0.544830 0.662520 -0.607936
O11   O     O_R   0.663880 0.410950 0.482330 -0.599120
O12   O     O_R   0.706530 0.589040 0.517700 -0.599862
O13   O     O_R   0.489230 0.455170 0.337480 -0.615151
O14   O     O_R   0.531880 0.633260 0.372840 -0.639589
O15   O     O_R   0.293470 0.410960 0.482300 -0.542515
O16   O     O_R   0.336120 0.589050 0.517670 -0.668769
O17   O     O_3   0.548203 0.174152 0.984512 -0.749749
S1    S     S_3+6 0.074056 0.262418 0.594967 0.019463
S2    S     S_3+6 0.920358 0.613204 0.686623 -0.011597
Zn1   Zn    Zn3+2 0.471520 0.381090 0.476390 1.014300
Zn2   Zn    Zn3+2 0.528480 0.618910 0.523610 0.957824

loop_
_geom_bond_atom_site_label_1
_geom_bond_atom_site_label_2
_ccdc_geom_bond_type
C38   H2    S    
C12   C29   S    
C25   N1    A    
H21   O9    S    
C7    C8    A    
C12   C23   S    
C28   C29   S    
N1    Zn1   S    
O14   Zn2   S    
C26   N1    A    
C37   O17   S    
C11   C36   A    
C8    H4    S    
C4    O12   A    
C16   C35   S    
C5    C6    A    
C30   O6    S    
C36   H28   S    
C20   C25   A    
C28   H3    S    
C24   H11   S    
C18   C19   A    
H19   O5    S    
O12   Zn2   S    
C22   H6    S    
C30   H22   S    
C31   C33   S    
C10   C35   A    
C13   H7    S    
O15   Zn1   S    
C17   O2    S    
C21   C22   A    
C1    O10   A    
C10   H24   S    
C15   H10   S    
C16   O14   A    
O11   Zn1   S    
C26   H5    S    
N2    Zn2   S    
C6    C7    A    
O10   Zn2   S    
C31   S2    S    
C12   C27   S    
C23   C30   S    
C28   C32   S    
C4    O11   A    
C3    C8    A    
C28   H1    S    
C33   H12   S    
C1    O1    A    
C6    C34   A    
H17   O17   S    
C5    C9    A    
C37   C38   A    
O3    S1    D    
C2    C38   A    
C31   C32   S    
C34   H26   S    
C17   C18   A    
C13   C21   A    
C19   N2    A    
C10   C34   A    
C31   H15   S    
O8    S2    D    
C7    H25   S    
C29   S1    S    
C4    C32   S    
O1    Zn1   S    
O7    S2    D    
H18   O2    S    
C22   C24   A    
C13   C26   A    
C2    C5    A    
O16   Zn2   S    
H20   O6    S    
C29   H13   S    
C33   H16   S    
C15   C17   A    
C27   O16   A    
O4    S1    D    
C14   H9    S    
C27   O15   A    
C19   C24   A    
C30   C32   S    
C23   H14   S    
C16   O13   A    
C2    C3    A    
C18   C20   A    
C9    H27   S    
O5    S1    S    
O13   Zn1   S    
C3    C11   A    
C23   H23   S    
C20   C21   A    
O9    S2    S    
C36   C37   A    
C9    C35   A    
C14   N2    A    
C14   C15   A    
C1    C11   S    
C12   C33   S    
C25   H8    S    
