data_mof_unit_20035.cif
_audit_creation_date              2012-12-11T16:29:30-0500
_audit_creation_method            fapswitch 2.2
_symmetry_space_group_name_H-M    P1
_symmetry_Int_Tables_number       1
_space_group_crystal_system       triclinic
_cell_length_a                    6.953318
_cell_length_b                    17.313558
_cell_length_c                    18.759255
_cell_angle_alpha                 106.012241
_cell_angle_beta                  89.952083
_cell_angle_gamma                 90.761483
_cell_volume                      2170.54496124

loop_
_atom_site_label
_atom_site_type_symbol
_atom_type_description
_atom_site_fract_x
_atom_site_fract_y
_atom_site_fract_z
_atom_type_partial_charge
O1    O     O_R   0.494360 0.415680 0.413760 -0.543741
O2    O     O_R   0.818810 0.432910 0.557230 -0.513931
O3    O     O_R   0.994290 0.584320 0.586240 -0.530584
C1    C     C_R   0.649866 0.416178 0.580768 0.794816
O4    O     O_R   0.823740 0.406440 0.412520 -0.521070
O5    O     O_R   0.999250 0.557660 0.440500 -0.522155
C2    C     C_R   0.654821 0.382925 0.385211 0.825545
O6    O     O_R   0.489400 0.442340 0.559500 -0.523722
O7    O     O_3   0.662500 0.549650 0.509350 -0.341273
V1    V     V_3+5 0.935340 0.490790 0.498270 1.498649
O8    O     O_R   0.329270 0.567090 0.442770 -0.500103
C3    C     C_R   0.161166 0.583557 0.418981 0.758740
O9    O     O_R   0.324340 0.593560 0.587480 -0.516049
C4    C     C_R   0.157083 0.617211 0.614940 0.775077
V2    V     V_3+5 0.435970 0.509210 0.501730 1.526770
O10   O     O_3   0.158940 0.450350 0.490650 -0.375336
C5    C     C_R   0.199936 0.592540 0.767666 0.027833
C6    C     C_R   0.248990 0.587464 0.839153 0.088756
C7    C     C_R   0.201594 0.649790 0.900949 0.376929
C8    C     C_R   0.121831 0.719674 0.891246 0.303636
C9    C     C_R   0.132003 0.736218 0.820822 -0.121477
C10   C     C_R   0.159972 0.669976 0.756334 -0.055768
C11   C     C_R   0.114096 0.816544 0.814787 -0.092333
C12   C     C_R   0.114818 0.831384 0.743305 -0.052562
C13   C     C_R   0.147370 0.765202 0.679363 -0.044182
C14   C     C_R   0.154862 0.684609 0.684796 -0.055396
C15   C     C_R   0.086748 0.909577 0.731370 -0.029175
C16   C     C_R   0.067562 0.917059 0.658691 0.414251
C17   C     C_R   0.099680 0.851197 0.597940 0.367757
C18   C     C_R   0.175044 0.781975 0.610169 -0.036679
C19   C     C_1   0.110947 0.863349 0.132110 -0.183860
C20   C     C_1   0.118306 0.820341 0.175329 -0.005767
C21   C     C_1   0.127844 0.769926 0.227020 -0.004266
C22   C     C_1   0.136094 0.727622 0.270844 0.016405
C23   C     C_1   0.145804 0.677558 0.322837 0.055536
C24   C     C_1   0.153409 0.635191 0.366616 -0.127590
C25   C     C_1   0.641256 0.363909 0.632489 -0.136205
C26   C     C_1   0.636813 0.321054 0.675867 0.052316
C27   C     C_1   0.632994 0.270639 0.727586 0.037434
C28   C     C_1   0.630186 0.228218 0.771363 0.034258
C29   C     C_1   0.626700 0.177927 0.823191 0.047734
C30   C     C_1   0.622728 0.135218 0.866701 -0.134423
C31   C     C_R   0.604787 0.410630 0.235341 -0.033192
C32   C     C_R   0.564044 0.420624 0.164813 0.360013
C33   C     C_R   0.557496 0.354488 0.102864 0.310096
C34   C     C_R   0.615393 0.279990 0.109305 0.257396
C35   C     C_R   0.621247 0.264091 0.179903 -0.116451
C36   C     C_R   0.623011 0.330869 0.245247 -0.095186
C37   C     C_R   0.629067 0.183429 0.185138 -0.071533
C38   C     C_R   0.657770 0.168071 0.255486 -0.143331
C39   C     C_R   0.674735 0.234491 0.320835 -0.135170
C40   C     C_R   0.649377 0.315349 0.316056 -0.054530
C41   C     C_R   0.675325 0.087710 0.262665 0.243274
C42   C     C_R   0.705375 0.074733 0.332502 0.299850
C43   C     C_R   0.704069 0.138442 0.395893 0.292048
C44   C     C_R   0.716556 0.217149 0.389800 0.230761
O11   O     O_R   0.775690 0.057750 0.940570 -0.516096
O12   O     O_R   0.441200 0.093570 0.087490 -0.554482
O13   O     O_R   0.265840 0.942320 0.059480 -0.543836
C45   C     C_R   0.611196 0.115251 0.116153 0.887944
O14   O     O_R   0.446270 0.067110 0.942790 -0.521647
O15   O     O_R   0.270950 0.915660 0.913750 -0.532671
C46   C     C_R   0.614827 0.083148 0.918639 0.812553
O16   O     O_R   0.770580 0.084400 0.086300 -0.514875
O17   O     O_3   0.602640 0.950400 0.990690 -0.375200
V3    V     V_3+5 0.329740 0.009200 0.001730 1.444164
O18   O     O_R   0.940900 0.906360 0.912450 -0.527348
C47   C     C_R   0.108620 0.884294 0.884004 0.842811
O19   O     O_R   0.935830 0.932820 0.057160 -0.506309
C48   C     C_R   0.103749 0.916028 0.080666 0.788967
V4    V     V_3+5 0.829130 0.990680 0.998180 1.495997
O20   O     O_3   0.106100 0.049590 0.009310 -0.367748
O21   O     O_3   0.098514 0.861116 0.527321 -0.542783
C49   C     C_3   0.934686 0.821224 0.489716 -0.126881
H1    H     H_    0.800664 0.849027 0.517084 0.169338
H2    H     H_    0.935347 0.755803 0.485529 0.130285
H3    H     H_    0.935173 0.827526 0.432457 0.157892
I1    I     I_    0.655832 0.524720 0.315140 -0.357654
O22   O     O_3   0.526581 0.496263 0.156768 -0.522585
C50   C     C_3   0.690429 0.525483 0.127184 -0.119208
H4    H     H_    0.704903 0.495999 0.066902 0.171014
H5    H     H_    0.825382 0.518400 0.156628 0.114866
H6    H     H_    0.672444 0.590692 0.133994 0.156893
O23   O     O_3   0.524918 0.365367 0.033581 -0.529152
C51   C     C_3   0.340063 0.334892 0.009494 -0.132614
H7    H     H_    0.227424 0.366932 0.048346 0.104299
H8    H     H_    0.329325 0.268978 0.002354 0.127345
H9    H     H_    0.311929 0.345099 0.954639 0.184264
O24   O     O_3   0.679514 0.225186 0.045788 -0.559512
C52   C     C_3   0.875000 0.243190 0.035857 -0.191866
H10   H     H_    0.964896 0.237612 0.083251 0.116918
H11   H     H_    0.893181 0.304144 0.027723 0.137043
H12   H     H_    0.929812 0.199874 0.985132 0.164781
O25   O     O_3   0.684519 0.021557 0.201379 -0.554277
C53   C     C_3   0.515281 0.974641 0.197060 -0.164702
H13   H     H_    0.385108 0.010485 0.194480 0.088497
H14   H     H_    0.501330 0.947139 0.243675 0.170265
H15   H     H_    0.523029 0.924045 0.145971 0.159561
O26   O     O_3   0.736337 0.998202 0.338991 -0.529910
C54   C     C_3   0.935932 0.984103 0.334805 -0.120605
H16   H     H_    0.014240 0.026499 0.381554 0.131415
H17   H     H_    0.995974 0.987929 0.280829 0.117320
H18   H     H_    0.960877 0.922383 0.339035 0.153139
O27   O     O_3   0.781171 0.275296 0.451652 -0.558236
C55   C     C_3   0.983083 0.267951 0.457163 -0.114561
H19   H     H_    0.057870 0.281517 0.409444 0.110256
H20   H     H_    0.025636 0.207625 0.461234 0.120922
H21   H     H_    0.035107 0.311514 0.508712 0.164828
I2    I     I_    0.161884 0.477413 0.688514 -0.360843
I3    I     I_    0.390574 0.485831 0.858381 -0.367404
O28   O     O_3   0.243392 0.644637 0.971667 -0.528451
C56   C     C_3   0.088129 0.607860 0.999039 -0.136629
H22   H     H_    0.145480 0.577483 0.039293 0.169099
H23   H     H_    0.009495 0.561329 0.955347 0.129093
H24   H     H_    0.986998 0.654295 0.029688 0.144251
O29   O     O_3   0.029031 0.769638 0.951122 -0.561064
C57   C     C_3   0.829586 0.751878 0.943085 -0.181809
H25   H     H_    0.797259 0.687315 0.937348 0.122854
H26   H     H_    0.768779 0.768441 0.894563 0.140738
H27   H     H_    0.754629 0.787456 0.993428 0.164381
I4    I     I_    0.086540 0.024556 0.812361 -0.394990
O30   O     O_3   0.016369 0.989858 0.647209 -0.527819
C58   C     C_3   0.181587 0.028493 0.628413 -0.114309
H28   H     H_    0.222175 0.001853 0.569604 0.170753
H29   H     H_    0.306508 0.027424 0.665304 0.126630
H30   H     H_    0.147446 0.092469 0.634880 0.149769
I5    I     I_    0.427514 0.745044 0.546112 -0.387003
O31   O     O_3   0.724955 0.123224 0.464087 -0.521960
C59   C     C_3   0.547531 0.137340 0.501585 -0.143466
H31   H     H_    0.431783 0.097484 0.469649 0.109638
H32   H     H_    0.505581 0.201448 0.513481 0.125429
H33   H     H_    0.562477 0.123370 0.555573 0.155452

loop_
_geom_bond_atom_site_label_1
_geom_bond_atom_site_label_2
_ccdc_geom_bond_type
C43   C44   A    
O21   C49   S    
C42   C43   A    
C53   H13   S    
C12   C15   A    
C1    O6    A    
O31   C59   S    
C56   H23   S    
C15   I4    S    
C53   H15   S    
C58   H28   S    
C35   C37   A    
C34   O24   S    
C19   C20   T    
C41   C42   A    
C31   I1    S    
C55   H20   S    
C17   C18   A    
C37   C45   S    
C49   H2    S    
C16   C17   A    
C2    C40   S    
C22   C23   S    
C57   H26   S    
O13   V3    S    
C51   H7    S    
C26   C27   S    
C16   O30   S    
C58   H29   S    
C17   O21   S    
O12   C45   A    
V2    O10   S    
O29   C57   S    
O14   C46   A    
C6    C7    A    
C29   C30   T    
O16   V4    S    
O19   V4    S    
O27   C55   S    
C34   C35   A    
O8    V2    S    
O14   V3    S    
O12   V3    S    
C19   C48   S    
V3    O20   S    
C23   C24   T    
C1    C25   S    
C49   H3    S    
C11   C12   A    
O1    V2    S    
C3    C24   S    
C31   C36   A    
C59   H33   S    
O9    C4    A    
O19   C48   A    
C50   H6    S    
C56   H22   S    
O11   C46   A    
C51   H8    S    
C55   H21   S    
C38   C41   A    
C49   H1    S    
O15   V3    S    
O18   C47   A    
C6    I3    S    
O23   C51   S    
C12   C13   A    
C44   O27   S    
C50   H5    S    
C57   H27   S    
C27   C28   T    
C8    O29   S    
C58   H30   S    
C38   C39   A    
C13   C14   A    
O17   V4    S    
C54   H18   S    
C4    C14   S    
C39   C40   A    
C11   C47   S    
O2    C1    A    
C31   C32   A    
C25   C26   T    
C52   H11   S    
C35   C36   A    
C8    C9    A    
C54   H17   S    
C5    C6    A    
O11   V4    S    
O3    C4    A    
C28   C29   S    
O17   V3    S    
O6    V2    S    
C9    C11   A    
C42   O26   S    
C33   O23   S    
O2    V1    S    
C32   C33   A    
C52   H12   S    
O4    C2    A    
C59   H31   S    
O7    V1    S    
C51   H9    S    
C13   C18   A    
C18   I5    S    
O28   C56   S    
C41   O25   S    
O1    C2    A    
C32   O22   S    
C39   C44   A    
C50   H4    S    
C5    I2    S    
O5    V1    S    
O8    C3    A    
C53   H14   S    
C7    O28   S    
C55   H19   S    
C5    C10   A    
O26   C54   S    
O15   C47   A    
C45   O16   A    
C20   C21   S    
C7    C8    A    
O9    V2    S    
O7    V2    S    
O4    V1    S    
O3    V1    S    
V1    O10   S    
C57   H25   S    
O5    C3    A    
C52   H10   S    
C54   H16   S    
C21   C22   T    
O18   V4    S    
O25   C53   S    
O13   C48   A    
O22   C50   S    
C33   C34   A    
C36   C40   A    
V4    O20   S    
C43   O31   S    
C37   C38   A    
C10   C14   A    
C15   C16   A    
O30   C58   S    
O24   C52   S    
C9    C10   A    
C30   C46   S    
C56   H24   S    
C59   H32   S    
