data_mof_unit_37000.cif
_audit_creation_date              2012-12-10T17:55:27-0500
_audit_creation_method            fapswitch 2.2
_symmetry_space_group_name_H-M    P1
_symmetry_Int_Tables_number       1
_space_group_crystal_system       triclinic
_cell_length_a                    10.830657
_cell_length_b                    9.518349
_cell_length_c                    10.921001
_cell_angle_alpha                 89.983447
_cell_angle_beta                  89.422649
_cell_angle_gamma                 89.995652
_cell_volume                      1125.78849234

loop_
_atom_site_label
_atom_site_type_symbol
_atom_type_description
_atom_site_fract_x
_atom_site_fract_y
_atom_site_fract_z
_atom_type_partial_charge
C1    C     C_R   0.262051 0.499976 0.500460 0.784469
C2    C     C_R   0.737949 0.499972 0.499567 0.784374
C3    C     C_R   0.493020 0.499987 0.265565 0.707140
C4    C     C_R   0.506856 0.499940 0.734441 0.707277
C5    C     C_2   0.492593 0.391675 0.933685 -0.246026
C6    C     C_2   0.506889 0.391640 0.066372 -0.245863
C7    C     C_2   0.531750 0.500256 0.865206 0.393524
C8    C     C_2   0.468152 0.500435 0.134774 0.393421
C9    C     C_R   0.063869 0.372394 0.499368 -0.188246
C10   C     C_R   0.936176 0.372397 0.498549 -0.189014
C11   C     C_R   0.871786 0.500044 0.499170 -0.026359
C12   C     C_R   0.128214 0.500038 0.500937 -0.025958
C13   C     C_R   0.936120 0.627741 0.500585 -0.203356
C14   C     C_R   0.063834 0.627734 0.501785 -0.203834
C15   C     C_R   0.422708 0.074453 0.425339 -0.025139
C16   C     C_R   0.577291 0.074389 0.574663 -0.025279
C17   C     C_R   0.422699 0.925612 0.425344 -0.013730
C18   C     C_R   0.577300 0.925547 0.574659 -0.013632
Cu1   Cu    Cu3+1 0.500000 0.640660 0.500000 0.953409
Cu2   Cu    Cu3+1 0.500000 0.359340 0.500000 0.932444
H1    H     H_    0.451801 0.299276 0.891983 0.130473
H2    H     H_    0.547286 0.299013 0.108125 0.130521
H3    H     H_    0.111914 0.272580 0.498538 0.149329
H4    H     H_    0.888167 0.272581 0.497569 0.149636
H5    H     H_    0.888050 0.727537 0.501348 0.152382
H6    H     H_    0.111867 0.727530 0.502829 0.152710
H7    H     H_    0.360801 0.130573 0.365514 0.115113
H8    H     H_    0.639195 0.130459 0.634490 0.115400
H9    H     H_    0.360774 0.869552 0.365534 0.110611
H10   H     H_    0.639221 0.869431 0.634473 0.110951
N1    N     N_R   0.500000 0.852070 0.500000 -0.157340
N2    N     N_R   0.500000 0.147940 0.500000 -0.154500
O1    O     O_R   0.319640 0.618740 0.499990 -0.593614
O2    O     O_R   0.680360 0.618740 0.500010 -0.593368
O3    O     O_R   0.319620 0.381170 0.499990 -0.585133
O4    O     O_R   0.680380 0.381170 0.500010 -0.585087
O5    O     O_R   0.500000 0.618750 0.321940 -0.559935
O6    O     O_R   0.500000 0.618750 0.678060 -0.559794
O7    O     O_R   0.499970 0.381180 0.321940 -0.604619
O8    O     O_R   0.500030 0.381180 0.678060 -0.604573
O9    O     O_3   0.594091 0.612120 0.918955 -0.556802
C19   C     C_3   0.713909 0.627909 0.867145 0.049630
H11   H     H_    0.751022 0.730129 0.899211 0.167570
H12   H     H_    0.713079 0.634336 0.765525 0.128845
C20   C     C_3   0.801562 0.511077 0.909424 -0.395065
H13   H     H_    0.806496 0.511756 0.011005 0.233338
H14   H     H_    0.766292 0.406996 0.879860 0.207312
C21   C     C_3   0.930770 0.530915 0.855167 -0.909016
H15   H     H_    0.927334 0.529671 0.753779 0.270252
H16   H     H_    0.991389 0.443713 0.885177 0.260562
H17   H     H_    0.970862 0.632186 0.885844 0.258997
O10   O     O_3   0.406331 0.612625 0.080857 -0.556764
C22   C     C_3   0.286749 0.629694 0.132897 0.049001
H18   H     H_    0.249851 0.731541 0.099651 0.168142
H19   H     H_    0.288037 0.637783 0.234399 0.129702
C23   C     C_3   0.198486 0.512569 0.092546 -0.396073
H20   H     H_    0.193942 0.510708 0.990954 0.233736
H21   H     H_    0.232949 0.408978 0.124335 0.206509
C24   C     C_3   0.069206 0.534898 0.145857 -0.908424
H22   H     H_    0.072314 0.537265 0.247235 0.270247
H23   H     H_    0.008345 0.446960 0.118056 0.260643
H24   H     H_    0.029613 0.635230 0.112298 0.258869

loop_
_geom_bond_atom_site_label_1
_geom_bond_atom_site_label_2
_ccdc_geom_bond_type
C16   H8    S    
C15   C17   A    
C18   H10   S    
Cu1   O6    S    
C16   N2    A    
C17   H9    S    
O9    C19   S    
C8    O10   S    
C15   H7    S    
Cu1   Cu2   S    
C23   C24   S    
Cu1   N1    S    
C2    O2    A    
C21   H16   S    
C12   C14   A    
C3    O7    A    
C15   N2    A    
C13   C14   A    
C23   H20   S    
C22   C23   S    
C11   C13   A    
C1    O3    A    
C1    C12   S    
C19   H12   S    
C4    C7    S    
C17   N1    A    
C2    C11   S    
C7    O9    S    
C21   H15   S    
C23   H21   S    
C10   C11   A    
C22   H19   S    
Cu2   N2    S    
C5    C6    S    
Cu2   O8    S    
C9    C12   A    
C20   C21   S    
C24   H23   S    
C19   H11   S    
C1    O1    A    
C6    H2    S    
C24   H22   S    
C5    H1    S    
O10   C22   S    
C3    O5    A    
C16   C18   A    
C3    C8    S    
C9    C10   A    
C20   H14   S    
C2    O4    A    
C5    C7    D    
Cu2   O7    S    
C9    H3    S    
C24   H24   S    
C6    C8    D    
C18   N1    A    
Cu1   O5    S    
C10   H4    S    
Cu1   O1    S    
C20   H13   S    
Cu2   O3    S    
C19   C20   S    
C21   H17   S    
C14   H6    S    
C4    O8    A    
C22   H18   S    
C4    O6    A    
C13   H5    S    
Cu1   O2    S    
Cu2   O4    S    
