data_mof_unit_48572.cif
_audit_creation_date              2013-03-05T16:45:23-0500
_audit_creation_method            fapswitch 2.2
_symmetry_space_group_name_H-M    P1
_symmetry_Int_Tables_number       1
_space_group_crystal_system       triclinic
_cell_length_a                    11.234456
_cell_length_b                    15.902242
_cell_length_c                    17.036504
_cell_angle_alpha                 94.537041
_cell_angle_beta                  93.590242
_cell_angle_gamma                 92.507031
_cell_volume                      3024.50180044

loop_
_atom_site_label
_atom_site_type_symbol
_atom_site_description
_atom_site_fract_x
_atom_site_fract_y
_atom_site_fract_z
_atom_type_partial_charge
O1    O     O_R   0.494300 0.420530 0.382500 -0.523227
O2    O     O_R   0.504600 0.563720 0.388950 -0.572467
C1    C     C_R   0.497594 0.490968 0.347441 1.036743
O3    O     O_R   0.312540 0.428400 0.496760 -0.559529
O4    O     O_R   0.322840 0.571590 0.503210 -0.517923
C2    C     C_R   0.260270 0.501730 0.501406 0.991768
Cu1   Cu    Cu3+1 0.493900 0.415220 0.496180 1.173054
Cu2   Cu    Cu3+1 0.506100 0.584780 0.503820 1.158545
O5    O     O_R   0.495400 0.436280 0.611050 -0.515527
O6    O     O_R   0.505700 0.579470 0.617500 -0.539656
O7    O     O_R   0.677160 0.428410 0.496790 -0.526405
O8    O     O_R   0.687460 0.571600 0.503240 -0.533180
C3    C     C_R   0.493242 0.508933 0.651297 0.946317
C4    C     C_R   0.740961 0.499954 0.499482 0.978611
C5    C     C_3   0.066037 0.416062 0.486854 -0.464508
H1    H     H_    0.097277 0.373630 0.531534 0.252163
H2    H     H_    0.098824 0.385969 0.433662 0.304255
C6    C     C_3   0.927892 0.410350 0.482258 0.205448
H3    H     H_    0.900828 0.372445 0.529335 0.230173
C7    C     C_3   0.084581 0.539077 0.592751 0.395256
C8    C     C_3   0.071453 0.564631 0.432989 0.462474
C9    C     C_3   0.123815 0.508944 0.504145 -0.378937
C10   C     C_3   0.880203 0.501096 0.498916 -0.428693
C11   C     C_3   0.937774 0.536848 0.587524 0.237353
C12   C     C_3   0.929772 0.555739 0.431861 0.099180
H4    H     H_    0.898710 0.617425 0.447721 0.222129
C13   C     C_R   0.491080 0.492219 0.258832 -0.298215
C14   C     C_R   0.495265 0.571703 0.223849 0.173415
C15   C     C_R   0.476862 0.574008 0.141892 0.209300
C16   C     C_R   0.439465 0.499870 0.094885 0.115941
C17   C     C_R   0.415071 0.425698 0.131027 0.256361
C18   C     C_R   0.464715 0.417200 0.207786 0.283801
C19   C     C_R   0.541873 0.456739 0.861812 0.285633
C20   C     C_R   0.502378 0.440966 0.781914 0.287875
C21   C     C_R   0.512885 0.532257 0.902665 0.253509
N1    N     N_2   0.434839 0.496223 0.011147 -0.090412
N2    N     N_2   0.516860 0.539793 0.985586 -0.121805
C22   C     C_R   0.484870 0.512235 0.738004 -0.163144
C23   C     C_R   0.466093 0.590264 0.779025 -0.142174
C24   C     C_R   0.473884 0.598901 0.861044 -0.144832
H5    H     H_    0.441607 0.643909 0.747775 0.250622
H6    H     H_    0.452881 0.657945 0.892034 0.227048
N3    N     N_R   0.515260 0.712130 0.509560 -0.260059
C25   C     C_R   0.455306 0.744807 0.447179 0.128204
C26   C     C_R   0.456835 0.832370 0.437134 -0.219804
C27   C     C_R   0.526466 0.889281 0.489925 0.238116
C28   C     C_R   0.590266 0.856522 0.552721 0.150605
C29   C     C_R   0.582268 0.768531 0.564236 0.449043
C30   C     C_R   0.503685 0.149312 0.543058 0.107435
C31   C     C_R   0.536124 0.237759 0.546134 0.317738
C32   C     C_R   0.459895 0.106386 0.470809 0.106343
N4    N     N_2   0.536750 0.979510 0.484884 -0.102574
N5    N     N_2   0.445833 0.015110 0.460496 -0.062165
N6    N     N_R   0.484730 0.287850 0.490450 -0.305051
C33   C     C_R   0.410353 0.245636 0.430363 0.354539
C34   C     C_R   0.412164 0.156217 0.413481 0.193374
H7    H     H_    0.406141 0.854787 0.387495 0.238287
H8    H     H_    0.402785 0.702476 0.404789 0.221090
S1    S     S_3+6 0.155683 0.641640 0.638902 0.126086
O9    O     O_2   0.287294 0.648325 0.630078 -0.290158
O10   O     O_2   0.101375 0.718935 0.610227 -0.150524
O11   O     O_3   0.141363 0.648340 0.737031 -0.417254
H9    H     H_    0.189243 0.699904 0.758151 0.383855
N7    N     N_R   0.901969 0.623308 0.611798 0.193118
O12   O     O_R   0.914837 0.650590 0.686230 -0.170291
O13   O     O_R   0.859435 0.674715 0.563009 -0.274094
S2    S     S_3+6 0.401826 0.351031 0.763027 0.163333
O14   O     O_2   0.445135 0.279184 0.807433 -0.119718
O15   O     O_2   0.284254 0.375308 0.793386 -0.191593
O16   O     O_3   0.379405 0.317661 0.667086 -0.466591
H10   H     H_    0.301246 0.285696 0.662180 0.404303
S3    S     S_3+6 0.637290 0.387527 0.908786 0.144309
O17   O     O_2   0.565905 0.328338 0.954032 -0.175704
O18   O     O_2   0.703058 0.337445 0.848375 -0.146062
O19   O     O_3   0.736769 0.444390 0.971884 -0.478492
H11   H     H_    0.779660 0.402112 0.000994 0.395955
S4    S     S_3+6 0.307970 0.349711 0.084343 0.167090
O20   O     O_2   0.364451 0.291790 0.025141 -0.142827
O21   O     O_2   0.254173 0.298738 0.145047 -0.155731
O22   O     O_3   0.199546 0.400037 0.037386 -0.462143
H12   H     H_    0.143375 0.354527 0.012371 0.402641
S5    S     S_3+6 0.548769 0.325210 0.217505 0.143217
O23   O     O_2   0.546193 0.291714 0.297094 -0.237768
O24   O     O_2   0.505641 0.255142 0.156761 -0.150095
O25   O     O_3   0.690735 0.352137 0.201002 -0.482430
H13   H     H_    0.733214 0.298875 0.201602 0.409075
N8    N     N_R   0.486971 0.653437 0.107310 0.198441
O26   O     O_R   0.399511 0.677394 0.061880 -0.265109
O27   O     O_R   0.583226 0.702196 0.121515 -0.206565
N9    N     N_R   0.514644 0.651581 0.269732 0.152123
O28   O     O_R   0.620800 0.674612 0.300819 -0.221272
O29   O     O_R   0.437452 0.709460 0.261300 -0.324095
S6    S     S_3+6 0.655060 0.273456 0.617761 0.177791
O30   O     O_2   0.685733 0.365364 0.621807 -0.208609
O31   O     O_2   0.625755 0.253988 0.699163 -0.110713
O32   O     O_3   0.778778 0.223008 0.595678 -0.416562
H14   H     H_    0.751322 0.164483 0.576898 0.369626
S7    S     S_3+6 0.489499 0.098232 0.632011 0.141057
O33   O     O_2   0.611191 0.087419 0.670281 -0.147230
O34   O     O_2   0.421001 0.152255 0.687488 -0.182718
O35   O     O_3   0.413999 0.004005 0.617217 -0.484722
H15   H     H_    0.402144 0.986216 0.670714 0.406686
N10   N     N_R   0.660390 0.915022 0.607360 0.201427
O36   O     O_R   0.632966 0.926414 0.680412 -0.215835
O37   O     O_R   0.748182 0.960142 0.583147 -0.251602
S8    S     S_3+6 0.653941 0.741606 0.655489 0.135174
O38   O     O_2   0.572449 0.763428 0.719897 -0.286626
O39   O     O_2   0.685418 0.652051 0.658563 -0.208379
O40   O     O_3   0.783119 0.799423 0.675503 -0.393915
H16   H     H_    0.800268 0.799238 0.733241 0.412324
N11   N     N_R   0.309159 0.285797 0.398039 0.171815
O41   O     O_R   0.204683 0.259970 0.417904 -0.300225
O42   O     O_R   0.314901 0.322604 0.332923 -0.238088
S9    S     S_3+6 0.337168 0.105373 0.326379 0.156578
O43   O     O_2   0.329202 0.164093 0.261607 -0.128815
O44   O     O_2   0.402834 0.029374 0.298550 -0.222531
O45   O     O_3   0.198711 0.073929 0.347323 -0.439635
H17   H     H_    0.161869 0.045554 0.297250 0.399509
S10   S     S_3+6 0.863655 0.338938 0.400137 0.121732
O46   O     O_2   0.752626 0.371563 0.362949 -0.201308
O47   O     O_2   0.949787 0.321276 0.337680 -0.141883
O48   O     O_3   0.826747 0.246426 0.435924 -0.481642
H18   H     H_    0.771111 0.216103 0.394701 0.381022
N12   N     N_R   0.128905 0.479954 0.650597 0.144773
O49   O     O_R   0.221938 0.436611 0.638182 -0.372182
O50   O     O_R   0.100485 0.489538 0.723692 -0.153837
N13   N     N_R   0.886405 0.481668 0.645935 0.154324
O51   O     O_R   0.799140 0.507297 0.687184 -0.244588
O52   O     O_R   0.921920 0.406230 0.656531 -0.246211
S11   S     S_3+6 0.112034 0.680833 0.438244 0.087649
O53   O     O_2   0.224061 0.705806 0.487811 -0.246513
O54   O     O_2   0.131777 0.708118 0.357364 -0.209552
O55   O     O_3   0.005065 0.742675 0.471333 -0.448772
H19   H     H_    0.036114 0.801367 0.467395 0.411511
S12   S     S_3+6 0.133687 0.527623 0.337918 0.107034
O56   O     O_2   0.124596 0.434376 0.316592 -0.177090
O57   O     O_2   0.080444 0.568803 0.268286 -0.164520
O58   O     O_3   0.277827 0.558017 0.344661 -0.590226
H20   H     H_    0.286730 0.599920 0.305320 0.389162
S13   S     S_3+6 0.852585 0.546631 0.334494 0.141680
O59   O     O_2   0.722827 0.535908 0.342732 -0.298992
O60   O     O_2   0.873696 0.628318 0.297460 -0.157413
O61   O     O_3   0.891362 0.466203 0.272834 -0.369036
H21   H     H_    0.860796 0.479632 0.219693 0.402603

loop_
_geom_bond_atom_site_label_1
_geom_bond_atom_site_label_2
_geom_bond_distance
_ccdc_geom_bond_type
S12   O58   1.663879 S    
C32   N5    1.448714 S    
N8    O26   1.301444 A    
O35   H15   0.990513 S    
C5    C6    1.547377 S    
N11   O41   1.300170 A    
Cu2   N3    2.017564 S    
N3    C25   1.371666 A    
S9    O43   1.501860 D    
S12   O56   1.496030 D    
N11   O42   1.298370 A    
S4    O20   1.500856 D    
N4    N5    1.253415 D    
C15   N8    1.438401 S    
Cu1   O7    2.059628 S    
C26   H7    1.082466 S    
S6    O30   1.482098 D    
C14   C15   1.402222 A    
C21   N2    1.406017 S    
S13   O60   1.504404 D    
C6    H3    1.090877 S    
O3    Cu1   2.057889 S    
O4    C2    1.285612 A    
O7    C4    1.313972 A    
S10   O48   1.681710 S    
S8    O38   1.501994 D    
O61   H21   0.990567 S    
C2    C9    1.545608 S    
C27   N4    1.444196 S    
S12   O57   1.504047 D    
C32   C34   1.401208 A    
O5    C3    1.297984 A    
C19   S3    1.770894 S    
C30   S7    1.787585 S    
N6    C33   1.389897 A    
C5    C9    1.585275 S    
C29   S8    1.796446 S    
C7    C11   1.644793 S    
C25   H8    1.076023 S    
C30   C32   1.408859 A    
C11   N13   1.503021 S    
C10   C11   1.652314 S    
S13   O61   1.680058 S    
O16   H10   0.990672 S    
C15   C16   1.404625 A    
N3    C29   1.399914 A    
C24   H6    1.082859 S    
S1    O9    1.495565 D    
C11   N7    1.484059 S    
O1    Cu1   1.945487 S    
C8    C9    1.651022 S    
S3    O19   1.682139 S    
C17   S4    1.772380 S    
S4    O21   1.503296 D    
C22   C23   1.405964 A    
S1    O10   1.498339 D    
C28   N10   1.435136 S    
C21   C24   1.392309 A    
C6    C10   1.572226 S    
C28   C29   1.427972 A    
Cu1   Cu2   2.686286 S    
C12   S13   1.815310 S    
S13   O59   1.476989 D    
S3    O18   1.502150 D    
C23   C24   1.390061 A    
O22   H12   0.990538 S    
C12   H4    1.075575 S    
O25   H13   0.990629 S    
S2    O14   1.501232 D    
O1    C1    1.310643 A    
N7    O13   1.295939 A    
C4    C10   1.564258 S    
S11   O54   1.503511 D    
O19   H11   0.990603 S    
N13   O52   1.303083 A    
O11   H9    0.990785 S    
N9    O29   1.301908 A    
C17   C18   1.408043 A    
Cu2   O8    2.057891 S    
O32   H14   0.989493 S    
C33   C34   1.429584 A    
C19   C20   1.404706 A    
N10   O37   1.301392 A    
C31   N6    1.399663 A    
C7    S1    1.876386 S    
C3    C22   1.482987 S    
S10   O47   1.500949 D    
O3    C2    1.327427 A    
C7    C9    1.640111 S    
S5    O23   1.496968 D    
S6    O32   1.682934 S    
S5    O24   1.501607 D    
N8    O27   1.301286 A    
O55   H19   0.990771 S    
S11   O55   1.682154 S    
N13   O51   1.302691 A    
S7    O35   1.682412 S    
N10   O36   1.301481 A    
C25   C26   1.415790 A    
N12   O50   1.303815 A    
S4    O22   1.681884 S    
Cu1   O5    1.958038 S    
C8    C12   1.590585 S    
C27   C28   1.398012 A    
N1    N2    1.249372 D    
S1    O11   1.684953 S    
C33   N11   1.429801 S    
C13   C18   1.428250 A    
C20   C22   1.420536 A    
Cu2   O6    1.945487 S    
O2    Cu2   1.958038 S    
O8    C4    1.310208 A    
S3    O17   1.499811 D    
O6    C3    1.306849 A    
C20   S2    1.779151 S    
O4    Cu2   2.059627 S    
S9    O44   1.503599 D    
S10   O46   1.495346 D    
C31   S6    1.793468 S    
C5    H2    1.083745 S    
S5    O25   1.679753 S    
C18   S5    1.788469 S    
S7    O34   1.497991 D    
C16   N1    1.420767 S    
S2    O16   1.678141 S    
N7    O12   1.304454 A    
C1    C13   1.508530 S    
S11   O53   1.491605 D    
O40   H16   0.990700 S    
N9    O28   1.299586 A    
C16   C17   1.397583 A    
S8    O39   1.486431 D    
C19   C21   1.401066 A    
S7    O33   1.500131 D    
O2    C1    1.303981 A    
C10   C12   1.601452 S    
C8    S11   1.877645 S    
C7    N12   1.493051 S    
S9    O45   1.681247 S    
O58   H20   0.988157 S    
C26   C27   1.400377 A    
C23   H5    1.077462 S    
S6    O31   1.497877 D    
C30   C31   1.433490 A    
C13   C14   1.439627 A    
C34   S9    1.777515 S    
C14   N9    1.438527 S    
Cu1   N6    2.017886 S    
S2    O15   1.503261 D    
O48   H18   0.990697 S    
O45   H17   0.990543 S    
C6    S10   1.821610 S    
C8    S12   1.866964 S    
C5    H1    1.107422 S    
N12   O49   1.296082 A    
S8    O40   1.685058 S    
