data_mof_unit_38233.cif
_audit_creation_date              2012-12-11T14:26:59-0500
_audit_creation_method            fapswitch 2.2
_symmetry_space_group_name_H-M    P1
_symmetry_Int_Tables_number       1
_space_group_crystal_system       triclinic
_cell_length_a                    15.168233
_cell_length_b                    14.962911
_cell_length_c                    14.966735
_cell_angle_alpha                 109.5682
_cell_angle_beta                  109.440206
_cell_angle_gamma                 109.7964
_cell_volume                      2602.18843729

loop_
_atom_site_label
_atom_site_type_symbol
_atom_type_description
_atom_site_fract_x
_atom_site_fract_y
_atom_site_fract_z
_atom_type_partial_charge
C1    C     C_R   0.004085 0.803659 0.097303 -0.142690
C2    C     C_R   0.204837 0.802509 0.298147 -0.118111
C3    C     C_R   0.961364 0.409528 0.223581 -0.128194
C4    C     C_R   0.779421 0.232043 0.685172 -0.147795
C5    C     C_R   0.300862 0.591605 0.998483 0.591278
C6    C     C_R   0.031577 0.502658 0.326764 0.135920
C7    C     C_R   0.300583 0.497352 0.937902 -0.071126
C8    C     C_R   0.293908 0.868017 0.298222 0.126687
C9    C     C_R   0.008847 0.181196 0.003759 -0.038581
C10   C     C_3   0.475276 0.371835 0.882786 -0.660537
C11   C     C_3   0.370723 0.370295 0.871274 0.578701
C12   C     C_R   0.677048 0.190972 0.672856 0.133404
C13   C     C_3   0.585715 0.545096 0.065456 -0.411685
C14   C     C_3   0.540004 0.551240 0.884857 0.557010
C15   C     C_3   0.571468 0.493109 0.949417 0.159789
C16   C     C_R   0.094465 0.591333 0.793045 -0.105543
C17   C     C_3   0.395391 0.492064 0.937031 0.181301
C18   C     C_3   0.486156 0.551201 0.058653 -0.432004
C19   C     C_3   0.437351 0.554625 0.881489 -0.633389
C20   C     C_2   0.378674 0.035916 0.469622 -0.116527
C21   C     C_2   0.368521 0.985357 0.371484 -0.198945
C22   C     C_2   0.485121 0.122560 0.564857 -0.113044
C23   C     C_R   0.067511 0.500090 0.701976 0.122188
C24   C     C_2   0.575507 0.122953 0.570103 -0.196809
C25   C     C_2   0.072057 0.412774 0.535855 -0.128064
C26   C     C_2   0.112850 0.502984 0.630874 -0.182537
C27   C     C_2   0.068221 0.420290 0.439766 -0.114538
C28   C     C_R   0.685938 0.406286 0.945712 -0.173226
C29   C     C_2   0.068950 0.506788 0.430986 -0.190583
C30   C     C_2   0.132860 0.119639 0.061709 -0.318733
C31   C     C_2   0.030434 0.100556 0.022585 0.529746
C32   C     C_2   0.157582 0.037562 0.075287 -0.122282
C33   C     C_2   0.111766 0.985098 0.118111 -0.100436
C34   C     C_R   0.673159 0.496379 0.964572 0.106994
C35   C     C_R   0.004832 0.408648 0.702182 -0.129389
C36   C     C_R   0.775379 0.590537 0.032649 -0.092537
C37   C     C_R   0.687785 0.225374 0.775733 -0.124111
C38   C     C_R   0.094152 0.803165 0.006123 -0.129524
C39   C     C_R   0.068930 0.867667 0.071761 0.126251
C40   C     C_3   0.439167 0.771133 0.090279 -0.376269
C41   C     C_3   0.347750 0.305193 0.993588 -0.254184
C42   C     C_3   0.652777 0.747711 0.998274 -0.291624
C43   C     C_3   0.887401 0.931281 0.886730 0.217629
C44   C     C_3   0.795026 0.826759 0.860930 -0.803017
C45   C     C_R   0.053206 0.593629 0.314550 -0.154492
C46   C     C_R   0.205846 0.407742 0.903311 -0.225256
C47   C     C_R   0.293366 0.805782 0.206575 -0.162474
C48   C     C_R   0.945375 0.219593 0.032203 -0.094541
C49   C     C_R   0.043988 0.227883 0.948286 -0.201180
H1    H     H_    0.983156 0.833122 0.159211 0.086719
H2    H     H_    0.320003 0.342554 0.783314 0.032074
H3    H     H_    0.800098 0.217100 0.621214 0.096359
H4    H     H_    0.598552 0.494874 0.103473 0.166154
H5    H     H_    0.458940 0.519179 0.107121 0.152867
H6    H     H_    0.512559 0.494395 0.798206 0.046932
H7    H     H_    0.372919 0.514356 0.794569 0.152272
H8    H     H_    0.452141 0.638777 0.918900 0.242731
H9    H     H_    0.658991 0.628135 0.122846 0.152559
H10   H     H_    0.511316 0.638746 0.101825 0.164488
H11   H     H_    0.315197 0.000714 0.486538 0.118800
H12   H     H_    0.168768 0.324007 0.839411 0.177756
H13   H     H_    0.155140 0.675322 0.825717 0.117314
H14   H     H_    0.430165 0.024361 0.353915 0.129501
H15   H     H_    0.487453 0.175358 0.637190 0.120346
H16   H     H_    0.575243 0.069305 0.499965 0.129159
H17   H     H_    0.022110 0.331479 0.520245 0.116840
H18   H     H_    0.168606 0.583665 0.649376 0.133568
H19   H     H_    0.045541 0.346459 0.368866 0.121458
H20   H     H_    0.088430 0.580585 0.499329 0.128781
H21   H     H_    0.196694 0.191462 0.073384 0.114971
H22   H     H_    0.192115 0.005826 0.028700 0.116584
H23   H     H_    0.335989 0.840706 0.171599 0.117881
H24   H     H_    0.625406 0.322043 0.908059 0.101484
H25   H     H_    0.081936 0.021843 0.168058 0.155846
H26   H     H_    0.984095 0.325074 0.652898 0.084607
H27   H     H_    0.796001 0.675480 0.070406 0.121135
H28   H     H_    0.624158 0.194677 0.793196 0.088151
H29   H     H_    0.155300 0.831334 0.984527 0.090170
H30   H     H_    0.102393 0.679127 0.378573 0.098753
H31   H     H_    0.509955 0.777082 0.081571 0.148038
H32   H     H_    0.447339 0.764330 0.164253 0.130110
H33   H     H_    0.444300 0.850703 0.104029 0.175692
H34   H     H_    0.897300 0.189831 0.066060 0.103688
H35   H     H_    0.436830 0.344672 0.041865 0.135239
H36   H     H_    0.313973 0.224444 0.989035 0.159645
H37   H     H_    0.317852 0.352305 0.036883 0.148472
H38   H     H_    0.638571 0.737370 0.062605 0.129618
H39   H     H_    0.606337 0.783081 0.964086 0.161674
H40   H     H_    0.740037 0.808705 0.038682 0.173165
H41   H     H_    0.940889 0.909015 0.859774 0.101219
H42   H     H_    0.851970 0.965803 0.839170 0.095470
H43   H     H_    0.737576 0.845602 0.882254 0.252347
H44   H     H_    0.750906 0.765613 0.772016 0.204426
H45   H     H_    0.088433 0.209901 0.908270 0.129036
H46   H     H_    0.827249 0.790930 0.908443 0.270141
H47   H     H_    0.171262 0.830121 0.347675 0.081094
H48   H     H_    0.921995 0.325571 0.204978 0.087082
H49   H     H_    0.491213 0.324870 0.923453 0.209261
H50   H     H_    0.464482 0.328134 0.799902 0.141500
N1    N     N_R   0.993980 0.704500 0.053430 -0.041439
N2    N     N_R   0.053690 0.556380 0.849240 -0.042659
N3    N     N_R   0.790390 0.443640 0.997160 -0.039654
N4    N     N_R   0.998260 0.443670 0.792970 -0.043923
N5    N     N_R   0.845830 0.556350 0.053430 -0.052886
N6    N     N_R   0.792820 0.295510 0.849240 -0.041901
N7    N     N_R   0.051260 0.704510 0.997160 -0.039810
N8    N     N_R   0.001740 0.556330 0.207030 -0.043515
N9    N     N_R   0.154170 0.443650 0.946570 -0.072981
N10   N     N_R   0.207180 0.704490 0.150760 -0.042763
N11   N     N_R   0.948740 0.295490 0.002840 -0.041202
N12   N     N_R   0.006020 0.295500 0.946570 -0.026323
N13   N     N_R   0.149890 0.704480 0.207030 -0.044658
N14   N     N_R   0.946310 0.443620 0.150760 -0.045133
N15   N     N_R   0.209610 0.556360 0.002840 -0.092032
N16   N     N_R   0.850110 0.295520 0.792970 -0.040178
Ni1   Ni    Ni4+2 0.997880 0.629240 0.129060 0.200071
Ni2   Ni    Ni4+2 0.002120 0.370760 0.870940 0.204296
Ni3   Ni    Ni4+2 0.129260 0.629260 0.000000 0.239727
Ni4   Ni    Ni4+2 0.870740 0.370740 0.000000 0.208574
O1    O     O_3   0.341796 0.685745 0.992119 -0.624183
O2    O     O_3   0.307750 0.285756 0.885191 -0.628829
O3    O     O_3   0.628972 0.649954 0.912643 -0.610939
O4    O     O_3   0.945509 0.006704 0.000635 -0.633760

loop_
_geom_bond_atom_site_label_1
_geom_bond_atom_site_label_2
_ccdc_geom_bond_type
C19   H7    S    
C48   N11   A    
C14   O3    S    
C6    C45   A    
C5    N15   A    
C27   C29   D    
C4    N16   A    
N1    Ni1   S    
C3    C6    A    
C18   H10   S    
N4    Ni2   S    
C19   H8    S    
C41   H37   S    
C35   H26   S    
C33   C39   S    
C13   C18   S    
C4    H3    S    
C26   H18   S    
C18   H5    S    
C35   N4    A    
C10   C15   S    
C30   C31   D    
N9    N15   A    
C23   C26   S    
C41   O2    S    
C12   C37   A    
C10   H49   S    
N11   N12   A    
N8    N14   A    
C16   N2    A    
C44   H44   S    
C36   H27   S    
N14   Ni4   S    
C7    C17   S    
C46   N9    A    
C40   H31   S    
C27   H19   S    
C49   H45   S    
C20   H11   S    
C1    H1    S    
C15   C34   S    
C29   H20   S    
C44   H43   S    
C49   N12   A    
C14   H6    S    
C28   C34   A    
N2    N4    A    
N5    Ni1   S    
N7    Ni3   S    
C11   O2    S    
C16   H13   S    
C28   H24   S    
C14   C19   S    
C1    N1    A    
C30   H21   S    
N10   Ni3   S    
C17   C18   S    
C32   H22   S    
C13   H4    S    
C46   H12   S    
N8    Ni1   S    
C43   H41   S    
C5    O1    S    
C7    C46   A    
C40   H33   S    
C9    C49   A    
C3    N14   A    
N10   N13   A    
C5    C7    A    
C1    C39   A    
C13   H9    S    
C38   H29   S    
N16   Ni2   S    
C25   C26   D    
C47   N10   A    
C41   H35   S    
C37   H28   S    
C43   H42   S    
C38   N7    A    
C43   C44   S    
C37   N6    A    
C3    H48   S    
C2    N13   A    
C8    C21   S    
C45   H30   S    
N3    N5    A    
N15   Ni3   S    
C24   H16   S    
C40   O1    S    
C20   C22   S    
C16   C23   A    
C23   C35   A    
C13   C15   S    
C22   C24   D    
C42   H39   S    
N2    Ni3   S    
C43   O4    S    
N13   Ni1   S    
C42   O3    S    
C11   C17   S    
C40   H32   S    
N6    N16   A    
C2    C8    A    
C25   H17   S    
N11   Ni4   S    
C25   C27   S    
C41   H36   S    
C12   C24   S    
N1    N7    A    
C48   H34   S    
N12   Ni2   S    
C36   N5    A    
C42   H40   S    
C32   C33   D    
C2    H47   S    
C8    C47   A    
C31   O4    S    
C44   H46   S    
C30   C32   S    
C38   C39   A    
N9    Ni2   S    
C17   C19   S    
C34   C36   A    
C10   H50   S    
C47   H23   S    
C21   H14   S    
C11   H2    S    
C10   C11   S    
C9    C31   S    
C22   H15   S    
C28   N3    A    
C33   H25   S    
C6    C29   S    
C20   C21   D    
C9    C48   A    
C14   C15   S    
N6    Ni4   S    
C42   H38   S    
C4    C12   A    
N3    Ni4   S    
C45   N8    A    
