data_mof_unit_17230.cif
_audit_creation_date              2012-12-10T20:28:42-0500
_audit_creation_method            fapswitch 2.2
_symmetry_space_group_name_H-M    P1
_symmetry_Int_Tables_number       1
_space_group_crystal_system       triclinic
_cell_length_a                    10.692171
_cell_length_b                    10.725289
_cell_length_c                    9.890586
_cell_angle_alpha                 89.068985
_cell_angle_beta                  92.448842
_cell_angle_gamma                 91.056162
_cell_volume                      1132.85497192

loop_
_atom_site_label
_atom_site_type_symbol
_atom_type_description
_atom_site_fract_x
_atom_site_fract_y
_atom_site_fract_z
_atom_type_partial_charge
C1    C     C_R   0.500924 0.260293 0.500781 0.926556
C2    C     C_R   0.073951 0.585099 0.608812 0.108226
C3    C     C_R   0.131094 0.543285 0.492795 -0.121093
C4    C     C_R   0.060140 0.506035 0.379602 -0.223244
C5    C     C_R   0.933896 0.489620 0.387615 -0.239633
C6    C     C_R   0.876497 0.508292 0.510122 -0.121004
C7    C     C_R   0.535117 0.062310 0.618398 0.172770
C8    C     C_R   0.501438 0.128280 0.500705 -0.187688
C9    C     C_R   0.479044 0.066788 0.378441 -0.336461
C10   C     C_R   0.493357 0.939957 0.373165 0.470242
C11   C     C_R   0.513117 0.872249 0.495132 -0.250582
C12   C     C_R   0.262080 0.516601 0.497391 0.890737
C13   C     C_R   0.538634 0.933941 0.616038 0.083625
C14   C     C_3   0.661520 0.931595 0.693874 -0.479289
C15   C     C_3   0.657926 0.071956 0.696331 -0.482270
C16   C     C_R   0.397362 0.457804 0.067349 0.104478
C17   C     C_R   0.593879 0.556557 0.075222 -0.101732
C18   C     C_R   0.592103 0.559318 0.931406 -0.159261
C19   C     C_R   0.398798 0.455387 0.925816 0.038604
C20   C     C_3   0.332161 0.330533 0.917936 0.327164
C21   C     C_3   0.334263 0.332455 0.074717 -0.103515
C22   C     C_R   0.505992 0.739787 0.498710 0.873256
C23   C     C_R   0.741290 0.499837 0.503622 0.853987
C24   C     C_R   0.140220 0.655592 0.709198 -0.175489
C25   C     C_R   0.087515 0.677531 0.832650 -0.160611
C26   C     C_R   0.970812 0.625912 0.858940 -0.189793
C27   C     C_R   0.902560 0.561855 0.757708 -0.196797
C28   C     C_R   0.948170 0.551621 0.625928 0.110554
H1    H     H_    0.102638 0.484566 0.286279 0.193010
H2    H     H_    0.738645 0.895803 0.634018 0.197623
H3    H     H_    0.649656 0.108945 0.799543 0.195937
H4    H     H_    0.732489 0.118013 0.637165 0.193367
H5    H     H_    0.671245 0.599967 0.131693 0.140322
H6    H     H_    0.664906 0.609693 0.880499 0.139981
H7    H     H_    0.397653 0.263803 0.125811 0.160184
H8    H     H_    0.232879 0.693731 0.692695 0.155444
H9    H     H_    0.139682 0.729362 0.910030 0.148332
H10   H     H_    0.933301 0.634607 0.958266 0.133360
H11   H     H_    0.819517 0.514363 0.788745 0.168852
H12   H     H_    0.881852 0.458676 0.297471 0.169035
H13   H     H_    0.460573 0.117084 0.284367 0.187523
H14   H     H_    0.653025 0.886029 0.794227 0.215504
N1    N     N_R   0.499160 0.499140 0.142800 -0.100831
N2    N     N_R   0.499160 0.499180 0.857150 -0.109815
O1    O     O_R   0.500020 0.316790 0.614690 -0.592618
O2    O     O_R   0.500000 0.316760 0.385350 -0.631436
O3    O     O_R   0.316770 0.500020 0.614690 -0.608523
O4    O     O_R   0.316760 0.499980 0.385350 -0.598032
O5    O     O_R   0.500000 0.683240 0.614650 -0.625476
O6    O     O_R   0.499980 0.683210 0.385310 -0.580282
O7    O     O_R   0.683240 0.500020 0.614650 -0.641738
O8    O     O_R   0.683230 0.499980 0.385310 -0.634559
Zn1   Zn    Zn3+2 0.500010 0.500020 0.653130 0.946856
Zn2   Zn    Zn3+2 0.499990 0.499980 0.346870 0.962587
N3    N     N_2   0.211238 0.345438 0.844566 -0.253742
H15   H     H_    0.168208 0.429227 0.858239 0.224448
C29   C     C_3   0.124012 0.241353 0.829470 -0.745084
H16   H     H_    0.027394 0.276449 0.812069 0.217862
H17   H     H_    0.125328 0.180882 0.921241 0.243679
H18   H     H_    0.145878 0.187417 0.739086 0.247515
N4    N     N_2   0.409713 0.233254 0.865014 -0.249438
H19   H     H_    0.504234 0.247916 0.885583 0.206342
C30   C     C_3   0.372423 0.104276 0.890480 -0.766545
H20   H     H_    0.454877 0.043485 0.890777 0.230073
H21   H     H_    0.307585 0.070654 0.808308 0.248993
H22   H     H_    0.329310 0.091743 0.989896 0.238617
N5    N     N_2   0.212977 0.339072 0.134565 -0.282517
H23   H     H_    0.142013 0.383931 0.080802 0.226550
C31   C     C_3   0.175230 0.231851 0.214553 -0.774463
H24   H     H_    0.081439 0.247322 0.254639 0.230461
H25   H     H_    0.242703 0.218116 0.301763 0.256723
H26   H     H_    0.170615 0.146672 0.152330 0.228630
O9    O     O_3   0.500661 0.886751 0.247590 -0.585156
C32   C     C_3   0.628828 0.882059 0.216585 0.147404
H27   H     H_    0.670126 0.794630 0.258506 0.152245
H28   H     H_    0.686425 0.962238 0.257216 0.116432
C33   C     C_3   0.640111 0.884205 0.064385 -0.899389
H29   H     H_    0.624337 0.980189 0.024834 0.242011
H30   H     H_    0.735587 0.855931 0.038835 0.205247
H31   H     H_    0.570040 0.819565 0.016020 0.276761

loop_
_geom_bond_atom_site_label_1
_geom_bond_atom_site_label_2
_ccdc_geom_bond_type
N3    H15   S    
C30   H21   S    
C16   C21   S    
C1    C8    S    
O9    C32   S    
C19   C20   S    
C12   O4    A    
C29   H16   S    
C7    C8    A    
C33   H29   S    
O4    Zn2   S    
C26   C27   A    
O6    Zn2   S    
C32   H28   S    
C12   O3    A    
C5    C6    A    
C10   O9    S    
C1    O2    A    
C29   H17   S    
N4    C30   S    
C20   N4    S    
C31   H25   S    
C3    C12   S    
C25   H9    S    
N2    Zn1   S    
C6    C28   A    
C27   H11   S    
C8    C9    A    
C32   C33   S    
C9    C10   A    
C4    H1    S    
O3    Zn1   S    
C7    C15   S    
C30   H22   S    
O1    Zn1   S    
C13   C14   S    
C21   N5    S    
C31   H24   S    
C17   H5    S    
C14   H2    S    
C20   N3    S    
O8    Zn2   S    
C33   H30   S    
C32   H27   S    
N5    H23   S    
C15   H4    S    
C24   C25   A    
C26   H10   S    
C29   H18   S    
C25   C26   A    
N5    C31   S    
C31   H26   S    
C17   N1    A    
C18   N2    A    
N1    Zn2   S    
C23   O7    A    
O2    Zn2   S    
C17   C18   A    
C24   H8    S    
C14   H14   S    
C18   H6    S    
C16   N1    A    
C22   O5    A    
N3    C29   S    
C2    C24   A    
C3    C4    A    
C19   N2    A    
C33   H31   S    
C4    C5    A    
C15   H3    S    
C21   H7    S    
C11   C22   S    
C9    H13   S    
C22   O6    A    
C2    C3    A    
C11   C13   A    
C1    O1    A    
C23   O8    A    
C16   C19   A    
O5    Zn1   S    
C6    C23   S    
N4    H19   S    
C10   C11   A    
C30   H20   S    
C7    C13   A    
C20   C21   S    
C5    H12   S    
C27   C28   A    
C14   C15   S    
C2    C28   A    
O7    Zn1   S    
