data_mof_unit_52188.cif
_audit_creation_date              2012-12-10T17:50:14-0500
_audit_creation_method            fapswitch 2.2
_symmetry_space_group_name_H-M    P1
_symmetry_Int_Tables_number       1
_space_group_crystal_system       triclinic
_cell_length_a                    10.611237
_cell_length_b                    14.703036
_cell_length_c                    14.731753
_cell_angle_alpha                 64.979323
_cell_angle_beta                  103.355217
_cell_angle_gamma                 102.903982
_cell_volume                      2005.71687729

loop_
_atom_site_label
_atom_site_type_symbol
_atom_type_description
_atom_site_fract_x
_atom_site_fract_y
_atom_site_fract_z
_atom_type_partial_charge
C1    C     C_R   0.480186 0.119786 0.312285 0.797528
C2    C     C_R   0.523801 0.880198 0.687721 0.802634
C3    C     C_R   0.504028 0.292287 0.179172 -0.241619
C4    C     C_R   0.532573 0.707988 0.821163 -0.255292
C5    C     C_R   0.520481 0.360843 0.080165 0.085586
C6    C     C_R   0.557129 0.639912 0.922463 0.085194
C7    C     C_R   0.503471 0.321385 0.004731 0.161055
C8    C     C_R   0.589433 0.679439 0.998928 0.165287
C9    C     C_R   0.549844 0.467390 0.053796 0.063141
C10   C     C_R   0.545502 0.533558 0.949857 0.064682
C11   C     C_R   0.531549 0.491284 0.877102 -0.224083
C12   C     C_R   0.585545 0.509880 0.127903 -0.224542
C13   C     C_R   0.512302 0.387092 0.904551 -0.228417
C14   C     C_R   0.606316 0.614021 0.100609 -0.229623
C15   C     C_R   0.721507 0.286370 0.665590 -0.320869
C16   C     C_R   0.276829 0.712725 0.335841 -0.317855
C17   C     C_R   0.686071 0.204132 0.637032 0.088414
C18   C     C_R   0.313254 0.795500 0.363532 0.088479
C19   C     C_R   0.517157 0.284548 0.510212 0.005194
C20   C     C_R   0.482539 0.715291 0.490117 0.007113
C21   C     C_R   0.548299 0.371020 0.535534 -0.023230
C22   C     C_R   0.450277 0.628216 0.465769 -0.023361
C23   C     C_R   0.259671 0.000197 0.500359 0.843873
C24   C     C_R   0.740256 0.999898 0.499484 0.842280
C25   C     C_R   0.653020 0.369872 0.615384 0.164183
C26   C     C_R   0.344992 0.629061 0.386371 0.164086
C27   C     C_R   0.479841 0.457521 0.485395 0.076556
C28   C     C_R   0.518219 0.541442 0.516362 0.079486
C29   C     C_R   0.622887 0.535620 0.596870 -0.244331
C30   C     C_R   0.374397 0.462942 0.405509 -0.238601
C31   C     C_R   0.688577 0.451638 0.645023 -0.201474
C32   C     C_R   0.308498 0.546806 0.357513 -0.193323
C33   C     C_3   0.018467 0.021271 0.404367 -0.322412
C34   C     C_3   0.981254 0.979082 0.595139 -0.321945
C35   C     C_3   0.967087 0.090025 0.438336 0.535861
C36   C     C_3   0.032520 0.910274 0.561190 0.536277
C37   C     C_3   0.876637 0.999070 0.499498 -0.093203
C38   C     C_3   0.123156 0.001190 0.500082 -0.095607
C39   C     C_3   0.926740 0.928562 0.466637 -0.275995
C40   C     C_3   0.072958 0.071812 0.532849 -0.276169
C41   C     C_R   0.480934 0.187541 0.205148 -0.045915
C42   C     C_R   0.545852 0.812456 0.795265 -0.047460
C43   C     C_R   0.477603 0.216293 0.030382 -0.200806
C44   C     C_R   0.603610 0.784274 0.972875 -0.200780
C45   C     C_R   0.467488 0.149657 0.130226 -0.194097
C46   C     C_R   0.582793 0.850504 0.871566 -0.198087
Cu1   Cu    Cu3+1 0.465750 0.918270 0.475680 0.948209
Cu2   Cu    Cu3+1 0.534250 0.081730 0.524320 0.948207
H1    H     H_    0.561814 0.721981 0.548452 0.114461
H2    H     H_    0.438546 0.278195 0.451343 0.115506
H3    H     H_    0.261090 0.860310 0.324379 0.122327
H4    H     H_    0.738309 0.139355 0.676095 0.121884
H5    H     H_    0.801735 0.284554 0.726846 0.137907
H6    H     H_    0.196056 0.714233 0.275027 0.137374
H7    H     H_    0.656752 0.594888 0.625099 0.121958
H8    H     H_    0.339741 0.403290 0.377881 0.123740
H9    H     H_    0.037334 0.039639 0.327020 0.142741
H10   H     H_    0.962331 0.960771 0.672461 0.143710
H11   H     H_    0.864630 0.869984 0.440595 0.155654
H12   H     H_    0.135009 0.130501 0.558755 0.156302
H13   H     H_    0.502236 0.357824 0.846515 0.151722
H14   H     H_    0.633311 0.643443 0.159728 0.147006
H15   H     H_    0.499092 0.681023 0.760990 0.155222
H16   H     H_    0.506335 0.318782 0.237447 0.147566
H17   H     H_    0.594353 0.931158 0.853114 0.152780
H18   H     H_    0.450124 0.068783 0.148814 0.153926
H19   H     H_    0.465877 0.185666 0.973218 0.134099
H20   H     H_    0.629879 0.814953 0.031004 0.133268
H21   H     H_    0.539074 0.536829 0.798384 0.142698
H22   H     H_    0.602196 0.464687 0.208128 0.150108
H23   H     H_    0.768312 0.450713 0.706442 0.141854
H24   H     H_    0.228009 0.547337 0.296692 0.140252
N1    N     N_R   0.585750 0.204560 0.560800 -0.176001
N2    N     N_R   0.414250 0.795440 0.439200 -0.176295
O1    O     O_R   0.454850 0.022100 0.338110 -0.596337
O2    O     O_R   0.545150 0.977900 0.661890 -0.595918
O3    O     O_R   0.512700 0.160150 0.379180 -0.584081
O4    O     O_R   0.487300 0.839850 0.620820 -0.583835
O5    O     O_R   0.287930 0.931000 0.479440 -0.557852
O6    O     O_R   0.712070 0.069000 0.520560 -0.558504
O7    O     O_R   0.345780 0.069050 0.520520 -0.601841
O8    O     O_R   0.654220 0.930950 0.479480 -0.603466
O9    O     O_3   0.921080 0.183016 0.374499 -0.570547
C47   C     C_3   0.024892 0.254407 0.329416 0.063317
H25   H     H_    0.064858 0.228319 0.282407 0.132756
H26   H     H_    0.104741 0.268415 0.387990 0.134095
C48   C     C_3   0.974312 0.354339 0.260793 -0.765170
H27   H     H_    0.935592 0.383318 0.305833 0.250399
H28   H     H_    0.055133 0.411184 0.224517 0.188616
H29   H     H_    0.894905 0.343369 0.200737 0.253658
O10   O     O_3   0.077132 0.816787 0.625228 -0.570686
C49   C     C_3   0.972162 0.746299 0.669667 0.063494
H30   H     H_    0.892078 0.733286 0.610734 0.134204
H31   H     H_    0.932872 0.772698 0.716766 0.134421
C50   C     C_3   0.020438 0.645457 0.737982 -0.765969
H32   H     H_    0.099823 0.655268 0.798548 0.252222
H33   H     H_    0.938563 0.589467 0.773606 0.189158
H34   H     H_    0.058384 0.616126 0.692854 0.251871

loop_
_geom_bond_atom_site_label_1
_geom_bond_atom_site_label_2
_ccdc_geom_bond_type
C25   C31   A    
C38   C40   S    
C48   H27   S    
C26   C32   A    
C40   H12   S    
C34   C37   S    
C1    O3    A    
Cu2   O2    S    
C50   H32   S    
C47   C48   S    
Cu1   O5    S    
C50   H34   S    
C32   H24   S    
C3    H16   S    
C4    H15   S    
C33   C39   S    
C34   C40   S    
C15   H5    S    
C28   C29   A    
C35   C37   S    
C47   H26   S    
C15   C25   A    
C14   H14   S    
Cu2   O7    S    
C42   C46   A    
Cu1   O8    S    
C24   O8    A    
C12   H22   S    
C24   O6    A    
Cu1   Cu2   S    
C33   H9    S    
C7    C43   A    
C9    C10   A    
C31   H23   S    
C21   C27   A    
C18   N2    A    
C22   C28   A    
C27   C30   A    
C17   N1    A    
C17   H4    S    
C44   C46   A    
C18   H3    S    
C16   C26   A    
C37   C39   S    
C1    O1    A    
C19   N1    A    
C47   H25   S    
C46   H17   S    
C4    C6    A    
O10   C49   S    
C5    C7    A    
C35   O9    S    
C6    C8    A    
C29   H7    S    
C30   H8    S    
C49   C50   S    
Cu2   O3    S    
C43   H19   S    
C5    C9    A    
C20   H1    S    
C2    O4    A    
O9    C47   S    
C39   H11   S    
C49   H31   S    
C24   C37   S    
C20   N2    A    
C43   C45   A    
C36   O10   S    
C1    C41   S    
C20   C22   A    
C48   H28   S    
C44   H20   S    
C45   H18   S    
C2    O2    A    
C15   C17   A    
C21   C25   A    
C50   H33   S    
C3    C41   A    
C8    C14   A    
C23   O7    A    
C19   C21   A    
Cu2   N1    S    
C36   C39   S    
C8    C44   A    
Cu1   N2    S    
C12   C14   A    
C3    C5    A    
C6    C10   A    
C11   H21   S    
C23   C38   S    
C33   C38   S    
Cu2   O6    S    
C36   C38   S    
C35   C40   S    
Cu1   O1    S    
C29   C31   A    
C30   C32   A    
C11   C13   A    
C19   H2    S    
C4    C42   A    
C2    C42   S    
C49   H30   S    
C33   C35   S    
C34   C36   S    
C9    C12   A    
C16   H6    S    
C10   C11   A    
C7    C13   A    
C13   H13   S    
C16   C18   A    
C22   C26   A    
C48   H29   S    
C27   C28   A    
C34   H10   S    
C41   C45   A    
Cu1   O4    S    
C23   O5    A    
