data_mof_unit_8958.cif
_audit_creation_date              2012-12-10T18:56:28-0500
_audit_creation_method            fapswitch 2.2
_symmetry_space_group_name_H-M    P1
_symmetry_Int_Tables_number       1
_space_group_crystal_system       triclinic
_cell_length_a                    10.818834
_cell_length_b                    9.792017
_cell_length_c                    19.342032
_cell_angle_alpha                 88.138233
_cell_angle_beta                  90.775459
_cell_angle_gamma                 88.97675
_cell_volume                      2047.44768258

loop_
_atom_site_label
_atom_site_type_symbol
_atom_type_description
_atom_site_fract_x
_atom_site_fract_y
_atom_site_fract_z
_atom_type_partial_charge
C1    C     C_R   0.871766 0.498976 0.490902 -0.399691
C2    C     C_R   0.740150 0.499242 0.498456 1.047630
C3    C     C_R   0.500722 0.501777 0.365190 1.022336
C4    C     C_R   0.494498 0.497225 0.634980 0.937562
C5    C     C_R   0.064171 0.380700 0.488503 0.339502
C6    C     C_R   0.929379 0.616526 0.463506 0.308150
C7    C     C_R   0.943261 0.381835 0.508833 0.225920
C8    C     C_R   0.054639 0.630458 0.478640 0.296782
C9    C     C_R   0.541726 0.380987 0.752352 0.376617
C10   C     C_R   0.446575 0.611785 0.249525 0.339124
C11   C     C_R   0.590546 0.414901 0.254783 0.426168
C12   C     C_R   0.125871 0.506416 0.487630 -0.411904
C13   C     C_R   0.442682 0.607059 0.746593 0.337537
C14   C     C_R   0.577960 0.403242 0.820367 -0.203523
C15   C     C_R   0.474747 0.633163 0.180229 -0.217434
C16   C     C_R   0.604043 0.430031 0.183461 -0.266795
C17   C     C_R   0.470298 0.621211 0.816384 -0.277685
C18   C     C_R   0.539709 0.521100 0.852623 -0.023122
C19   C     C_R   0.549255 0.540127 0.146959 -0.013808
C20   C     C_R   0.564508 0.067499 0.549157 0.095812
C21   C     C_R   0.439871 0.932229 0.449246 0.011732
C22   C     C_R   0.440509 0.076106 0.448860 0.076780
C23   C     C_R   0.638539 0.601743 0.960534 0.098502
C24   C     C_R   0.564924 0.923450 0.549241 0.048558
C25   C     C_R   0.489375 0.492140 0.711688 -0.313466
C26   C     C_R   0.510373 0.507154 0.289257 -0.330520
C27   C     C_3   0.733267 0.677682 0.916249 -0.370143
C28   C     C_3   0.855915 0.598625 0.913353 -0.805323
C29   C     C_3   0.337226 0.422260 0.079893 -0.386696
C30   C     C_3   0.229680 0.525897 0.074687 -0.797606
C31   C     C_3   0.743437 0.679457 0.072839 -0.373614
C32   C     C_3   0.842015 0.581659 0.105004 -0.773158
C33   C     C_3   0.359887 0.364660 0.930732 -0.395957
C34   C     C_R   0.448803 0.472269 0.038485 0.113898
C35   C     C_3   0.398780 0.213925 0.939446 -0.762435
C36   C     C_R   0.642312 0.604404 0.033822 0.105499
C37   C     C_R   0.452587 0.457023 0.966423 0.118626
C38   C     C_R   0.547041 0.539878 0.071546 0.003305
C39   C     C_R   0.545364 0.525320 0.928046 -0.003311
C40   C     C_R   0.259124 0.502202 0.496565 1.036588
H1    H     H_    0.617419 0.119010 0.587282 0.239391
H2    H     H_    0.721851 0.706544 0.317479 0.376977
H3    H     H_    0.848986 0.380616 0.648118 0.341167
H4    H     H_    0.229616 0.908856 0.557622 0.414133
H5    H     H_    0.345270 0.207962 0.692715 0.377498
H6    H     H_    0.215196 0.554578 0.336924 0.371059
H7    H     H_    0.784183 0.251117 0.389982 0.420175
H8    H     H_    0.452255 0.885792 0.697294 0.379094
H9    H     H_    0.903752 0.594779 0.964323 0.261267
H10   H     H_    0.840117 0.492868 0.896535 0.262226
H11   H     H_    0.917365 0.650215 0.875545 0.268981
H12   H     H_    0.392232 0.880428 0.409220 0.231425
H13   H     H_    0.700353 0.695698 0.862208 0.228317
H14   H     H_    0.747183 0.782859 0.933867 0.200403
H15   H     H_    0.195596 0.540772 0.020624 0.240602
H16   H     H_    0.152174 0.489043 0.106951 0.268529
H17   H     H_    0.258433 0.626402 0.093263 0.281001
H18   H     H_    0.304728 0.322318 0.062929 0.216010
H19   H     H_    0.359739 0.402118 0.135343 0.228353
H20   H     H_    0.816663 0.548806 0.158193 0.281816
H21   H     H_    0.855318 0.489983 0.073403 0.251291
H22   H     H_    0.931623 0.634742 0.108823 0.261071
H23   H     H_    0.394029 0.133663 0.407545 0.199920
H24   H     H_    0.791168 0.755342 0.039927 0.210781
H25   H     H_    0.701725 0.741312 0.113969 0.221970
H26   H     H_    0.494926 0.197788 0.922188 0.275580
H27   H     H_    0.394397 0.177184 0.994088 0.235695
H28   H     H_    0.336328 0.150808 0.908156 0.279244
H29   H     H_    0.265165 0.378920 0.950358 0.212236
H30   H     H_    0.348767 0.389594 0.874733 0.232924
H31   H     H_    0.617152 0.865192 0.588494 0.152823
H32   H     H_    0.623641 0.322103 0.850929 0.187684
H33   H     H_    0.428678 0.714867 0.150177 0.187324
H34   H     H_    0.657369 0.355855 0.155432 0.201999
H35   H     H_    0.432507 0.706814 0.843859 0.201452
H36   H     H_    0.202021 0.210839 0.345760 0.393106
N1    N     N_R   0.500000 0.857200 0.500000 -0.107340
N2    N     N_R   0.500000 0.142800 0.500000 -0.118962
O1    O     O_R   0.316770 0.614620 0.500000 -0.534005
O2    O     O_2   0.013015 0.155016 0.418441 -0.184894
O3    O     O_3   0.209403 0.283426 0.379993 -0.607247
O4    O     O_2   0.782965 0.839408 0.435683 -0.228207
O5    O     O_2   0.947991 0.793171 0.353710 -0.171403
O6    O     O_3   0.756790 0.639414 0.352193 -0.550938
O7    O     O_2   0.827001 0.143729 0.523691 -0.216818
O8    O     O_2   0.002847 0.178598 0.601353 -0.207924
O9    O     O_3   0.799270 0.312028 0.624171 -0.531528
O10   O     O_2   0.166729 0.852198 0.424603 -0.195506
O11   O     O_2   0.000097 0.892982 0.505367 -0.157596
O12   O     O_R   0.683230 0.385380 0.500000 -0.562914
O13   O     O_3   0.208603 0.811082 0.556103 -0.440592
O14   O     O_2   0.657775 0.159078 0.706168 -0.235365
O15   O     O_2   0.504807 0.121666 0.794475 -0.336145
O16   O     O_3   0.423378 0.178066 0.671316 -0.521961
O17   O     O_2   0.354295 0.850025 0.289247 -0.260796
O18   O     O_2   0.217211 0.707339 0.223657 -0.287624
O19   O     O_3   0.259559 0.636593 0.351570 -0.524810
O20   O     O_2   0.586770 0.170153 0.320302 -0.297580
O21   O     O_2   0.765396 0.215652 0.247696 -0.262354
O22   O     O_3   0.754138 0.334879 0.364596 -0.510669
O23   O     O_R   0.683230 0.614620 0.500000 -0.601568
O24   O     O_2   0.246348 0.637269 0.662874 -0.246758
O25   O     O_2   0.248879 0.777820 0.764924 -0.269869
O26   O     O_3   0.393391 0.845475 0.664383 -0.495122
O27   O     O_R   0.316770 0.385380 0.500000 -0.574380
O28   O     O_R   0.500030 0.614710 0.398180 -0.581701
O29   O     O_R   0.499970 0.385290 0.601820 -0.563369
O30   O     O_R   0.499970 0.614710 0.601820 -0.593123
O31   O     O_R   0.500030 0.385290 0.398180 -0.581805
O32   O     O_2   0.192213 0.144158 0.496950 -0.253893
S1    S     S_3+6 0.119603 0.234008 0.446270 0.113839
S2    S     S_3+6 0.854359 0.728826 0.400668 0.138090
S3    S     S_3+6 0.893914 0.247462 0.564863 0.108814
S4    S     S_3+6 0.107912 0.800634 0.489944 0.167278
S5    S     S_3+6 0.533955 0.206372 0.730805 0.016494
S6    S     S_3+6 0.317044 0.705279 0.278534 0.058681
S7    S     S_3+6 0.675059 0.278014 0.296521 0.075025
S8    S     S_3+6 0.327422 0.717721 0.709607 0.080366
Zn1   Zn    Zn3+2 0.500000 0.653120 0.500000 1.106555
Zn2   Zn    Zn3+2 0.500000 0.346880 0.500000 1.115662

loop_
_geom_bond_atom_site_label_1
_geom_bond_atom_site_label_2
_ccdc_geom_bond_type
O28   Zn1   S    
C34   C37   A    
C14   C18   A    
C9    C14   A    
C4    C25   S    
C27   H14   S    
C9    C25   A    
C15   C19   A    
C4    O30   A    
O6    S2    S    
O8    S3    D    
C16   H34   S    
C32   H21   S    
C10   C15   A    
O15   S5    D    
C28   H11   S    
H8    O26   S    
C30   H17   S    
C1    C2    S    
C11   C16   A    
C2    O12   A    
O32   S1    D    
C1    C7    A    
C22   H23   S    
C28   H10   S    
C29   H19   S    
O1    Zn1   S    
O27   Zn2   S    
C23   C27   S    
O24   S8    D    
C33   H29   S    
C10   C26   A    
O3    S1    S    
C21   C22   A    
O30   Zn1   S    
C13   C25   A    
C6    S2    S    
C20   H1    S    
H5    O16   S    
C13   S8    S    
O26   S8    S    
C3    O28   A    
C4    O29   A    
C1    C6    A    
O23   Zn1   S    
C20   C24   A    
H2    O6    S    
C22   N2    A    
C5    C12   A    
C2    O23   A    
C5    C7    A    
C6    C8    A    
C5    S1    S    
C11   C26   A    
C30   H16   S    
C29   C34   S    
C33   C37   S    
H7    O22   S    
C9    S5    S    
C12   C40   S    
N2    Zn2   S    
C18   C39   S    
O5    S2    D    
C29   C30   S    
C19   C38   S    
O21   S7    D    
C28   H9    S    
C31   C32   S    
C35   H27   S    
O17   S6    D    
C8    C12   A    
C17   C18   A    
C40   O1    A    
O19   S6    S    
H4    O13   S    
C33   H30   S    
C15   H33   S    
H6    O19   S    
O12   Zn2   S    
O25   S8    D    
C32   H20   S    
C11   S7    S    
O29   Zn2   S    
C10   S6    S    
O20   S7    D    
C31   H25   S    
O11   S4    D    
C34   C38   A    
C14   H32   S    
C31   H24   S    
C3    C26   S    
N1    Zn1   S    
H36   O3    S    
O16   S5    S    
C27   H13   S    
C8    S4    S    
C30   H15   S    
C35   H26   S    
O13   S4    S    
C20   N2    A    
H3    O9    S    
C7    S3    S    
O7    S3    D    
C32   H22   S    
C37   C39   A    
C35   H28   S    
C3    O31   A    
C16   C19   A    
C23   C39   A    
O2    S1    D    
C36   C38   A    
C33   C35   S    
O10   S4    D    
O14   S5    D    
O9    S3    S    
C13   C17   A    
C24   N1    A    
C29   H18   S    
C24   H31   S    
C23   C36   A    
C21   N1    A    
C27   C28   S    
C17   H35   S    
C31   C36   S    
O18   S6    D    
O22   S7    S    
C21   H12   S    
O31   Zn2   S    
O4    S2    D    
C40   O27   A    
