data_mof_unit_6158.cif
_audit_creation_date              2012-12-10T18:47:49-0500
_audit_creation_method            fapswitch 2.2
_symmetry_space_group_name_H-M    P1
_symmetry_Int_Tables_number       1
_space_group_crystal_system       triclinic
_cell_length_a                    9.846466
_cell_length_b                    10.719974
_cell_length_c                    15.521811
_cell_angle_alpha                 90.086861
_cell_angle_beta                  67.850089
_cell_angle_gamma                 90.011667
_cell_volume                      1517.4731241

loop_
_atom_site_label
_atom_site_type_symbol
_atom_type_description
_atom_site_fract_x
_atom_site_fract_y
_atom_site_fract_z
_atom_type_partial_charge
C1    C     C_R   0.499994 0.740120 0.500100 0.869082
C2    C     C_R   0.368523 0.936090 0.516969 -0.194217
C3    C     C_R   0.499977 0.127421 0.499954 -0.015298
C4    C     C_R   0.499962 0.872565 0.500165 -0.013873
C5    C     C_R   0.963442 0.424872 0.440406 -0.084607
C6    C     C_R   0.036521 0.575058 0.559657 -0.087468
C7    C     C_R   0.107247 0.424838 0.440467 -0.070494
C8    C     C_R   0.892703 0.575074 0.559610 -0.074407
C9    C     C_R   0.408594 0.501392 0.675998 0.873661
C10   C     C_R   0.591524 0.501842 0.324030 0.873393
C11   C     C_R   0.353941 0.521141 0.776235 -0.056831
C12   C     C_R   0.499983 0.259877 0.499940 0.869225
C13   C     C_R   0.649199 0.511372 0.222918 -0.058591
C14   C     C_R   0.184125 0.617009 0.916420 -0.223469
C15   C     C_R   0.841811 0.483714 0.071906 -0.217929
C16   C     C_R   0.218084 0.577238 0.824989 -0.210522
C17   C     C_R   0.795292 0.483158 0.168488 -0.201819
C18   C     C_R   0.452734 0.502365 0.819634 -0.260552
C19   C     C_R   0.552852 0.547124 0.180801 -0.265654
C20   C     C_R   0.427319 0.552172 0.907287 0.095918
C21   C     C_R   0.597000 0.549673 0.084214 0.095647
C22   C     C_R   0.288004 0.604979 0.957923 0.176956
C23   C     C_R   0.356545 0.630604 0.090509 -0.232853
C24   C     C_R   0.742818 0.513512 0.029472 0.177969
C25   C     C_R   0.536361 0.548352 0.946058 0.070321
C26   C     C_R   0.496238 0.577040 0.041366 0.067456
C27   C     C_R   0.684618 0.518909 0.892235 -0.232335
C28   C     C_R   0.255199 0.645943 0.048680 -0.242227
C29   C     C_R   0.786478 0.503726 0.933442 -0.247518
C30   C     C_R   0.631388 0.936094 0.483317 -0.194240
C31   C     C_R   0.368541 0.063889 0.516832 -0.194857
C32   C     C_R   0.631405 0.063891 0.483187 -0.194389
H1    H     H_    0.149859 0.688094 0.088097 0.152095
H2    H     H_    0.725852 0.509974 0.817493 0.147474
H3    H     H_    0.733897 0.887462 0.469702 0.156869
H4    H     H_    0.266036 0.112523 0.530441 0.157294
H5    H     H_    0.937230 0.364821 0.392760 0.120373
H6    H     H_    0.062693 0.635030 0.607365 0.119856
H7    H     H_    0.189932 0.364648 0.392875 0.130706
H8    H     H_    0.809966 0.635149 0.607293 0.130763
H9    H     H_    0.733934 0.112522 0.469472 0.153900
H10   H     H_    0.265995 0.887452 0.530689 0.153894
H11   H     H_    0.898349 0.479125 0.890338 0.151004
H12   H     H_    0.440647 0.565906 0.224962 0.158838
H13   H     H_    0.551215 0.450051 0.782582 0.154846
H14   H     H_    0.871569 0.456366 0.200409 0.155366
H15   H     H_    0.140963 0.593980 0.791667 0.150423
H16   H     H_    0.078730 0.660361 0.953660 0.147163
H17   H     H_    0.953379 0.456234 0.030604 0.151300
H18   H     H_    0.324316 0.665692 0.160558 0.149059
N1    N     N_R   0.142780 0.500030 0.500020 -0.076652
N2    N     N_R   0.857220 0.499970 0.499980 -0.076415
O1    O     O_R   0.385370 0.683250 0.500010 -0.625104
O2    O     O_R   0.614630 0.316750 0.499990 -0.623942
O3    O     O_R   0.614700 0.683220 0.500000 -0.623684
O4    O     O_R   0.385300 0.316780 0.500000 -0.623442
O5    O     O_R   0.319830 0.500020 0.632250 -0.617060
O6    O     O_R   0.680170 0.499980 0.367750 -0.617101
O7    O     O_R   0.549160 0.499990 0.632240 -0.616426
O8    O     O_R   0.450840 0.500010 0.367760 -0.618789
Zn1   Zn    Zn3+2 0.346870 0.500020 0.500000 0.940267
Zn2   Zn    Zn3+2 0.653130 0.499980 0.500000 0.941642

loop_
_geom_bond_atom_site_label_1
_geom_bond_atom_site_label_2
_ccdc_geom_bond_type
O6    Zn2   S    
C2    C4    A    
C21   C26   A    
C6    H6    S    
C11   C18   A    
O5    Zn1   S    
C5    H5    S    
C6    N1    A    
C27   C29   A    
C8    H8    S    
C11   C16   A    
C8    N2    A    
C9    O7    A    
C10   O8    A    
N1    Zn1   S    
C13   C17   A    
C7    H7    S    
C32   H9    S    
C1    C4    S    
C14   C22   A    
C1    O3    A    
C17   H14   S    
C7    N1    A    
C18   H13   S    
C5    N2    A    
C22   C28   A    
C23   C28   A    
C29   H11   S    
C3    C31   A    
C9    C11   S    
C12   O4    A    
C30   H3    S    
C2    H10   S    
C16   H15   S    
C15   C24   A    
C10   O6    A    
C20   C22   A    
C28   H1    S    
C18   C20   A    
C15   H17   S    
C27   H2    S    
C3    C32   A    
C14   C16   A    
C21   C24   A    
C4    C30   A    
C25   C27   A    
C20   C25   A    
C13   C19   A    
C30   C32   A    
O3    Zn2   S    
C24   C29   A    
C19   H12   S    
C9    O5    A    
C5    C7    A    
C23   C26   A    
C15   C17   A    
C14   H16   S    
C1    O1    A    
O4    Zn1   S    
C2    C31   A    
C23   H18   S    
C6    C8    A    
C3    C12   S    
O2    Zn2   S    
C19   C21   A    
C25   C26   A    
C31   H4    S    
O1    Zn1   S    
N2    Zn2   S    
C12   O2    A    
O8    Zn1   S    
O7    Zn2   S    
C10   C13   S    
