data_mof_unit_42925.cif
_audit_creation_date              2012-12-11T16:05:07-0500
_audit_creation_method            fapswitch 2.2
_symmetry_space_group_name_H-M    P1
_symmetry_Int_Tables_number       1
_space_group_crystal_system       triclinic
_cell_length_a                    10.691492
_cell_length_b                    10.618129
_cell_length_c                    16.894577
_cell_angle_alpha                 98.57169
_cell_angle_beta                  98.744423
_cell_angle_gamma                 61.127877
_cell_volume                      1653.66031228

loop_
_atom_site_label
_atom_site_type_symbol
_atom_type_description
_atom_site_fract_x
_atom_site_fract_y
_atom_site_fract_z
_atom_type_partial_charge
C1    C     C_R   0.353904 0.776240 0.399207 0.538344
C2    C     C_3   0.274442 0.753084 0.250262 -0.109779
C3    C     C_3   0.344753 0.814932 0.319906 0.063736
C4    C     C_R   0.404936 0.373805 0.356869 0.553408
C5    C     C_3   0.474078 0.768489 0.272572 -0.125272
C6    C     C_3   0.395838 0.918699 0.239659 -0.118643
C7    C     C_3   0.267849 0.963601 0.288991 -0.146849
C8    C     C_3   0.196600 0.902667 0.218750 -0.108400
C9    C     C_3   0.325212 0.856271 0.170571 0.059950
C10   C     C_3   0.433374 0.238764 0.768338 -0.094515
C11   C     C_3   0.365482 0.386376 0.734240 -0.104054
C12   C     C_3   0.695971 0.381438 0.252352 -0.111223
C13   C     C_3   0.323366 0.318856 0.654889 0.049412
C14   C     C_3   0.390792 0.171538 0.688697 -0.113321
C15   C     C_3   0.244197 0.213431 0.717897 -0.154233
C16   C     C_R   0.777543 0.376390 0.402106 0.536718
C17   C     C_3   0.176802 0.361802 0.682415 -0.130597
C18   C     C_3   0.219233 0.428442 0.763188 -0.103540
C19   C     C_3   0.287582 0.280725 0.796887 0.046637
C20   C     C_1   0.846595 0.328128 0.705779 -0.047993
C21   C     C_1   0.892915 0.294876 0.773146 -0.047521
C22   C     C_1   0.338325 0.811854 0.709783 -0.048519
C23   C     C_3   0.816333 0.350115 0.321209 0.050265
C24   C     C_1   0.313475 0.838880 0.778608 -0.047192
C25   C     C_R   0.891208 0.310478 0.090269 0.539422
C26   C     C_R   0.321673 0.302575 0.119362 0.556434
C27   C     C_R   0.295003 0.891017 0.088549 0.550408
C28   C     C_R   0.356520 0.771496 0.627156 0.545188
C29   C     C_R   0.942568 0.275694 0.855972 0.538959
C30   C     C_R   0.277693 0.252567 0.877093 0.546020
C31   C     C_R   0.280228 0.884468 0.859136 0.535881
C32   C     C_R   0.364650 0.342859 0.582824 0.551900
C33   C     C_R   0.778984 0.376855 0.628702 0.544840
C34   C     C_3   0.914586 0.207577 0.277596 -0.147358
C35   C     C_1   0.372175 0.360559 0.272498 -0.068356
C36   C     C_1   0.347656 0.342356 0.201514 -0.063091
C37   C     C_3   0.795738 0.238613 0.207260 -0.004814
C38   C     C_R   0.755684 0.123117 0.169559 0.021317
C39   C     C_R   0.756723 0.026340 0.218488 -0.099642
C40   C     C_R   0.734556 0.909596 0.184252 -0.118588
C41   C     C_R   0.710765 0.888466 0.100924 -0.073151
C42   C     C_R   0.705510 0.986187 0.051887 -0.060404
C43   C     C_R   0.724563 0.104886 0.086104 -0.053380
C44   C     C_3   0.973715 0.289437 0.239255 -0.113826
C45   C     C_3   0.874661 0.432689 0.284611 -0.112943
C46   C     C_3   0.755881 0.463346 0.214567 -0.148046
C47   C     C_3   0.853498 0.321071 0.169961 0.049633
C48   C     C_3   0.402394 0.707712 0.201654 -0.154252
Cr1   Cr    Cr6+3 0.608340 0.611040 0.520430 1.014041
Cr2   Cr    Cr6+3 0.287650 0.601120 0.489350 1.015950
Cr3   Cr    Cr6+3 0.604040 0.287870 0.490280 1.014027
Cr4   Cr    Cr6+3 0.054020 0.052700 0.970850 1.006900
Cr5   Cr    Cr6+3 0.059230 0.375120 0.993390 1.014877
Cr6   Cr    Cr6+3 0.374950 0.061200 0.992340 0.990884
H1    H     H_    0.581792 0.422013 0.260538 0.099681
H2    H     H_    0.149363 0.533445 0.795198 0.138967
H3    H     H_    0.974552 0.107471 0.308954 0.103192
H4    H     H_    0.087798 0.252408 0.231100 0.122312
H5    H     H_    0.907839 0.511473 0.318282 0.127856
H6    H     H_    0.696736 0.564858 0.184436 0.111306
H7    H     H_    0.222735 0.686024 0.255387 0.133234
H8    H     H_    0.452532 0.605855 0.162469 0.103371
H9    H     H_    0.586771 0.717914 0.299553 0.133080
H10   H     H_    0.777175 0.039639 0.283139 0.124309
H11   H     H_    0.737008 0.834787 0.222302 0.100898
H12   H     H_    0.445883 0.986390 0.232704 0.143500
H13   H     H_    0.694352 0.797633 0.074465 0.112363
H14   H     H_    0.683703 0.971649 0.987438 0.109130
H15   H     H_    0.713203 0.182476 0.047238 0.120565
H16   H     H_    0.217945 0.065283 0.328319 0.110718
H17   H     H_    0.082554 0.953616 0.193979 0.147426
H18   H     H_    0.415734 0.458018 0.739703 0.119568
H19   H     H_    0.539505 0.189114 0.803753 0.140621
H20   H     H_    0.460477 0.066374 0.656726 0.132824
H21   H     H_    0.193886 0.142103 0.713113 0.098528
H22   H     H_    0.072771 0.411729 0.645147 0.132767
O1    O     O_R   0.751220 0.499230 0.435170 -0.524015
O2    O     O_R   0.412990 0.180750 0.091610 -0.501789
O3    O     O_R   0.366620 0.943130 0.065760 -0.507317
O4    O     O_R   0.477220 0.727600 0.436870 -0.506283
O5    O     O_R   0.160510 0.906330 0.879210 -0.511647
O6    O     O_R   0.930190 0.179050 0.889450 -0.493327
O7    O     O_R   0.909140 0.398170 0.896710 -0.508912
O8    O     O_R   0.186190 0.363460 0.918830 -0.510268
O9    O     O_R   0.401670 0.173200 0.913310 -0.526908
O10   O     O_R   0.356120 0.936130 0.900470 -0.516668
O11   O     O_3   0.162740 0.163010 0.985530 -0.286938
O12   O     O_R   0.297880 0.469080 0.560050 -0.495516
O13   O     O_R   0.258650 0.745120 0.411470 -0.530907
O14   O     O_R   0.297070 0.467240 0.395960 -0.500161
O15   O     O_R   0.488830 0.252610 0.387790 -0.512585
O16   O     O_R   0.724400 0.302390 0.420980 -0.521773
O17   O     O_R   0.752100 0.501210 0.612190 -0.509630
O18   O     O_R   0.478040 0.729440 0.600970 -0.494659
O19   O     O_R   0.259530 0.747110 0.588490 -0.507641
O20   O     O_R   0.489720 0.254590 0.564810 -0.513392
O21   O     O_R   0.725220 0.304230 0.585080 -0.492091
O22   O     O_3   0.500010 0.500010 0.500020 -0.269423
O23   O     O_R   0.171830 0.913880 0.057510 -0.516302
O24   O     O_R   0.940690 0.186050 0.054730 -0.509844
O25   O     O_R   0.920470 0.405720 0.075010 -0.513727
O26   O     O_R   0.196690 0.370460 0.084120 -0.490141

loop_
_geom_bond_atom_site_label_1
_geom_bond_atom_site_label_2
_ccdc_geom_bond_type
Cr3   O21   S    
C15   H21   S    
C11   C18   S    
C23   C45   S    
C34   C37   S    
C41   C42   A    
C13   C32   S    
C35   C36   T    
C7    H16   S    
C7    C8    S    
C41   H13   S    
C45   C46   S    
C15   C19   S    
C39   H10   S    
C12   C23   S    
C27   O23   A    
C26   O2    A    
Cr5   O8    S    
C14   H20   S    
C29   O7    A    
C3    C7    S    
Cr6   O11   S    
C10   H19   S    
Cr2   O19   S    
C32   O12   A    
C5    H9    S    
C28   O18   A    
C16   O1    A    
C12   C37   S    
Cr2   O13   S    
Cr3   O15   S    
Cr1   O22   S    
Cr2   O14   S    
Cr5   O25   S    
C8    C9    S    
C17   H22   S    
Cr1   O18   S    
C37   C47   S    
C25   C47   S    
C44   C47   S    
Cr2   O12   S    
Cr3   O20   S    
C4    O15   A    
Cr3   O22   S    
C4    C35   S    
C43   H15   S    
C31   O10   A    
C22   C28   S    
C13   C14   S    
C42   H14   S    
C6    C9    S    
C4    O14   A    
C38   C39   A    
C5    C48   S    
Cr2   O22   S    
C34   C44   S    
C12   C46   S    
C10   C14   S    
C44   H4    S    
C39   C40   A    
Cr6   O10   S    
C11   H18   S    
C18   C19   S    
C2    C48   S    
C21   C29   S    
Cr4   O24   S    
C38   C43   A    
C1    C3    S    
C37   C38   S    
Cr3   O16   S    
C34   H3    S    
Cr5   O26   S    
C25   O24   A    
C48   H8    S    
C10   C19   S    
C23   C34   S    
C17   C18   S    
Cr5   O11   S    
C30   O9    A    
Cr4   O6    S    
C20   C33   S    
C26   C36   S    
C40   C41   A    
C32   O20   A    
C16   O16   A    
C16   C23   S    
C40   H11   S    
C28   O19   A    
C22   C24   T    
C42   C43   A    
C44   C45   S    
C9    C27   S    
Cr6   O3    S    
C15   C17   S    
C46   C47   S    
C45   H5    S    
C8    H17   S    
C1    O13   A    
C46   H6    S    
Cr4   O11   S    
C2    C8    S    
C3    C5    S    
C33   O17   A    
Cr6   O9    S    
C2    H7    S    
C6    C7    S    
C18   H2    S    
Cr4   O23   S    
C27   O3    A    
C31   O5    A    
Cr1   O4    S    
C13   C17   S    
Cr5   O7    S    
C2    C3    S    
C24   C31   S    
C29   O6    A    
C26   O26   A    
C11   C13   S    
C25   O25   A    
C5    C6    S    
Cr1   O1    S    
C33   O21   A    
C30   O8    A    
Cr4   O5    S    
C12   H1    S    
C10   C11   S    
C6    H12   S    
C20   C21   T    
C9    C48   S    
C1    O4    A    
C14   C15   S    
Cr1   O17   S    
C19   C30   S    
Cr6   O2    S    
