data_mof_unit_33794.cif
_audit_creation_date              2012-12-10T19:44:42-0500
_audit_creation_method            fapswitch 2.2
_symmetry_space_group_name_H-M    P1
_symmetry_Int_Tables_number       1
_space_group_crystal_system       triclinic
_cell_length_a                    8.587011
_cell_length_b                    15.01117
_cell_length_c                    14.166732
_cell_angle_alpha                 89.992407
_cell_angle_beta                  98.669366
_cell_angle_gamma                 89.958871
_cell_volume                      1805.24259465

loop_
_atom_site_label
_atom_site_type_symbol
_atom_type_description
_atom_site_fract_x
_atom_site_fract_y
_atom_site_fract_z
_atom_type_partial_charge
C1    C     C_R   0.499994 0.327772 0.500020 0.862719
C2    C     C_R   0.441695 0.427645 0.889830 -0.281026
C3    C     C_R   0.498036 0.500372 0.053069 0.044034
C4    C     C_R   0.499224 0.500956 0.946561 0.044421
C5    C     C_R   0.200991 0.499945 0.475051 0.976639
C6    C     C_R   0.799019 0.500002 0.524951 0.975606
C7    C     C_2   0.035938 0.499805 0.461581 -0.390768
C8    C     C_2   0.964096 0.500024 0.538436 -0.383960
C9    C     C_R   0.557149 0.094223 0.584435 -0.178522
C10   C     C_R   0.554788 0.905899 0.425577 -0.179721
C11   C     C_R   0.555754 0.186183 0.584503 -0.197329
C12   C     C_R   0.500128 0.672242 0.500025 0.860535
C13   C     C_R   0.553493 0.813943 0.425131 -0.194639
C14   C     C_R   0.500237 0.232026 0.500130 -0.023767
C15   C     C_R   0.500642 0.768011 0.500170 -0.021417
C16   C     C_R   0.445069 0.186006 0.415877 -0.189165
C17   C     C_R   0.448503 0.813978 0.575453 -0.198650
C18   C     C_R   0.444601 0.094043 0.416137 -0.178106
C19   C     C_R   0.447958 0.905935 0.575253 -0.179055
C20   C     C_R   0.501141 0.048129 0.500327 0.115686
C21   C     C_R   0.501423 0.951918 0.500428 0.116997
C22   C     C_3   0.125720 0.521825 0.017300 0.094278
C23   C     C_R   0.363107 0.474614 0.092735 0.378469
C24   C     C_3   0.980734 0.495032 0.947765 -0.797832
C25   C     C_3   0.498762 0.715427 0.942271 0.104791
C26   C     C_3   0.557288 0.793387 0.006432 -0.822016
C27   C     C_R   0.556051 0.574816 0.899920 0.363932
C28   C     C_R   0.368472 0.473546 0.192860 -0.104486
C29   C     C_R   0.557762 0.571801 0.800426 -0.111837
C30   C     C_R   0.630306 0.526629 0.215756 -0.033484
C31   C     C_R   0.442080 0.428755 0.790643 -0.033997
C32   C     C_R   0.632191 0.526556 0.116726 -0.282341
H1    H     H_    0.974051 0.499488 0.388689 0.170040
H2    H     H_    0.404431 0.941114 0.632756 0.130729
H3    H     H_    0.266037 0.452091 0.222751 0.149139
H4    H     H_    0.604810 0.627546 0.765451 0.148936
H5    H     H_    0.734080 0.547840 0.263250 0.139606
H6    H     H_    0.396488 0.372072 0.748144 0.145964
H7    H     H_    0.738939 0.546169 0.090239 0.191208
H8    H     H_    0.397972 0.369185 0.922067 0.194496
H9    H     H_    0.184230 0.577762 0.984670 0.128341
H10   H     H_    0.086650 0.545025 0.084681 0.132888
H11   H     H_    0.915553 0.441538 0.979310 0.252360
H12   H     H_    0.026046 0.500266 0.611341 0.181139
H13   H     H_    0.901999 0.553507 0.931881 0.227663
H14   H     H_    0.016162 0.470703 0.880053 0.255826
H15   H     H_    0.387701 0.690509 0.964710 0.125728
H16   H     H_    0.473842 0.739887 0.867267 0.130640
H17   H     H_    0.667099 0.820797 0.985304 0.254601
H18   H     H_    0.466419 0.846616 0.999836 0.201984
H19   H     H_    0.581479 0.771068 0.082002 0.255103
H20   H     H_    0.603130 0.059126 0.649535 0.131680
H21   H     H_    0.598524 0.941057 0.368145 0.133189
H22   H     H_    0.599942 0.221319 0.649868 0.152630
H23   H     H_    0.595554 0.778896 0.367032 0.153473
H24   H     H_    0.400483 0.221002 0.350458 0.156328
H25   H     H_    0.406292 0.778967 0.633520 0.146401
H26   H     H_    0.398875 0.058801 0.351121 0.132981
N1    N     N_R   0.500000 0.499980 0.252470 -0.108945
N2    N     N_R   0.500000 0.500020 0.747530 -0.107803
O1    O     O_R   0.500010 0.369070 0.579480 -0.632445
O2    O     O_3   0.615555 0.648531 0.951503 -0.629791
O3    O     O_R   0.499990 0.630930 0.420520 -0.620058
O4    O     O_R   0.500010 0.369060 0.420520 -0.616372
O5    O     O_R   0.499990 0.630940 0.579480 -0.634415
O6    O     O_R   0.271750 0.500000 0.560890 -0.610436
O7    O     O_R   0.728250 0.500000 0.439110 -0.621661
O8    O     O_R   0.271750 0.499990 0.401930 -0.636394
O9    O     O_R   0.728250 0.500010 0.598070 -0.619582
O10   O     O_3   0.227376 0.447780 0.034672 -0.621643
Zn1   Zn    Zn3+2 0.500000 0.500010 0.606140 0.939111
Zn2   Zn    Zn3+2 0.500000 0.499990 0.393860 0.941372

loop_
_geom_bond_atom_site_label_1
_geom_bond_atom_site_label_2
_ccdc_geom_bond_type
C31   N2    A    
C6    O9    A    
C2    C4    A    
C16   H24   S    
C31   H6    S    
C15   C17   A    
C13   C15   A    
C27   O2    S    
C27   C29   A    
C7    H1    S    
C12   O5    A    
C25   H15   S    
C9    C20   A    
C3    C23   A    
O6    Zn1   S    
C23   O10   S    
C29   N2    A    
N1    Zn2   S    
O8    Zn2   S    
C24   H14   S    
C30   N1    A    
O1    Zn1   S    
C26   H18   S    
C5    C7    S    
C7    C8    D    
O5    Zn1   S    
C26   H19   S    
O3    Zn2   S    
C30   C32   A    
C9    C11   A    
C29   H4    S    
C22   H10   S    
C9    H20   S    
C5    O8    A    
C24   H13   S    
C22   C24   S    
C11   H22   S    
C6    O7    A    
C17   C19   A    
C18   H26   S    
C10   C13   A    
C12   C15   S    
C18   C20   A    
C25   O2    S    
O4    Zn2   S    
C10   C21   A    
C32   H7    S    
C3    C32   A    
C11   C14   A    
C14   C16   A    
C28   N1    A    
C22   H9    S    
C3    C4    S    
C1    O4    A    
C2    H8    S    
C4    C27   A    
C20   C21   S    
C10   H21   S    
C12   O3    A    
C16   C18   A    
O7    Zn2   S    
C26   H17   S    
O9    Zn1   S    
C24   H11   S    
C2    C31   A    
C6    C8    S    
C1    C14   S    
N2    Zn1   S    
C19   C21   A    
C25   C26   S    
C23   C28   A    
C28   H3    S    
C25   H16   S    
C22   O10   S    
C8    H12   S    
C30   H5    S    
C17   H25   S    
C5    O6    A    
C13   H23   S    
C19   H2    S    
C1    O1    A    
