data_mof_unit_58605.cif
_audit_creation_date              2012-12-11T14:34:09-0500
_audit_creation_method            fapswitch 2.2
_symmetry_space_group_name_H-M    P1
_symmetry_Int_Tables_number       1
_space_group_crystal_system       triclinic
_cell_length_a                    13.859521
_cell_length_b                    13.988473
_cell_length_c                    27.334812
_cell_angle_alpha                 89.944592
_cell_angle_beta                  90.132849
_cell_angle_gamma                 119.671376
_cell_volume                      4604.6084858

loop_
_atom_site_label
_atom_site_type_symbol
_atom_type_description
_atom_site_fract_x
_atom_site_fract_y
_atom_site_fract_z
_atom_type_partial_charge
C1    C     C_R   0.234325 0.786780 0.568912 0.540634
C2    C     C_1   0.703300 0.861437 0.860804 -0.077189
C3    C     C_1   0.118698 0.870810 0.854316 -0.086339
C4    C     C_1   0.121342 0.245406 0.853957 -0.082272
C5    C     C_1   0.625150 0.813187 0.659612 -0.079675
C6    C     C_1   0.180427 0.813336 0.657688 -0.081439
C7    C     C_1   0.181931 0.365364 0.657475 -0.080606
C8    C     C_1   0.598862 0.795134 0.617184 -0.011817
C9    C     C_1   0.201429 0.803415 0.616046 -0.011528
C10   C     C_1   0.194750 0.397002 0.615895 -0.012138
C11   C     C_R   0.064933 0.150482 0.095976 0.578051
C12   C     C_R   0.212835 0.447075 0.568893 0.543226
C13   C     C_R   0.777692 0.884109 0.088426 0.547673
C14   C     C_R   0.116452 0.893701 0.088172 0.560575
C15   C     C_R   0.071254 0.163751 0.942936 0.534453
C16   C     C_R   0.779377 0.886973 0.950887 0.542345
C17   C     C_R   0.092107 0.927356 0.943003 0.531216
C18   C     C_R   0.618099 0.895374 0.361398 -0.132978
C19   C     C_R   0.097272 0.732391 0.362787 -0.134542
C20   C     C_R   0.264317 0.358007 0.363756 -0.135202
C21   C     C_R   0.644635 0.911070 0.311810 0.014172
C22   C     C_R   0.080665 0.743924 0.313143 0.014299
C23   C     C_R   0.552259 0.765006 0.569161 0.539854
C24   C     C_R   0.241415 0.307261 0.317661 0.013943
C25   C     C_R   0.681480 0.929184 0.210391 0.017065
C26   C     C_R   0.060607 0.760052 0.211544 0.016942
C27   C     C_R   0.200873 0.226416 0.220990 0.017020
C28   C     C_R   0.232519 0.788284 0.431796 0.547605
C29   C     C_R   0.211689 0.444601 0.431356 0.549449
C30   C     C_R   0.555433 0.767149 0.431868 0.548424
C31   C     C_R   0.653806 0.000751 0.234451 -0.137864
C32   C     C_R   0.977483 0.670916 0.237568 -0.127833
C33   C     C_R   0.303154 0.257264 0.243644 -0.123961
C34   C     C_3   0.654213 0.733742 0.791021 -0.252139
C35   C     C_R   0.635195 0.991600 0.284896 -0.130859
C36   C     C_R   0.988073 0.662201 0.288029 -0.128862
C37   C     C_R   0.323416 0.297709 0.291592 -0.128716
C38   C     C_R   0.704514 0.939604 0.160163 -0.150096
C39   C     C_R   0.050675 0.771236 0.161193 -0.135333
C40   C     C_R   0.183072 0.195563 0.171547 -0.128706
C41   C     C_R   0.729363 0.864965 0.137186 -0.003016
C42   C     C_R   0.135308 0.861467 0.136295 -0.004959
C43   C     C_R   0.082984 0.172872 0.148615 -0.008945
C44   C     C_R   0.658529 0.744841 0.364107 -0.131264
C45   C     C_3   0.253129 0.933617 0.786704 -0.250698
C46   C     C_R   0.266105 0.910689 0.361911 -0.128396
C47   C     C_R   0.076322 0.328519 0.367837 -0.130209
C48   C     C_R   0.682861 0.757748 0.314608 0.013357
C49   C     C_R   0.254320 0.920401 0.312227 0.013761
C50   C     C_R   0.052893 0.279622 0.321778 0.011751
C51   C     C_R   0.673471 0.839491 0.288029 0.063958
C52   C     C_R   0.162370 0.835895 0.287421 0.063363
C53   C     C_R   0.136330 0.270979 0.296040 0.062626
C54   C     C_R   0.708211 0.684643 0.290669 -0.126883
C55   C     C_R   0.337541 0.009634 0.286520 -0.127278
C56   C     C_3   0.055018 0.314941 0.785874 -0.255747
C57   C     C_R   0.949490 0.245760 0.299819 -0.129133
C58   C     C_R   0.720459 0.689891 0.240233 -0.127064
C59   C     C_R   0.331631 0.013503 0.235954 -0.129516
C60   C     C_R   0.930546 0.208470 0.251668 -0.122490
C61   C     C_R   0.710642 0.770269 0.213648 0.010932
C62   C     C_R   0.240558 0.930188 0.210997 0.014230
C63   C     C_R   0.013645 0.202179 0.225269 0.016605
C64   C     C_3   0.561212 0.853199 0.737858 -0.214545
C65   C     C_3   0.130294 0.717969 0.738471 -0.211955
C66   C     C_3   0.275217 0.408151 0.738572 -0.212191
C67   C     C_3   0.634634 0.720795 0.735056 -0.228033
C68   C     C_R   0.689006 0.846755 0.237375 0.065263
C69   C     C_R   0.154283 0.842020 0.236653 0.063858
C70   C     C_R   0.116360 0.231391 0.247683 0.062059
C71   C     C_R   0.725405 0.776943 0.163685 -0.122933
C72   C     C_R   0.232606 0.936278 0.160852 -0.132442
C73   C     C_R   0.997459 0.172228 0.176109 -0.129148
C74   C     C_R   0.618334 0.807780 0.386662 -0.003198
C75   C     C_R   0.193531 0.812987 0.386364 -0.003576
C76   C     C_R   0.183274 0.372855 0.388050 -0.004779
C77   C     C_3   0.764781 0.923175 0.723388 -0.137894
C78   C     C_3   0.269942 0.919870 0.731873 -0.228884
C79   C     C_3   0.068435 0.854035 0.715419 -0.133531
C80   C     C_3   0.137005 0.212874 0.715163 -0.134821
C81   C     C_3   0.785314 0.937516 0.779504 0.136265
C82   C     C_3   0.047571 0.864239 0.770368 0.130437
C83   C     C_3   0.124891 0.181481 0.770101 0.129836
C84   C     C_1   0.732096 0.872215 0.902986 -0.033469
C85   C     C_1   0.106760 0.894702 0.895268 -0.029116
C86   C     C_1   0.101168 0.210012 0.895017 -0.031588
C87   C     C_3   0.646403 0.827733 0.712557 0.033730
C88   C     C_3   0.162152 0.825511 0.709526 0.035342
C89   C     C_3   0.072047 0.348609 0.731234 -0.232050
C90   C     C_3   0.167118 0.334350 0.709253 0.036711
C91   C     C_3   0.580559 0.865048 0.794090 -0.188876
C92   C     C_3   0.115584 0.733389 0.793879 -0.184817
C93   C     C_3   0.258057 0.378393 0.793845 -0.183949
C94   C     C_3   0.680875 0.850180 0.807834 0.091414
C95   C     C_3   0.132843 0.850306 0.802787 0.086088
C96   C     C_3   0.139943 0.279700 0.802411 0.088001
Cr1   Cr    Cr6+3 0.164410 0.584450 0.499910 1.019077
Cr2   Cr    Cr6+3 0.415550 0.579960 0.499910 1.019659
Cr3   Cr    Cr6+3 0.420040 0.835590 0.499910 1.016665
Cr4   Cr    Cr6+3 0.155170 0.075460 0.019960 1.019229
Cr5   Cr    Cr6+3 0.924540 0.079710 0.019960 1.009742
Cr6   Cr    Cr6+3 0.920290 0.844830 0.019960 1.010698
H1    H     H_    0.595380 0.947180 0.806145 0.163541
H2    H     H_    0.723319 0.718683 0.800918 0.149633
H3    H     H_    0.272963 0.019253 0.793812 0.164125
H4    H     H_    0.968978 0.246638 0.791402 0.161961
H5    H     H_    0.706610 0.006802 0.139509 0.105144
H6    H     H_    0.975617 0.713473 0.142022 0.114343
H7    H     H_    0.248283 0.193425 0.150583 0.122051
H8    H     H_    0.588316 0.945252 0.379010 0.127546
H9    H     H_    0.039865 0.657730 0.381913 0.123194
H10   H     H_    0.346728 0.391104 0.379346 0.124770
H11   H     H_    0.646514 0.063614 0.214286 0.098518
H12   H     H_    0.031475 0.669653 0.806075 0.163948
H13   H     H_    0.905321 0.607253 0.218799 0.098596
H14   H     H_    0.368743 0.253590 0.223743 0.100818
H15   H     H_    0.612204 0.046550 0.302743 0.099768
H16   H     H_    0.924520 0.591252 0.307303 0.100785
H17   H     H_    0.404278 0.324473 0.307758 0.102025
H18   H     H_    0.742839 0.717639 0.146093 0.129673
H19   H     H_    0.298606 0.005549 0.141546 0.123746
H20   H     H_    0.919296 0.152001 0.158625 0.118058
H21   H     H_    0.737718 0.631272 0.221999 0.098644
H22   H     H_    0.397661 0.082042 0.216411 0.094727
H23   H     H_    0.322186 0.358317 0.806694 0.162016
H24   H     H_    0.852511 0.188569 0.234458 0.110520
H25   H     H_    0.568855 0.930594 0.722791 0.126998
H26   H     H_    0.051684 0.649162 0.723635 0.130012
H27   H     H_    0.344315 0.397241 0.724319 0.129945
H28   H     H_    0.660770 0.678653 0.383850 0.128153
H29   H     H_    0.339050 0.974785 0.380181 0.131207
H30   H     H_    0.012659 0.337910 0.386600 0.130168
H31   H     H_    0.827372 0.905929 0.706222 0.085969
H32   H     H_    0.091679 0.933105 0.696533 0.083372
H33   H     H_    0.057534 0.158444 0.695818 0.076330
H34   H     H_    0.475094 0.786125 0.730164 0.106474
H35   H     H_    0.775755 0.000580 0.706699 0.154913
H36   H     H_    0.991181 0.789615 0.697542 0.156461
H37   H     H_    0.201981 0.199479 0.697798 0.156754
H38   H     H_    0.857370 0.925764 0.788120 0.104287
H39   H     H_    0.056869 0.946802 0.776419 0.119059
H40   H     H_    0.040185 0.109848 0.775897 0.107167
H41   H     H_    0.550188 0.650452 0.727476 0.118534
H42   H     H_    0.339373 0.902031 0.727572 0.117793
H43   H     H_    0.092041 0.435837 0.727734 0.120772
H44   H     H_    0.695637 0.701140 0.718020 0.144162
H45   H     H_    0.195900 0.694807 0.733955 0.104081
H46   H     H_    0.294030 0.998362 0.712305 0.140011
H47   H     H_    0.993446 0.297163 0.710765 0.133394
H48   H     H_    0.578776 0.670136 0.810178 0.117998
H49   H     H_    0.313383 0.920455 0.808629 0.118045
H50   H     H_    0.064750 0.385356 0.808470 0.122391
H51   H     H_    0.715067 0.621359 0.310715 0.101261
H52   H     H_    0.408845 0.074480 0.305335 0.097145
H53   H     H_    0.884884 0.252384 0.319173 0.103166
H54   H     H_    0.853212 0.061828 0.824193 0.312124
H55   H     H_    0.920752 0.804150 0.814304 0.309890
H56   H     H_    0.299943 0.496413 0.733840 0.103838
H57   H     H_    0.183189 0.114244 0.814683 0.307766
H58   H     H_    0.504608 0.802198 0.813183 0.095289
H59   H     H_    0.176767 0.721474 0.815658 0.098952
H60   H     H_    0.269355 0.450815 0.815310 0.099565
O1    O     O_R   0.137150 0.468200 0.553200 -0.510773
O2    O     O_R   0.140110 0.470540 0.446010 -0.521605
O3    O     O_R   0.529460 0.669570 0.446010 -0.521407
O4    O     O_R   0.330430 0.859890 0.446010 -0.523935
O5    O     O_R   0.176710 0.690910 0.450560 -0.502156
O6    O     O_R   0.309090 0.485800 0.450560 -0.501275
O7    O     O_R   0.514200 0.823290 0.450560 -0.504082
O8    O     O_3   0.333333 0.666667 0.499990 -0.264842
O9    O     O_R   0.176750 0.985260 0.074180 -0.529553
O10   O     O_R   0.014740 0.191490 0.074180 -0.493997
O11   O     O_R   0.808510 0.823250 0.074180 -0.517319
O12   O     O_R   0.531800 0.668950 0.553200 -0.510383
O13   O     O_R   0.146100 0.172630 0.068980 -0.479021
O14   O     O_R   0.827370 0.973470 0.068980 -0.517815
O15   O     O_R   0.026530 0.853900 0.068980 -0.489039
O16   O     O_3   1.000000 0.000000 0.020040 -0.284072
O17   O     O_R   0.148270 0.170520 0.969620 -0.487350
O18   O     O_R   0.829480 0.977750 0.969620 -0.517619
O19   O     O_R   0.022250 0.851730 0.969620 -0.479948
O20   O     O_3   0.811073 0.044564 0.792978 -0.745389
O21   O     O_3   0.938171 0.783891 0.782065 -0.748093
O22   O     O_3   0.204788 0.151567 0.782439 -0.753086
O23   O     O_R   0.331050 0.862850 0.553200 -0.509239
O24   O     O_R   0.179100 0.982980 0.967000 -0.501619
O25   O     O_R   0.017020 0.196120 0.967000 -0.481397
O26   O     O_R   0.803880 0.820900 0.967000 -0.510904
O27   O     O_R   0.173970 0.688730 0.549930 -0.500965
O28   O     O_R   0.311270 0.485240 0.549930 -0.500007
O29   O     O_R   0.514760 0.826030 0.549930 -0.498822

loop_
_geom_bond_atom_site_label_1
_geom_bond_atom_site_label_2
_ccdc_geom_bond_type
C92   H59   S    
C25   C31   A    
C65   C92   S    
C64   H34   S    
C26   C32   A    
C16   O18   A    
C55   C59   A    
C72   H19   S    
C13   O14   A    
C18   C21   A    
C2    C84   T    
C21   C51   A    
Cr2   O28   S    
Cr4   O16   S    
C54   H51   S    
C13   C41   S    
C34   H48   S    
C60   H24   S    
C66   C90   S    
C29   C76   S    
C27   C33   A    
Cr6   O11   S    
C13   O11   A    
C57   H53   S    
C46   C49   A    
C34   H2    S    
C58   H21   S    
C80   H33   S    
C71   H18   S    
C60   C63   A    
C17   C85   S    
C32   C36   A    
C29   O6    A    
C33   H14   S    
C77   H35   S    
C47   C76   A    
C15   O17   A    
C80   C83   S    
C30   C74   S    
C26   C39   A    
C4    C86   T    
C44   H28   S    
C16   C84   S    
C8    C23   S    
C6    C88   S    
C20   C76   A    
Cr5   O10   S    
C7    C10   T    
C38   H5    S    
C39   C42   A    
C79   C88   S    
Cr5   O16   S    
C28   O5    A    
C4    C96   S    
C43   C73   A    
C40   C43   A    
C20   C24   A    
Cr1   O1    S    
C55   H52   S    
C11   C43   S    
C45   C78   S    
C52   C69   A    
H57   O22   S    
C65   H45   S    
C36   H16   S    
C17   O24   A    
C81   H38   S    
C78   H46   S    
C41   C71   A    
C66   H27   S    
C61   C71   A    
C58   C61   A    
C89   H47   S    
C89   H43   S    
C67   H41   S    
C11   O10   A    
C18   C74   A    
C20   H10   S    
Cr4   O9    S    
Cr6   O19   S    
C29   O2    A    
C25   C68   A    
C77   H31   S    
C81   O20   S    
C6    C9    T    
C82   H39   S    
C53   C70   A    
C23   O29   A    
C46   C75   A    
C83   H40   S    
C45   H3    S    
C47   C50   A    
C48   C51   A    
C39   H6    S    
C26   C69   A    
C50   C53   A    
C23   O12   A    
Cr2   O3    S    
C65   H26   S    
C18   H8    S    
C2    C94   S    
C19   C22   A    
C1    C9    S    
C38   C41   A    
C16   O26   A    
C46   H29   S    
Cr3   O8    S    
H54   O20   S    
C57   C60   A    
C63   C73   A    
C24   C53   A    
C49   C55   A    
C7    C90   S    
C15   O25   A    
C82   O21   S    
C92   C95   S    
C33   C37   A    
Cr1   O8    S    
C62   C69   A    
C45   H49   S    
C5    C87   S    
C48   C54   A    
C30   O7    A    
C78   H42   S    
C25   C38   A    
C5    C8    T    
C37   H17   S    
C63   C70   A    
C77   C81   S    
C27   C40   A    
C49   C52   A    
Cr4   O13   S    
C42   C72   A    
C24   C37   A    
C62   C72   A    
C44   C74   A    
C56   H4    S    
C91   H58   S    
C27   C70   A    
C10   C12   S    
C15   C86   S    
C21   C35   A    
C56   C89   S    
C93   C96   S    
C19   H9    S    
C66   C93   S    
Cr6   O16   S    
C31   C35   A    
C3    C85   T    
C35   H15   S    
C56   H50   S    
C45   C95   S    
C66   H56   S    
C12   O28   A    
C65   C88   S    
C22   C52   A    
C54   C58   A    
C78   C88   S    
C59   H22   S    
C56   C96   S    
C79   H32   S    
C59   C62   A    
C82   C95   S    
C64   C87   S    
C50   C57   A    
C67   C87   S    
C34   C94   S    
C30   O3    A    
C91   H1    S    
C14   O9    A    
C91   C94   S    
C34   C67   S    
C79   C82   S    
C40   H7    S    
Cr3   O7    S    
C28   O4    A    
C80   H37   S    
C22   C36   A    
C47   H30   S    
C11   O13   A    
C14   C42   S    
Cr4   O24   S    
Cr1   O2    S    
C1    O23   A    
Cr3   O4    S    
C19   C75   A    
Cr5   O18   S    
Cr1   O5    S    
C64   H25   S    
Cr3   O29   S    
C81   C94   S    
Cr4   O17   S    
C61   C68   A    
C93   H60   S    
Cr2   O12   S    
C83   C96   S    
Cr1   O27   S    
Cr3   O23   S    
C83   O22   S    
C51   C68   A    
C32   H13   S    
C80   C90   S    
C67   H44   S    
C93   H23   S    
C14   O15   A    
Cr2   O8    S    
C17   O19   A    
C79   H36   S    
C77   C87   S    
C73   H20   S    
Cr6   O15   S    
Cr5   O14   S    
C3    C95   S    
H55   O21   S    
C64   C91   S    
Cr6   O26   S    
C89   C90   S    
Cr5   O25   S    
C28   C75   S    
C92   H12   S    
C31   H11   S    
Cr2   O6    S    
C44   C48   A    
C12   O1    A    
C1    O27   A    
