data_mof_unit_46358.cif
_audit_creation_date              2012-12-10T17:35:33-0500
_audit_creation_method            fapswitch 2.2
_symmetry_space_group_name_H-M    P1
_symmetry_Int_Tables_number       1
_space_group_crystal_system       triclinic
_cell_length_a                    10.721041
_cell_length_b                    12.316725
_cell_length_c                    13.18783
_cell_angle_alpha                 116.660585
_cell_angle_beta                  77.461243
_cell_angle_gamma                 101.284506
_cell_volume                      1509.49272572

loop_
_atom_site_label
_atom_site_type_symbol
_atom_type_description
_atom_site_fract_x
_atom_site_fract_y
_atom_site_fract_z
_atom_type_partial_charge
C1    C     C_R   0.511180 0.854904 0.286590 0.775339
C2    C     C_3   0.123238 0.998385 0.494104 0.118800
C3    C     C_3   0.049237 0.036071 0.617847 -0.413364
C4    C     C_3   0.064384 0.868410 0.416948 -0.373746
C5    C     C_R   0.324718 0.276321 0.020993 -0.186677
C6    C     C_R   0.453215 0.228101 0.834587 -0.054963
C7    C     C_R   0.595984 0.815306 0.085189 -0.181374
C8    C     C_R   0.621092 0.736394 0.970137 -0.147667
C9    C     C_R   0.574970 0.613179 0.932376 -0.185445
C10   C     C_R   0.497714 0.566794 0.009269 0.078831
C11   C     C_R   0.459520 0.650572 0.123733 0.083529
C12   C     C_R   0.740137 0.998615 0.498081 0.756166
C13   C     C_R   0.455956 0.440238 0.976042 0.074290
C14   C     C_R   0.366824 0.401023 0.053075 0.164015
C15   C     C_R   0.318455 0.486804 0.160172 -0.241924
C16   C     C_R   0.362677 0.609848 0.194519 -0.201663
C17   C     C_R   0.501226 0.351050 0.868705 -0.256821
C18   C     C_R   0.366991 0.190170 0.911752 -0.195843
C19   C     C_R   0.518296 0.773208 0.163544 -0.099369
C20   C     C_R   0.706254 0.347285 0.329258 -0.301670
C21   C     C_R   0.325257 0.759319 0.645190 0.073600
C22   C     C_R   0.287324 0.662565 0.676631 -0.255482
C23   C     C_R   0.480717 0.145125 0.713440 0.796786
C24   C     C_R   0.352899 0.559125 0.621814 -0.195251
C25   C     C_R   0.458023 0.551206 0.534306 -0.005835
C26   C     C_R   0.493473 0.652946 0.505131 0.292511
C27   C     C_R   0.529432 0.446922 0.475011 -0.037098
C28   C     C_R   0.634251 0.447051 0.388448 0.182041
C29   C     C_R   0.667054 0.546780 0.361417 -0.291328
C30   C     C_R   0.598440 0.647222 0.418430 -0.192086
C31   C     C_R   0.502166 0.341736 0.497434 0.022266
C32   C     C_R   0.674726 0.247232 0.355705 0.073460
C33   C     C_R   0.260636 0.998700 0.497171 0.749746
C34   C     C_3   0.960599 0.092280 0.452732 -0.399076
C35   C     C_3   0.104778 0.091268 0.448892 -0.139814
C36   C     C_3   0.904644 0.033045 0.618478 -0.376528
C37   C     C_3   0.921227 0.869568 0.414916 -0.398118
C38   C     C_3   0.878652 0.998060 0.496049 0.148221
Cu1   Cu    Cu3+1 0.529690 0.098270 0.475420 0.933646
Cu2   Cu    Cu3+1 0.470310 0.901730 0.524580 0.914514
H1    H     H_    0.934235 0.185940 0.511481 0.164530
H2    H     H_    0.072464 0.802020 0.450418 0.175473
H3    H     H_    0.848826 0.965608 0.650637 0.176047
H4    H     H_    0.062227 0.973111 0.653502 0.171417
H5    H     H_    0.328443 0.095060 0.886185 0.149572
H6    H     H_    0.246188 0.458695 0.217909 0.144106
H7    H     H_    0.256383 0.245898 0.079297 0.141752
H8    H     H_    0.573361 0.374613 0.808780 0.146094
H9    H     H_    0.640157 0.909078 0.113271 0.150861
H10   H     H_    0.599053 0.557512 0.841967 0.128971
H11   H     H_    0.680162 0.770175 0.910250 0.139003
H12   H     H_    0.938041 0.071770 0.366812 0.161231
H13   H     H_    0.317094 0.672482 0.276148 0.170315
H14   H     H_    0.729893 0.169888 0.310402 0.115448
H15   H     H_    0.747240 0.547527 0.295383 0.149506
H16   H     H_    0.786539 0.346802 0.263017 0.133800
H17   H     H_    0.424113 0.333495 0.561417 0.118803
H18   H     H_    0.273857 0.839247 0.688260 0.120550
H19   H     H_    0.319439 0.487086 0.649693 0.132113
H20   H     H_    0.206818 0.667779 0.743774 0.143328
H21   H     H_    0.631905 0.718712 0.391541 0.204707
H22   H     H_    0.144257 0.184787 0.505839 0.124683
H23   H     H_    0.872799 0.124271 0.678333 0.151669
H24   H     H_    0.088120 0.129747 0.674850 0.152493
H25   H     H_    0.862491 0.799379 0.441980 0.175058
H26   H     H_    0.906054 0.844357 0.325837 0.152834
H27   H     H_    0.117719 0.836030 0.328113 0.156660
N1    N     N_R   0.574690 0.246280 0.438200 -0.177134
N2    N     N_R   0.426100 0.754320 0.561190 -0.206054
O1    O     O_R   0.537340 0.972510 0.318130 -0.571459
O2    O     O_R   0.487200 0.806530 0.359650 -0.603840
O3    O     O_R   0.707380 0.082980 0.479220 -0.590492
O4    O     O_R   0.657240 0.917000 0.520740 -0.601455
O5    O     O_R   0.512800 0.193470 0.640350 -0.586470
O6    O     O_R   0.462660 0.027490 0.681870 -0.583366
O7    O     O_R   0.342760 0.083000 0.479260 -0.584268
O8    O     O_R   0.292620 0.917020 0.520780 -0.598326
C39   C     C_1   0.173849 0.064003 0.331408 0.244157
N3    N     N_1   0.227985 0.042719 0.239665 -0.298935

loop_
_geom_bond_atom_site_label_1
_geom_bond_atom_site_label_2
_ccdc_geom_bond_type
C2    C35   S    
Cu2   O2    S    
Cu1   N1    S    
C17   H8    S    
C20   H16   S    
C7    C8    A    
C3    H24   S    
C5    H7    S    
C11   C19   A    
C1    O2    A    
C21   C22   A    
C28   C29   A    
C37   C38   S    
C22   H20   S    
C15   C16   A    
Cu2   O4    S    
C34   C35   S    
Cu1   O5    S    
C16   H13   S    
C8    C9    A    
C37   H25   S    
Cu1   O3    S    
C36   H23   S    
C9    C10   A    
C32   N1    A    
C12   O3    A    
C12   O4    A    
C34   H1    S    
C32   H14   S    
C31   N1    A    
C6    C18   A    
C3    H4    S    
C1    C19   S    
Cu2   N2    S    
C27   C31   A    
C24   C25   A    
C7    H9    S    
Cu1   Cu2   S    
C39   N3    T    
C5    C18   A    
C29   H15   S    
C25   C26   A    
C21   N2    A    
C2    C4    S    
C29   C30   A    
C11   C16   A    
C33   O7    A    
C14   C15   A    
C37   H26   S    
Cu1   O7    S    
C8    H11   S    
C5    C14   A    
C2    C33   S    
C26   C30   A    
C7    C19   A    
C22   C24   A    
C23   O5    A    
C18   H5    S    
C20   C32   A    
C6    C17   A    
C34   C38   S    
C9    H10   S    
C23   O6    A    
C10   C13   A    
C4    H27   S    
C25   C27   A    
C20   C28   A    
C35   C39   S    
C34   H12   S    
C1    O1    A    
Cu2   O6    S    
C13   C17   A    
C31   H17   S    
C36   C38   S    
C2    C3    S    
C21   H18   S    
C33   O8    A    
C4    H2    S    
C3    C36   S    
C24   H19   S    
C6    C23   S    
Cu1   O1    S    
C35   H22   S    
C12   C38   S    
C10   C11   A    
C4    C37   S    
C30   H21   S    
C27   C28   A    
C26   N2    A    
Cu2   O8    S    
C36   H3    S    
C15   H6    S    
C13   C14   A    
