data_mof_unit_17466.cif
_audit_creation_date              2013-03-05T15:49:56-0500
_audit_creation_method            fapswitch 2.2
_symmetry_space_group_name_H-M    P1
_symmetry_Int_Tables_number       1
_space_group_crystal_system       triclinic
_cell_length_a                    11.954596
_cell_length_b                    12.885762
_cell_length_c                    15.003918
_cell_angle_alpha                 90.10555
_cell_angle_beta                  86.148351
_cell_angle_gamma                 93.505484
_cell_volume                      2301.72364539

loop_
_atom_site_label
_atom_site_type_symbol
_atom_site_description
_atom_site_fract_x
_atom_site_fract_y
_atom_site_fract_z
_atom_type_partial_charge
O1    O     O_R   0.421700 0.658830 0.504450 -0.619897
O2    O     O_R   0.578300 0.341170 0.495550 -0.617375
O3    O     O_R   0.609310 0.646410 0.493750 -0.627697
O4    O     O_R   0.390690 0.353590 0.506250 -0.624369
C1    C     C_R   0.522286 0.700495 0.499670 0.913315
C2    C     C_R   0.477721 0.299490 0.500439 0.919453
O5    O     O_R   0.406180 0.506230 0.637500 -0.633376
O6    O     O_R   0.593820 0.493770 0.362500 -0.635622
O7    O     O_R   0.593800 0.493820 0.626800 -0.625451
O8    O     O_R   0.406200 0.506180 0.373200 -0.627492
C3    C     C_R   0.500089 0.499576 0.673470 0.894116
C4    C     C_R   0.499788 0.499579 0.326571 0.895130
Zn1   Zn    Zn3+2 0.374730 0.508290 0.507150 0.963474
Zn2   Zn    Zn3+2 0.625270 0.491710 0.492850 0.962278
C5    C     C_R   0.397240 0.492325 0.190628 -0.213108
C6    C     C_R   0.602331 0.502550 0.809551 -0.218169
C7    C     C_R   0.499500 0.498711 0.230773 -0.091818
C8    C     C_R   0.500162 0.498695 0.769345 -0.092970
C9    C     C_R   0.601630 0.503973 0.179576 -0.207159
C10   C     C_R   0.398009 0.493915 0.820541 -0.206102
C11   C     C_R   0.602378 0.504325 0.087481 0.082543
C12   C     C_R   0.397194 0.493837 0.912686 0.078867
C13   C     C_R   0.499454 0.499647 0.046448 -0.001022
C14   C     C_R   0.500179 0.499816 0.953712 -0.003502
C15   C     C_R   0.395926 0.492692 0.098279 0.026428
C16   C     C_R   0.603745 0.504053 0.901889 0.026332
C17   C     C_R   0.704587 0.508039 0.036238 -0.325409
C18   C     C_R   0.294907 0.486165 0.964004 -0.310219
C19   C     C_R   0.706326 0.509654 0.943157 0.490182
C20   C     C_R   0.293395 0.486086 0.057040 0.462279
H1    H     H_    0.318778 0.487362 0.231472 0.196076
H2    H     H_    0.680667 0.505328 0.768683 0.199112
H3    H     H_    0.680743 0.508301 0.211249 0.159840
H4    H     H_    0.318948 0.489623 0.788813 0.162987
H5    H     H_    0.783237 0.508308 0.068278 0.162023
H6    H     H_    0.216177 0.478233 0.932005 0.161167
C21   C     C_R   0.463944 0.188168 0.501570 -0.138111
C22   C     C_R   0.536127 0.811795 0.498918 -0.137222
C23   C     C_R   0.648613 0.969857 0.464839 0.327809
C24   C     C_R   0.351604 0.030122 0.536137 0.328670
C25   C     C_R   0.638556 0.862169 0.469817 -0.250926
C26   C     C_R   0.361588 0.137809 0.530910 -0.242427
C27   C     C_R   0.443310 0.867349 0.524899 -0.203485
C28   C     C_R   0.556827 0.132592 0.475814 -0.198309
C29   C     C_R   0.448054 0.973995 0.515396 0.009275
C30   C     C_R   0.552139 0.025975 0.485519 0.010049
H7    H     H_    0.633109 0.173492 0.448431 0.205166
H8    H     H_    0.367008 0.826396 0.552179 0.203957
H9    H     H_    0.289237 0.182023 0.549010 0.202342
H10   H     H_    0.710899 0.817955 0.451678 0.199835
N1    N     N_R   0.207800 0.519350 0.516680 -0.109290
N2    N     N_R   0.792200 0.480650 0.483320 -0.108875
C31   C     C_R   0.955184 0.404021 0.415603 -0.290188
C32   C     C_R   0.045017 0.597216 0.583376 -0.283314
C33   C     C_R   0.838636 0.412961 0.423800 0.057163
C34   C     C_R   0.161481 0.587736 0.575616 0.059172
C35   C     C_R   0.857896 0.541691 0.535968 -0.029601
C36   C     C_R   0.142152 0.458809 0.463634 -0.036134
C37   C     C_R   0.975521 0.535464 0.530124 0.087918
C38   C     C_R   0.024586 0.465415 0.469178 0.079338
H11   H     H_    0.181558 0.405506 0.417212 0.134406
H12   H     H_    0.818471 0.595040 0.582336 0.121803
H13   H     H_    0.215159 0.635245 0.616712 0.133992
H14   H     H_    0.784997 0.365688 0.382503 0.138826
H15   H     H_    0.990569 0.349746 0.367921 0.167542
H16   H     H_    0.009883 0.652309 0.630360 0.160470
O9    O     O_3   0.807267 0.504610 0.892606 -0.636856
C39   C     C_3   0.872101 0.600045 0.896487 0.078507
H17   H     H_    0.962005 0.581960 0.891074 0.169294
H18   H     H_    0.858528 0.642946 0.960563 0.120234
C40   C     C_3   0.849816 0.669638 0.817775 -0.401643
H19   H     H_    0.860759 0.625387 0.754490 0.224888
H20   H     H_    0.761912 0.693496 0.825248 0.221666
C41   C     C_3   0.929694 0.766730 0.812702 -0.875490
H21   H     H_    0.919286 0.812932 0.874962 0.269213
H22   H     H_    0.910876 0.815529 0.755302 0.285236
H23   H     H_    0.018130 0.744830 0.802939 0.258151
O10   O     O_3   0.192826 0.467864 0.107454 -0.638499
C42   C     C_3   0.133377 0.559266 0.110576 0.067028
H24   H     H_    0.105314 0.577415 0.043319 0.136106
H25   H     H_    0.186561 0.626455 0.134585 0.143881
C43   C     C_3   0.029850 0.541935 0.175646 -0.323807
H26   H     H_    0.975935 0.475155 0.152575 0.230141
H27   H     H_    0.056879 0.522908 0.242901 0.229587
C44   C     C_3   0.961309 0.638032 0.182772 -0.932748
H28   H     H_    0.012642 0.705168 0.208097 0.286308
H29   H     H_    0.886588 0.622195 0.229956 0.267401
H30   H     H_    0.932306 0.657998 0.116486 0.250509
N3    N     N_R   0.756790 0.020302 0.440003 0.196007
O11   O     O_R   0.821106 0.981415 0.376632 -0.370371
O12   O     O_R   0.799587 0.091765 0.491259 -0.373886
N4    N     N_R   0.243508 0.979678 0.561255 0.195074
O13   O     O_R   0.179583 0.018401 0.624962 -0.369839
O14   O     O_R   0.200373 0.908356 0.510034 -0.380793

loop_
_geom_bond_atom_site_label_1
_geom_bond_atom_site_label_2
_geom_bond_distance
_ccdc_geom_bond_type
C3    C8    1.438633 S    
C17   C19   1.395515 A    
C35   H12   1.082825 S    
C23   C25   1.387206 A    
C44   H28   1.111110 S    
O5    C3    1.285414 A    
C41   H22   1.110437 S    
O1    C1    1.284102 A    
C9    C11   1.381231 A    
C14   C16   1.415264 A    
C5    C15   1.386764 A    
C36   C38   1.410090 A    
C21   C26   1.394175 A    
N1    C34   1.362387 A    
O4    Zn1   2.014050 S    
Zn1   N1    2.004861 S    
Zn2   N2    2.004861 S    
C39   H17   1.111235 S    
C41   H23   1.111005 S    
C4    C7    1.437596 S    
C13   C14   1.390849 A    
N3    O12   1.301465 A    
C31   H15   1.083317 S    
C27   H8    1.081581 S    
C28   H7    1.081591 S    
C10   H4    1.084858 S    
C36   H11   1.082837 S    
C24   C26   1.387359 A    
C11   C17   1.397557 A    
C37   C38   1.408769 A    
C12   C18   1.398879 A    
C1    C22   1.433591 S    
O2    C2    1.284090 A    
C31   C38   1.402624 A    
C28   C30   1.379132 A    
C32   C37   1.402774 A    
C31   C33   1.402207 A    
C6    C16   1.386756 A    
C24   C29   1.415039 A    
C32   C34   1.402110 A    
C2    C21   1.433858 S    
C41   H21   1.110830 S    
C44   H29   1.110874 S    
O9    C39   1.416202 S    
C22   C25   1.394064 A    
O4    C2    1.285430 A    
C9    H3    1.085019 S    
C42   H25   1.116192 S    
O10   C42   1.411426 S    
C17   H5    1.084186 S    
C29   C30   1.422001 A    
C22   C27   1.390537 A    
O7    Zn2   2.020133 S    
C42   C43   1.529527 S    
O7    C3    1.286629 A    
O6    C4    1.285181 A    
C33   H14   1.081841 S    
N4    O14   1.301470 A    
C34   H13   1.081878 S    
N1    C36   1.365547 A    
C24   N4    1.437772 S    
C27   C29   1.379171 A    
O3    Zn2   2.014050 S    
O8    C4    1.286352 A    
C23   C30   1.415058 A    
C6    C8    1.396289 A    
C10   C12   1.381913 A    
C43   H27   1.112293 S    
C11   C13   1.410378 A    
C12   C14   1.410890 A    
O1    Zn1   1.985920 S    
C25   H10   1.083810 S    
C40   H20   1.111274 S    
C44   H30   1.110734 S    
C15   C20   1.407625 A    
C5    C7    1.396596 A    
O6    Zn2   2.016744 S    
O3    C1    1.285277 A    
O8    Zn1   2.020133 S    
C40   C41   1.525585 S    
N2    C33   1.362420 A    
C5    H1    1.083988 S    
C32   H16   1.082676 S    
C6    H2    1.083101 S    
C43   C44   1.525766 S    
C21   C28   1.390579 A    
C18   C20   1.394814 A    
C40   H19   1.110983 S    
C19   O9    1.386397 S    
C39   C40   1.531424 S    
N4    O13   1.301295 A    
C7    C9    1.396192 A    
C8    C10   1.396463 A    
C13   C15   1.414899 A    
O2    Zn2   1.985920 S    
C35   C37   1.410177 A    
N2    C35   1.365648 A    
C26   H9    1.083783 S    
C42   H24   1.114230 S    
C20   O10   1.384441 S    
O5    Zn1   2.016743 S    
C18   H6    1.084232 S    
C16   C19   1.408342 A    
C39   H18   1.115464 S    
C43   H26   1.112091 S    
N3    O11   1.301311 A    
C23   N3    1.437764 S    
