data_mof_unit_59508.cif
_audit_creation_date              2012-12-11T21:22:48-0500
_audit_creation_method            fapswitch 2.2
_symmetry_space_group_name_H-M    P1
_symmetry_Int_Tables_number       1
_space_group_crystal_system       triclinic
_cell_length_a                    8.40537
_cell_length_b                    18.86554
_cell_length_c                    18.984535
_cell_angle_alpha                 104.166269
_cell_angle_beta                  91.666732
_cell_angle_gamma                 92.759702
_cell_volume                      2912.88254051

loop_
_atom_site_label
_atom_site_type_symbol
_atom_type_description
_atom_site_fract_x
_atom_site_fract_y
_atom_site_fract_z
_atom_type_partial_charge
Ba1   Ba    Ba6+2 0.155460 0.532000 0.467920 1.101276
Ba2   Ba    Ba6+2 0.654730 0.467990 0.532020 1.257312
C1    C     C_3   0.418654 0.769464 0.239439 -2.502890
C2    C     C_R   0.086867 0.913034 0.573667 0.062577
C3    C     C_R   0.241535 0.939085 0.600685 -0.131922
C4    C     C_3   0.863229 0.759647 0.293085 0.396650
C5    C     C_R   0.299676 0.009166 0.598256 -0.073611
C6    C     C_R   0.204437 0.054771 0.568687 0.105050
C7    C     C_R   0.049303 0.029550 0.541345 0.016609
C8    C     C_R   0.262529 0.125015 0.566203 -0.234163
C9    C     C_R   0.167688 0.171939 0.537258 0.027652
C10   C     C_R   0.013078 0.146176 0.507573 0.024466
C11   C     C_R   0.954076 0.074904 0.510632 0.029500
C12   C     C_3   0.458887 0.748725 0.310666 0.257991
C13   C     C_R   0.222441 0.244126 0.537894 0.038269
C14   C     C_R   0.126874 0.288637 0.507112 -0.294774
C15   C     C_R   0.976385 0.263969 0.474190 0.019896
C16   C     C_3   0.983757 0.750232 0.233048 -0.337330
C17   C     C_R   0.916849 0.191379 0.475429 -0.045224
C18   C     C_R   0.835459 0.932684 0.516663 0.066146
C19   C     C_R   0.780019 0.859758 0.514609 -0.020635
C20   C     C_R   0.880335 0.812343 0.541006 0.007972
C21   C     C_R   0.029323 0.841858 0.574426 -0.010698
C22   C     C_R   0.764268 0.162210 0.446605 -0.070980
C23   C     C_3   0.497419 0.699338 0.650352 0.215668
C24   C     C_R   0.703346 0.093394 0.452623 0.101848
C25   C     C_R   0.798749 0.049187 0.484040 -0.032319
C26   C     C_R   0.738598 0.978825 0.488121 0.097960
C27   C     C_R   0.546950 0.068111 0.427872 -0.079066
C28   C     C_3   0.960621 0.258190 0.300019 0.744187
C29   C     C_R   0.486196 0.999687 0.433389 -0.040534
C30   C     C_R   0.581796 0.954312 0.462616 -0.001025
C31   C     C_R   0.625008 0.834333 0.485000 -0.000304
C32   C     C_R   0.524127 0.883996 0.464235 -0.057301
C33   C     C_R   0.577917 0.759306 0.473918 -0.040721
C34   C     C_3   0.538495 0.781495 0.678092 -0.189144
C35   C     C_R   0.681363 0.711899 0.495778 -0.259287
C36   C     C_R   0.828908 0.737065 0.531669 0.090556
C37   C     C_R   0.344008 0.544925 0.813171 -0.099649
C38   C     C_R   0.315948 0.530372 0.737807 0.012510
C39   C     C_R   0.153542 0.445923 0.816191 -0.218205
C40   C     C_3   0.912288 0.178702 0.299341 -0.318840
C41   C     C_R   0.094541 0.448646 0.747230 0.030730
C42   C     C_R   0.597718 0.589596 0.206538 -0.399313
C43   C     C_R   0.679297 0.575193 0.266887 -0.016237
C44   C     C_R   0.415367 0.483659 0.199317 -0.148499
C45   C     C_3   0.896668 0.285044 0.719246 0.426680
C46   C     C_R   0.473962 0.479778 0.268362 -0.100819
C47   C     C_R   0.272371 0.498567 0.853750 0.070711
C48   C     C_R   0.186066 0.484475 0.705680 -0.260239
C49   C     C_R   0.481140 0.537886 0.164817 0.116196
C50   C     C_R   0.624520 0.513575 0.289246 0.261791
C51   C     C_R   0.048427 0.482124 0.971301 -0.134788
C52   C     C_3   0.000442 0.633287 0.690123 0.325071
C53   C     C_R   0.944492 0.471336 0.023522 -0.067528
C54   C     C_R   0.989637 0.496631 0.095887 -0.037236
C55   C     C_R   0.145475 0.523102 0.115685 -0.152754
C56   C     C_3   0.915794 0.250384 0.783810 -0.413402
C57   C     C_R   0.263059 0.520240 0.063734 0.102186
C58   C     C_R   0.212116 0.502623 0.988432 0.089720
C59   C     C_R   0.425647 0.539508 0.087127 -0.050899
C60   C     C_R   0.533033 0.551070 0.032857 0.082250
C61   C     C_R   0.485577 0.526652 0.957333 0.013176
C62   C     C_R   0.323424 0.506536 0.933744 -0.055047
C63   C     C_R   0.687254 0.587044 0.049403 -0.176544
C64   C     C_3   0.012191 0.655352 0.772828 -0.470385
C65   C     C_R   0.783559 0.600938 0.995306 0.017225
C66   C     C_R   0.746076 0.566076 0.923549 -0.083151
C67   C     C_3   0.408582 0.322405 0.716901 0.126311
C68   C     C_R   0.605183 0.523218 0.905969 -0.105562
C69   C     C_3   0.435522 0.286958 0.287151 0.627813
C70   C     C_3   0.440602 0.276764 0.204596 -0.287577
C71   C     C_2   0.406937 0.819286 0.721522 0.449378
C72   C     C_2   0.359795 0.845431 0.254225 0.525142
C73   C     C_2   0.821111 0.231774 0.653479 0.506002
C74   C     C_2   0.862891 0.839448 0.331107 0.475684
C75   C     C_3   0.420447 0.300655 0.788840 -0.410416
C76   C     C_R   0.990330 0.958441 0.543991 0.061339
H1    H     H_    0.515175 0.696254 0.299318 -0.824054
H2    H     H_    0.550828 0.305652 0.316209 0.086270
H3    H     H_    0.330035 0.728999 0.205618 0.081920
H4    H     H_    0.328192 0.250225 0.177057 0.210079
H5    H     H_    0.536986 0.240818 0.182818 0.145628
H6    H     H_    0.458748 0.329626 0.189733 0.105305
H7    H     H_    0.545251 0.791244 0.342162 0.065039
H8    H     H_    0.526996 0.767458 0.207085 0.042276
H9    H     H_    0.605511 0.673189 0.626273 0.032086
H10   H     H_    0.400195 0.690491 0.607701 0.069609
H11   H     H_    0.651306 0.790194 0.711960 0.150505
H12   H     H_    0.788799 0.174976 0.313618 0.096769
H13   H     H_    0.557512 0.805935 0.631265 -0.031842
H14   H     H_    0.991604 0.798336 0.208947 0.066613
H15   H     H_    0.018414 0.300182 0.704784 -0.168339
H16   H     H_    0.798447 0.229586 0.798278 0.152955
H17   H     H_    0.996266 0.204349 0.770310 0.097316
H18   H     H_    0.968522 0.291485 0.831954 0.101251
H19   H     H_    0.281466 0.329409 0.704656 0.040085
H20   H     H_    0.478545 0.375198 0.722533 0.137069
H21   H     H_    0.378505 0.344745 0.833256 0.083132
H22   H     H_    0.545941 0.291438 0.802064 0.186502
H23   H     H_    0.921184 0.139552 0.245789 0.213772
H24   H     H_    0.345793 0.249612 0.785361 0.153188
H25   H     H_    0.318939 0.904842 0.622603 0.078437
H26   H     H_    0.420002 0.027498 0.619048 0.114637
H27   H     H_    0.172690 0.343280 0.507244 0.111730
H28   H     H_    0.383003 0.142029 0.586809 0.142527
H29   H     H_    0.104376 0.809428 0.599443 0.072082
H30   H     H_    0.688612 0.192833 0.419996 0.154261
H31   H     H_    0.470488 0.101125 0.404447 0.192963
H32   H     H_    0.365033 0.981760 0.413588 0.125118
H33   H     H_    0.402500 0.867313 0.444998 0.153681
H34   H     H_    0.988819 0.159256 0.338378 0.100967
H35   H     H_    0.745786 0.742379 0.266499 -0.104628
H36   H     H_    0.643059 0.654752 0.487477 0.087452
H37   H     H_    0.427415 0.589941 0.838703 0.093642
H38   H     H_    0.102780 0.404320 0.840228 0.091302
H39   H     H_    0.625215 0.640531 0.192647 0.272644
H40   H     H_    0.320296 0.444557 0.173401 0.110949
H41   H     H_    0.149349 0.480793 0.649729 0.085769
H42   H     H_    0.991701 0.478049 0.919446 0.087949
H43   H     H_    0.822149 0.451839 0.007997 0.109827
H44   H     H_    0.900503 0.499439 0.135989 0.097065
H45   H     H_    0.117566 0.616127 0.669234 0.029376
H46   H     H_    0.100960 0.742854 0.256445 0.173047
H47   H     H_    0.174770 0.545687 0.172261 0.156222
H48   H     H_    0.743315 0.604455 0.101956 0.089074
H49   H     H_    0.897156 0.631501 0.009750 0.056071
H50   H     H_    0.829631 0.569843 0.882206 0.116953
H51   H     H_    0.586244 0.490866 0.850776 0.115330
H52   H     H_    0.948158 0.701929 0.187839 0.109968
H53   H     H_    0.077562 0.272831 0.328913 0.031427
H54   H     H_    0.525467 0.127494 0.227567 0.358596
H55   H     H_    0.286626 0.813902 0.697997 0.032089
H56   H     H_    0.910115 0.586884 0.673018 0.123529
H57   H     H_    0.255586 0.858980 0.286091 0.065092
H58   H     H_    0.802355 0.250505 0.604698 0.020345
H59   H     H_    0.760286 0.870542 0.325073 0.003440
H60   H     H_    0.931699 0.436174 0.215913 0.357381
H61   H     H_    0.060711 0.197661 0.106058 0.354442
H62   H     H_    0.109818 0.698226 0.791807 0.162876
H63   H     H_    0.036697 0.607347 0.794514 0.107088
H64   H     H_    0.897870 0.676915 0.794286 0.138196
O1    O     O_2   0.114280 0.679350 0.549180 -0.454904
O2    O     O_2   0.783033 0.485305 0.753163 -0.474365
O3    O     O_3   0.798681 0.344902 0.738784 -0.591732
O4    O     O_3   0.866400 0.589600 0.543550 -0.444823
O5    O     O_3   0.444420 0.455520 0.411210 -0.411036
O6    O     O_2   0.612810 0.550740 0.677950 -0.425425
O7    O     O_3   0.448578 0.670721 0.708377 -0.611910
O8    O     O_2   0.550503 0.247279 0.528846 -0.442202
O9    O     O_3   0.470022 0.267475 0.662414 -0.547478
O10   O     O_3   0.362150 0.623490 0.415650 -0.431681
O11   O     O_2   0.251689 0.752045 0.481015 -0.427694
O12   O     O_3   0.317297 0.334260 0.316456 -0.583851
O13   O     O_3   0.956322 0.693664 0.665033 -0.610197
O14   O     O_3   0.322781 0.742421 0.349775 -0.551079
O15   O     O_2   0.197490 0.449210 0.322030 -0.361479
O16   O     O_3   0.950520 0.583920 0.376610 -0.288865
O17   O     O_2   0.003674 0.608689 0.253549 -0.454223
O18   O     O_2   0.358787 0.211390 0.384649 -0.318164
O19   O     O_2   0.238611 0.164152 0.262773 -0.292209
O20   O     O_3   0.530278 0.141192 0.281415 -0.537332
O21   O     O_2   0.434021 0.855669 0.783709 -0.489360
O22   O     O_2   0.429904 0.892820 0.231327 -0.520984
O23   O     O_3   0.896252 0.720244 0.346038 -0.567406
O24   O     O_2   0.779391 0.168931 0.653879 -0.602093
O25   O     O_2   0.979809 0.870450 0.367431 -0.547573
O26   O     O_2   0.777138 0.462050 0.380040 -0.229809
O27   O     O_2   0.701831 0.378715 0.261517 -0.354441
O28   O     O_3   0.937564 0.469093 0.265155 -0.429888
O29   O     O_2   0.819833 0.270384 0.172347 -0.259770
O30   O     O_2   0.085545 0.329936 0.204564 -0.307150
O31   O     O_3   0.057928 0.189357 0.155564 -0.467008
O32   O     O_2   0.696020 0.320600 0.450800 -0.433333
O33   O     O_3   0.943900 0.410390 0.456390 -0.392543
O34   O     O_3   0.448150 0.376500 0.584290 -0.430965
O35   O     O_3   0.846921 0.307063 0.334242 -0.547512
O36   O     O_3   0.365880 0.544470 0.588730 -0.434698
O37   O     O_3   0.859790 0.416060 0.623340 -0.487528
P1    P     P_3+3 0.941030 0.670050 0.569830 0.921180
P2    P     P_3+3 0.370400 0.428500 0.331430 1.201646
P3    P     P_3+3 0.873278 0.624949 0.309738 1.018949
P4    P     P_3+3 0.869270 0.329940 0.430110 1.100145
P5    P     P_3+3 0.886025 0.422262 0.716201 0.952794
P6    P     P_3+3 0.382430 0.719180 0.430159 1.041937
P7    P     P_3+3 0.435311 0.575195 0.680161 0.937153
P8    P     P_3+3 0.420156 0.283539 0.577759 1.007740
S1    S     S_3+6 0.386366 0.199688 0.305030 -0.102217
S2    S     S_3+6 0.763234 0.453604 0.300279 -0.048741
S3    S     S_3+6 0.979669 0.264326 0.206713 -0.106531

loop_
_geom_bond_atom_site_label_1
_geom_bond_atom_site_label_2
_ccdc_geom_bond_type
C34   H11   S    
C72   O22   D    
C52   H45   S    
C53   H43   S    
C30   C32   A    
H60   O28   S    
C41   P5    S    
C67   C75   S    
C49   C59   S    
O27   S2    D    
C69   S1    S    
C53   C54   A    
C3    H25   S    
C75   H24   S    
C51   H42   S    
C5    C6    A    
C64   H63   S    
C74   H59   S    
C42   C43   A    
O9    P8    S    
O3    P5    S    
C24   C25   A    
C35   C36   A    
Ba1   O10   S    
O23   P3    S    
C27   H31   S    
Ba1   O16   S    
C33   C35   A    
C22   C24   A    
O19   S1    D    
C55   H47   S    
C46   P2    S    
Ba1   P1    S    
Ba2   P4    S    
C55   C57   A    
C19   C31   A    
Ba2   O6    S    
C13   C14   A    
C52   H56   S    
O12   P2    S    
O31   S3    S    
C23   H9    S    
C54   C55   A    
C44   H40   S    
C75   H22   S    
C23   O7    S    
Ba1   Ba2   S    
C71   O21   D    
C1    C72   S    
C7    C11   A    
C69   H2    S    
C56   H18   S    
Ba2   O34   S    
C9    C13   A    
C28   O35   S    
C14   C15   A    
C63   C65   A    
C1    H3    S    
H61   O31   S    
C67   H19   S    
C22   H30   S    
C66   H50   S    
C50   S2    S    
C67   H20   S    
O5    P2    S    
C28   S3    S    
C4    O23   S    
O7    P7    S    
C47   C62   S    
C19   C20   A    
C1    H8    S    
C32   H33   S    
C39   C41   A    
Ba1   O4    S    
O15   P2    D    
C39   C47   A    
C45   O3    S    
C51   C58   A    
C43   P3    S    
C51   C53   A    
C4    C16   S    
C44   C46   A    
C57   C59   A    
C36   P1    S    
C48   H41   S    
C67   O9    S    
C26   C30   A    
C34   C71   S    
C37   C38   A    
C3    C5    A    
C2    C21   A    
Ba1   P2    S    
C73   H58   S    
C6    C7    A    
C40   H34   S    
C35   H36   S    
C18   C26   A    
C43   C50   A    
O30   S3    D    
Ba2   O5    S    
O14   P6    S    
C69   O12   S    
C13   P8    S    
C44   C49   A    
C23   H10   S    
O26   S2    D    
C65   C66   A    
O29   S3    D    
C40   H12   S    
C54   H44   S    
C56   H17   S    
C4    H35   S    
C2    C76   A    
C60   C61   A    
Ba1   O1    S    
C65   H49   S    
Ba2   O33   S    
Ba1   O36   S    
C15   P4    S    
C29   C30   A    
O28   S2    S    
C61   C68   A    
C33   P6    S    
C21   H29   S    
C72   H57   S    
C31   C32   A    
C45   H15   S    
O4    P1    S    
C57   C58   A    
O1    P1    D    
C18   C19   A    
O16   P3    S    
C70   H6    S    
C1    C12   S    
C14   H27   S    
C52   C64   S    
C34   H13   S    
C66   C68   A    
C37   C47   A    
C71   H55   S    
C37   H37   S    
C5    H26   S    
O10   P6    S    
Ba1   O5    S    
Ba2   O37   S    
O18   S1    D    
C39   H38   S    
C15   C17   A    
C40   H23   S    
C52   O13   S    
C38   P7    S    
O13   P1    S    
C42   C49   A    
O34   P8    S    
O33   P4    S    
O37   P5    S    
Ba1   O33   S    
C60   C63   A    
C12   O14   S    
O8    P8    D    
C28   C40   S    
C12   H7    S    
C2    C3    A    
O32   P4    D    
C9    C10   A    
C41   C48   A    
C4    C74   S    
C64   H64   S    
Ba2   O4    S    
C16   H52   S    
C18   C76   A    
C58   C62   A    
C16   H14   S    
C63   H48   S    
Ba1   O15   S    
C17   C22   A    
C56   H16   S    
C45   C73   S    
C69   C70   S    
C27   C29   A    
O35   P4    S    
Ba2   O32   S    
C45   C56   S    
O20   S1    S    
O2    P5    D    
O11   P6    D    
C42   H39   S    
C38   C48   A    
C10   C17   A    
C74   O25   D    
C31   C33   A    
C29   H32   S    
C75   H21   S    
C73   O24   D    
C7    C76   A    
C68   H51   S    
O17   P3    D    
C59   C60   A    
H54   O20   S    
C70   H5    S    
C12   H1    S    
C8    C9    A    
C23   C34   S    
C61   C62   A    
O36   P7    S    
C46   C50   A    
C64   H62   S    
C10   C11   A    
C24   C27   A    
C6    C8    A    
C25   C26   A    
C8    H28   S    
C20   C21   A    
C11   C25   A    
Ba2   O36   S    
O6    P7    D    
C70   H4    S    
C28   H53   S    
C16   H46   S    
C20   C36   A    
