data_mof_unit_59645.cif
_audit_creation_date              2012-12-10T17:03:41-0500
_audit_creation_method            fapswitch 2.2
_symmetry_space_group_name_H-M    P1
_symmetry_Int_Tables_number       1
_space_group_crystal_system       triclinic
_cell_length_a                    10.076871
_cell_length_b                    10.702911
_cell_length_c                    13.11068
_cell_angle_alpha                 89.726831
_cell_angle_beta                  70.056542
_cell_angle_gamma                 89.278903
_cell_volume                      1329.10700433

loop_
_atom_site_label
_atom_site_type_symbol
_atom_type_description
_atom_site_fract_x
_atom_site_fract_y
_atom_site_fract_z
_atom_type_partial_charge
C1    C     C_R   0.496494 0.737035 0.505941 0.909567
C2    C     C_R   0.432058 0.475615 0.984956 0.086006
C3    C     C_R   0.459883 0.440035 0.876424 0.070845
C4    C     C_R   0.539529 0.456900 0.030179 0.073288
C5    C     C_R   0.661349 0.384104 0.974697 0.151012
C6    C     C_R   0.676452 0.333436 0.873679 -0.244867
C7    C     C_R   0.577279 0.361380 0.824742 -0.169915
C8    C     C_R   0.530169 0.511144 0.128460 -0.249622
C9    C     C_R   0.745868 0.407216 0.125767 -0.226735
C10   C     C_R   0.370320 0.485883 0.822009 -0.119820
C11   C     C_2   0.582204 0.066889 0.535536 -0.269780
C12   C     C_R   0.421473 0.493989 0.703949 0.840035
C13   C     C_2   0.516669 0.131069 0.478043 0.347098
C14   C     C_2   0.593911 0.932855 0.529437 -0.154907
C15   C     C_2   0.484435 0.867925 0.525090 -0.252011
C16   C     C_2   0.109746 0.537447 0.419819 -0.129826
C17   C     C_2   0.965191 0.515934 0.414689 -0.033814
C18   C     C_R   0.503123 0.263021 0.495523 0.760483
C19   C     C_R   0.578589 0.498853 0.295976 0.852742
C20   C     C_R   0.765115 0.361742 0.022118 -0.194725
C21   C     C_R   0.625690 0.479265 0.179699 -0.061961
C22   C     C_R   0.239090 0.539853 0.880935 -0.188903
C23   C     C_R   0.201362 0.556685 0.992165 -0.150222
C24   C     C_R   0.297935 0.528299 0.043759 -0.192637
H1    H     H_    0.820307 0.381055 0.165542 0.152623
H2    H     H_    0.691977 0.888640 0.528522 0.155695
H3    H     H_    0.382674 0.912126 0.536276 0.192653
H4    H     H_    0.185850 0.585400 0.352406 0.141940
H5    H     H_    0.086064 0.433647 0.550678 0.238218
H6    H     H_    0.953066 0.524475 0.335864 0.094235
H7    H     H_    0.766501 0.274489 0.831375 0.156864
H8    H     H_    0.857767 0.305181 0.981001 0.142292
H9    H     H_    0.445284 0.575145 0.169548 0.143906
H10   H     H_    0.167657 0.572691 0.840555 0.157230
H11   H     H_    0.263607 0.545258 0.129990 0.121783
H12   H     H_    0.099376 0.597036 0.037801 0.144333
H13   H     H_    0.592532 0.319363 0.746608 0.173377
H14   H     H_    0.630187 0.113846 0.587457 0.134655
N1    N     N_2   0.148270 0.498670 0.498870 -0.177724
N2    N     N_2   0.852610 0.498640 0.498840 0.080143
O1    O     O_R   0.386950 0.680940 0.500020 -0.603732
O2    O     O_R   0.613110 0.680900 0.499980 -0.642328
O3    O     O_R   0.330780 0.500000 0.653640 -0.611257
O4    O     O_R   0.556930 0.499960 0.653610 -0.593475
O5    O     O_R   0.386890 0.319100 0.500020 -0.604203
O6    O     O_R   0.613050 0.319060 0.499980 -0.628024
O7    O     O_R   0.443070 0.500040 0.346390 -0.617515
O8    O     O_R   0.669220 0.500000 0.346360 -0.623486
Zn1   Zn    Zn3+2 0.349000 0.500030 0.500020 0.939852
Zn2   Zn    Zn3+2 0.651000 0.499970 0.499980 0.959005
O9    O     O_3   0.466983 0.072788 0.403263 -0.614907
C25   C     C_3   0.507091 0.139224 0.303968 0.121728
H15   H     H_    0.619499 0.168904 0.278127 0.122742
H16   H     H_    0.437689 0.222642 0.310960 0.167074
C26   C     C_3   0.490806 0.055299 0.215848 -0.819317
H17   H     H_    0.379306 0.025639 0.237756 0.255666
H18   H     H_    0.521516 0.106906 0.137654 0.212224
H19   H     H_    0.559707 0.971167 0.206022 0.254571
O10   O     O_3   0.864612 0.509937 0.597894 -0.540812
C27   C     C_3   0.837373 0.635914 0.630855 0.226088
H20   H     H_    0.727484 0.663945 0.641145 0.177878
H21   H     H_    0.910791 0.699603 0.571019 0.112841
C28   C     C_3   0.858779 0.652093 0.739370 -0.892976
H22   H     H_    0.968461 0.624982 0.731968 0.257729
H23   H     H_    0.839994 0.751249 0.765412 0.207823
H24   H     H_    0.783603 0.592722 0.801871 0.273256

loop_
_geom_bond_atom_site_label_1
_geom_bond_atom_site_label_2
_ccdc_geom_bond_type
C16   H4    S    
C11   H14   S    
C2    C4    A    
C23   C24   A    
C28   H23   S    
C6    C7    A    
C1    C15   S    
C14   H2    S    
O6    Zn2   S    
C9    C20   A    
C15   H3    S    
C3    C10   A    
C25   C26   S    
O5    Zn1   S    
C4    C8    A    
H5    N1    S    
C26   H17   S    
O8    Zn2   S    
C6    H7    S    
C7    H13   S    
C28   H24   S    
C9    H1    S    
O10   C27   S    
O7    Zn1   S    
N2    O10   S    
C13   O9    S    
C10   C22   A    
C17   H6    S    
C11   C13   D    
C9    C21   A    
C22   C23   A    
C16   C17   S    
C10   C12   S    
C13   C18   S    
O2    Zn2   S    
C27   C28   S    
N2    Zn2   S    
C18   O6    A    
C1    O1    A    
N1    Zn1   S    
C25   H16   S    
C2    C3    A    
C12   O3    A    
C3    C7    A    
C8    H9    S    
C26   H18   S    
C2    C24   A    
C5    C6    A    
C22   H10   S    
C11   C14   S    
C19   O7    A    
C24   H11   S    
C16   N1    D    
O4    Zn2   S    
O9    C25   S    
C18   O5    A    
C1    O2    A    
C25   H15   S    
C27   H21   S    
C23   H12   S    
C20   H8    S    
C26   H19   S    
O1    Zn1   S    
C5    C20   A    
C14   C15   D    
C12   O4    A    
C19   C21   S    
C19   O8    A    
C27   H20   S    
O3    Zn1   S    
C28   H22   S    
C4    C5    A    
C17   N2    D    
C8    C21   A    
