data_mof_unit_44282.cif
_audit_creation_date              2013-03-05T16:49:25-0500
_audit_creation_method            fapswitch 2.2
_symmetry_space_group_name_H-M    P1
_symmetry_Int_Tables_number       1
_space_group_crystal_system       triclinic
_cell_length_a                    10.819364
_cell_length_b                    16.175599
_cell_length_c                    17.136467
_cell_angle_alpha                 98.192679
_cell_angle_beta                  90.896777
_cell_angle_gamma                 93.886249
_cell_volume                      2960.64234976

loop_
_atom_site_label
_atom_site_type_symbol
_atom_site_description
_atom_site_fract_x
_atom_site_fract_y
_atom_site_fract_z
_atom_type_partial_charge
O1    O     O_R   0.494030 0.420280 0.382610 -0.551252
O2    O     O_R   0.505970 0.579720 0.617390 -0.553606
O3    O     O_R   0.504770 0.563150 0.389400 -0.544752
O4    O     O_R   0.495230 0.436850 0.610600 -0.559408
C1    C     C_R   0.503932 0.488351 0.349487 0.844165
C2    C     C_R   0.495038 0.511650 0.650534 0.838000
O5    O     O_R   0.314270 0.428570 0.496610 -0.515417
O6    O     O_R   0.685730 0.571430 0.503390 -0.517409
O7    O     O_R   0.325020 0.571440 0.503400 -0.615942
O8    O     O_R   0.674980 0.428560 0.496600 -0.606076
C3    C     C_R   0.262733 0.499788 0.502392 0.816150
C4    C     C_R   0.737326 0.500098 0.498325 0.824882
Cu1   Cu    Cu3+1 0.493640 0.415410 0.495980 1.045781
Cu2   Cu    Cu3+1 0.506360 0.584590 0.504020 1.046501
H1    H     H_    0.319853 0.831710 0.717842 0.180120
H2    H     H_    0.666755 0.167735 0.294275 0.194184
C5    C     C_R   0.276060 0.699289 0.702706 -0.182050
C6    C     C_R   0.729703 0.296825 0.299810 -0.156005
H3    H     H_    0.332709 0.690353 0.753030 0.164897
H4    H     H_    0.681165 0.303949 0.245707 0.175466
C7    C     C_R   0.210645 0.630659 0.658341 -0.110146
C8    C     C_R   0.799422 0.365012 0.341786 -0.133128
H5    H     H_    0.216842 0.569143 0.675133 0.154109
H6    H     H_    0.804693 0.424322 0.319470 0.162510
C9    C     C_R   0.137857 0.641502 0.592594 0.057305
C10   C     C_R   0.861400 0.356615 0.412396 0.067256
C11   C     C_R   0.129003 0.722353 0.573004 -0.179455
C12   C     C_R   0.854451 0.278765 0.439925 -0.190840
H7    H     H_    0.072688 0.730557 0.522242 0.202677
H8    H     H_    0.902212 0.272706 0.494624 0.185522
C13   C     C_R   0.193840 0.792022 0.617817 0.370247
C14   C     C_R   0.784396 0.209627 0.397930 0.352856
C15   C     C_R   0.268262 0.779477 0.682537 -0.176020
C16   C     C_R   0.721948 0.219585 0.327617 -0.156523
C17   C     C_R   0.941358 0.567358 0.539569 -0.178055
C18   C     C_R   0.058430 0.430338 0.464952 -0.188467
H9    H     H_    0.895627 0.618116 0.572082 0.227739
H10   H     H_    0.103362 0.377418 0.435226 0.210536
C19   C     C_R   0.871443 0.499583 0.497058 -0.060796
C20   C     C_R   0.128668 0.499442 0.505484 -0.058980
C21   C     C_R   0.930347 0.429957 0.459183 0.010641
C22   C     C_R   0.069662 0.568534 0.544423 0.006532
C23   C     C_R   0.517364 0.480845 0.263968 -0.182246
C24   C     C_R   0.478320 0.519209 0.735960 -0.177430
C25   C     C_R   0.602200 0.535197 0.230118 0.284437
C26   C     C_R   0.397602 0.461620 0.769057 0.285538
C27   C     C_R   0.611084 0.527300 0.147210 0.025918
C28   C     C_R   0.385372 0.469855 0.851760 0.028229
C29   C     C_R   0.527828 0.468822 0.099882 0.102293
C30   C     C_R   0.462570 0.531607 0.899937 0.110774
C31   C     C_R   0.447633 0.414024 0.134358 -0.185300
C32   C     C_R   0.536903 0.590261 0.866222 -0.193968
C33   C     C_R   0.443097 0.419573 0.215680 -0.207677
C34   C     C_R   0.543413 0.584828 0.784969 -0.248101
C35   C     C_2   0.514921 0.466973 0.014551 -0.231914
C36   C     C_2   0.475584 0.533343 0.985334 -0.231817
H11   H     H_    0.604099 0.629908 0.760583 0.222011
H12   H     H_    0.376581 0.378715 0.240903 0.236715
H13   H     H_    0.464529 0.591654 0.023986 0.171883
H14   H     H_    0.526637 0.408698 0.976019 0.172365
H15   H     H_    0.384700 0.368808 0.098054 0.161331
H16   H     H_    0.593975 0.638655 0.903121 0.157685
N1    N     N_R   0.515930 0.711660 0.510070 -0.228500
N2    N     N_R   0.484070 0.288340 0.489930 -0.240191
C37   C     C_R   0.421588 0.745692 0.474848 0.022739
C38   C     C_R   0.532350 0.255290 0.551699 0.062753
C39   C     C_R   0.418898 0.832600 0.478319 -0.210052
C40   C     C_R   0.522997 0.168732 0.553013 -0.173759
C41   C     C_R   0.515183 0.885740 0.518069 0.103104
C42   C     C_R   0.465456 0.114888 0.489168 0.117552
C43   C     C_R   0.611716 0.849531 0.552174 -0.270505
C44   C     C_R   0.419773 0.149785 0.425828 -0.279473
C45   C     C_R   0.611765 0.762699 0.547941 0.559382
C46   C     C_R   0.429139 0.236386 0.426649 0.532383
C47   C     C_2   0.521424 0.978750 0.526389 -0.065254
C48   C     C_2   0.449672 0.022405 0.485221 -0.061551
H17   H     H_    0.347162 0.705446 0.444088 0.154732
H18   H     H_    0.577484 0.295991 0.600859 0.161643
H19   H     H_    0.382144 0.989401 0.442477 0.148410
H20   H     H_    0.594159 0.012312 0.565075 0.157642
H21   H     H_    0.687634 0.888860 0.582835 0.190460
H22   H     H_    0.375597 0.109772 0.375561 0.179715
H23   H     H_    0.558754 0.145177 0.604181 0.155069
H24   H     H_    0.341006 0.856796 0.451060 0.172556
C49   C     C_3   0.283467 0.418097 0.887069 -0.383929
C50   C     C_3   0.156169 0.450712 0.872923 -0.339258
C51   C     C_3   0.053942 0.403158 0.912443 -0.808825
H25   H     H_    0.050089 0.335307 0.888976 0.272843
H26   H     H_    0.070874 0.411726 0.977339 0.249512
H27   H     H_    0.963084 0.427536 0.900334 0.245591
H28   H     H_    0.157598 0.518301 0.897354 0.217826
H29   H     H_    0.134012 0.443953 0.808735 0.259640
H30   H     H_    0.284262 0.351061 0.861779 0.243598
H31   H     H_    0.297009 0.420394 0.951524 0.206061
C52   C     C_3   0.715188 0.575822 0.110597 -0.380239
C53   C     C_3   0.839083 0.537018 0.120534 -0.342201
C54   C     C_3   0.943524 0.582107 0.080662 -0.810443
H32   H     H_    0.923425 0.577140 0.016317 0.251099
H33   H     H_    0.954754 0.649212 0.106676 0.271871
H34   H     H_    0.031800 0.552951 0.089385 0.244387
H35   H     H_    0.863817 0.540371 0.184109 0.255503
H36   H     H_    0.830645 0.469988 0.093822 0.218472
H37   H     H_    0.698175 0.576058 0.046748 0.207011
H38   H     H_    0.721830 0.642582 0.137534 0.242938
N3    N     N_R   0.380475 0.268303 0.359968 0.119820
O9    O     O_R   0.282529 0.310615 0.367461 -0.387709
O10   O     O_R   0.411487 0.236199 0.289625 -0.411105
N4    N     N_R   0.714985 0.729787 0.582838 0.113656
O11   O     O_R   0.697871 0.689099 0.642256 -0.401385
O12   O     O_R   0.826077 0.761302 0.571586 -0.371118
N5    N     N_R   0.184524 0.874799 0.597564 0.121867
O13   O     O_R   0.248037 0.938852 0.637134 -0.349932
O14   O     O_R   0.112864 0.886900 0.539132 -0.320789
N6    N     N_R   0.776153 0.130083 0.426679 0.121211
O15   O     O_R   0.717086 0.064974 0.385732 -0.349259
O16   O     O_R   0.827589 0.121957 0.494077 -0.343289
N7    N     N_R   0.678153 0.598739 0.279476 0.118291
O17   O     O_R   0.756339 0.578334 0.330649 -0.401056
O18   O     O_R   0.660686 0.677371 0.278502 -0.336122
N8    N     N_R   0.328302 0.394952 0.719190 0.116110
O19   O     O_R   0.352009 0.317588 0.721696 -0.355531
O20   O     O_R   0.247915 0.411475 0.667378 -0.398447

loop_
_geom_bond_atom_site_label_1
_geom_bond_atom_site_label_2
_geom_bond_distance
_ccdc_geom_bond_type
C38   C40   1.400348 A    
C35   C36   1.338976 D    
N1    C37   1.364107 A    
C53   H36   1.112351 S    
C11   H7    1.082967 S    
N5    O13   1.301600 A    
C31   H15   1.084042 S    
C48   H19   1.083622 S    
C51   H25   1.111537 S    
C54   H32   1.111065 S    
C27   C29   1.416666 A    
C49   C50   1.535734 S    
C52   H38   1.109405 S    
O5    C3    1.305408 A    
N3    O10   1.301226 A    
O1    C1    1.307696 A    
C17   H9    1.078263 S    
C50   H28   1.112590 S    
N7    O18   1.300888 A    
N4    O11   1.297906 A    
O4    Cu1   1.944883 S    
C41   C43   1.391696 A    
C17   C22   1.388041 A    
H2    C16   1.082277 S    
C49   H30   1.109572 S    
C23   C33   1.396498 A    
C52   C53   1.535314 S    
C52   H37   1.107252 S    
C29   C31   1.395925 A    
C30   C32   1.395744 A    
C13   C15   1.406383 A    
C47   H20   1.084745 S    
C32   C34   1.385819 A    
C28   C30   1.416773 A    
C1    C23   1.463521 S    
C39   H24   1.079857 S    
C2    C24   1.466616 S    
C35   H14   1.087223 S    
C18   C21   1.387286 A    
O2    C2    1.308289 A    
C5    C15   1.396673 A    
C54   H33   1.110960 S    
N8    O20   1.300460 A    
N6    O15   1.301561 A    
C25   C27   1.413605 A    
C38   H18   1.080312 S    
C26   C28   1.413601 A    
C37   H17   1.080707 S    
C11   C13   1.407531 A    
C18   C20   1.398727 A    
C53   H35   1.110640 S    
O4    C2    1.302559 A    
C43   C45   1.396107 A    
O7    Cu2   1.958792 S    
C50   C51   1.526508 S    
C45   N4    1.427814 S    
N1    C45   1.374073 A    
C37   C39   1.400866 A    
C29   C35   1.462593 S    
C42   C44   1.391662 A    
C30   C36   1.464054 S    
C39   C41   1.406270 A    
N2    C38   1.364147 A    
C17   C19   1.395525 A    
C47   C48   1.340959 D    
C23   C25   1.415816 A    
C49   H31   1.106941 S    
C12   C14   1.407736 A    
O6    C4    1.307976 A    
C53   C54   1.526479 S    
C26   N8    1.436335 S    
N5    O14   1.301612 A    
C6    C16   1.397084 A    
O3    Cu2   1.944885 S    
O8    C4    1.295663 A    
C44   C46   1.395661 A    
O7    C3    1.298392 A    
C42   C48   1.485873 S    
C8    H6    1.080611 S    
O1    Cu1   1.955601 S    
C54   H34   1.110685 S    
N8    O19   1.300814 A    
C25   N7    1.436360 S    
C7    C9    1.402703 A    
O6    Cu2   1.966630 S    
C6    C8    1.395373 A    
C40   H23   1.080861 S    
C20   C22   1.413994 A    
O3    C1    1.301641 A    
O8    Cu1   1.958794 S    
C9    C22   1.484622 S    
N6    O16   1.301539 A    
C33   H12   1.080835 S    
N2    C46   1.373966 A    
C9    C11   1.404766 A    
N3    O9    1.298242 A    
C10   C12   1.404126 A    
C36   H13   1.087375 S    
C14   N6    1.439675 S    
C4    C19   1.452131 S    
C7    H5    1.080504 S    
C12   H8    1.083115 S    
C50   H29   1.110510 S    
N7    O17   1.300253 A    
C46   N3    1.426753 S    
Cu1   N2    2.038716 S    
Cu2   N1    2.038713 S    
C18   H10   1.080957 S    
C5    H3    1.082230 S    
N4    O12   1.301514 A    
C41   C47   1.487673 S    
C13   N5    1.439823 S    
C6    H4    1.082610 S    
C3    C20   1.451957 S    
O2    Cu2   1.955599 S    
C5    C7    1.395495 A    
C24   C34   1.397868 A    
O5    Cu1   1.966628 S    
C19   C21   1.413414 A    
C40   C42   1.405977 A    
C8    C10   1.402145 A    
C51   H27   1.111024 S    
C51   H26   1.111659 S    
C27   C52   1.523473 S    
C28   C49   1.524068 S    
C32   H16   1.084005 S    
C31   C33   1.385495 A    
Cu1   Cu2   2.714357 S    
H1    C15   1.082257 S    
C24   C26   1.417008 A    
C44   H22   1.084276 S    
C10   C21   1.482211 S    
C14   C16   1.406713 A    
C43   H21   1.084360 S    
C34   H11   1.080731 S    
