data_mof_unit_16158.cif
_audit_creation_date              2012-10-26T20:38:23-0400
_audit_creation_method            fapswitch 2.2
_symmetry_space_group_name_H-M    P1
_symmetry_Int_Tables_number       1
_space_group_crystal_system       triclinic
_cell_length_a                    15.888874
_cell_length_b                    11.081364
_cell_length_c                    9.898389
_cell_angle_alpha                 112.642907
_cell_angle_beta                  98.422803
_cell_angle_gamma                 90.460696
_cell_volume                      1587.16466149

loop_
_atom_site_label
_atom_site_type_symbol
_atom_type_description
_atom_site_fract_x
_atom_site_fract_y
_atom_site_fract_z
_atom_type_partial_charge
C1    C     C_R   0.493936 0.253107 0.438436 0.521007
C2    C     C_3   0.023250 0.571539 0.422528 -0.129361
C3    C     C_3   0.022078 0.383799 0.447731 0.253570
C4    C     C_3   0.978655 0.628695 0.560920 0.266183
C5    C     C_1   0.250762 0.501573 0.503389 0.039402
C6    C     C_1   0.749292 0.501212 0.497644 0.011886
C7    C     C_3   0.040740 0.565339 0.644310 0.008375
C8    C     C_3   0.960974 0.447449 0.363650 0.007212
C9    C     C_3   0.084146 0.506143 0.506266 0.035504
C10   C     C_3   0.916500 0.505918 0.501124 -0.006299
C11   C     C_1   0.175524 0.503386 0.504888 0.057529
C12   C     C_R   0.506153 0.746876 0.561574 0.518012
C13   C     C_1   0.824737 0.503112 0.498389 0.002135
C14   C     C_2   0.489639 0.111158 0.399229 -0.015080
C15   C     C_2   0.510687 0.888808 0.600932 -0.015052
C16   C     C_3   0.985337 0.162754 0.369819 -0.002537
C17   C     C_3   0.011541 0.026600 0.281800 -0.352974
C18   C     C_3   0.905271 0.786634 0.722786 -0.001643
C19   C     C_3   0.921183 0.928802 0.831583 -0.359779
C20   C     C_2   0.919922 0.380902 0.204675 0.233882
C21   C     C_2   0.084339 0.631817 0.801954 0.261786
C22   C     C_2   0.536569 0.976410 0.760104 0.229593
C23   C     C_2   0.507270 0.068444 0.509859 -0.104729
C24   C     C_2   0.465426 0.023220 0.239789 0.232962
C25   C     C_2   0.602666 0.652847 0.952018 0.407974
C26   C     C_2   0.397730 0.346563 0.047763 0.414161
C27   C     C_2   0.492029 0.931778 0.490704 -0.102397
C28   C     C_2   0.504116 0.513382 0.082119 0.077838
C29   C     C_2   0.495742 0.486801 0.917909 0.078740
C30   C     C_R   0.340022 0.500064 0.500946 0.556286
C31   C     C_R   0.659966 0.500054 0.499101 0.550619
C32   C     C_3   0.978047 0.441153 0.586681 -0.189761
Cu1   Cu    Cu3+1 0.514700 0.521810 0.644910 0.998710
Cu2   Cu    Cu3+1 0.485300 0.478190 0.355090 1.002998
H1    H     H_    0.959176 0.388693 0.654344 0.112008
H2    H     H_    0.960520 0.951764 0.268047 0.116561
H3    H     H_    0.022036 0.019176 0.170499 0.153979
H4    H     H_    0.914412 0.723488 0.787548 0.105422
H5    H     H_    0.838018 0.771168 0.666019 0.149547
H6    H     H_    0.908651 0.995187 0.771816 0.171769
H7    H     H_    0.878309 0.949750 0.915851 0.108219
H8    H     H_    0.988432 0.947539 0.888650 0.163206
H9    H     H_    0.959533 0.342999 0.119131 0.113096
H10   H     H_    0.046771 0.665270 0.890900 0.089146
H11   H     H_    0.581533 0.944451 0.831078 0.123810
H12   H     H_    0.042024 0.626047 0.356843 0.129363
H13   H     H_    0.421721 0.055067 0.167077 0.133597
H14   H     H_    0.607882 0.742861 0.933883 0.123780
H15   H     H_    0.393087 0.256295 0.065518 0.129441
H16   H     H_    0.466225 0.861388 0.380777 0.200342
H17   H     H_    0.532075 0.139091 0.620118 0.199164
H18   H     H_    0.451377 0.408122 0.839419 0.187185
H19   H     H_    0.548302 0.592317 0.160634 0.187639
H20   H     H_    0.924069 0.177613 0.309385 0.148393
H21   H     H_    0.975577 0.167038 0.480546 0.146204
H22   H     H_    0.071365 0.006948 0.341095 0.181742
N1    N     N_2   0.463210 0.445420 0.137360 -0.268775
N2    N     N_2   0.536790 0.554580 0.862640 -0.265579
O1    O     O_R   0.507840 0.332340 0.577400 -0.508303
O2    O     O_3   0.960247 0.761907 0.616586 -0.540620
O3    O     O_2   0.842442 0.368732 0.170599 -0.479439
O4    O     O_2   0.161933 0.648096 0.831429 -0.466230
O5    O     O_2   0.504115 0.079927 0.815541 -0.521667
O6    O     O_2   0.497901 0.919417 0.186199 -0.524095
O7    O     O_2   0.657987 0.632963 0.039164 -0.516543
O8    O     O_2   0.342118 0.366135 0.960813 -0.508085
O9    O     O_R   0.492160 0.667660 0.422600 -0.509036
O10   O     O_R   0.483020 0.295500 0.332650 -0.524989
O11   O     O_R   0.516980 0.704500 0.667350 -0.524712
O12   O     O_R   0.391490 0.518400 0.622350 -0.475489
O13   O     O_R   0.608510 0.481600 0.377650 -0.474455
O14   O     O_R   0.366660 0.481570 0.377600 -0.498629
O15   O     O_R   0.633340 0.518430 0.622400 -0.505358
O16   O     O_3   0.050500 0.256612 0.385471 -0.548361

loop_
_geom_bond_atom_site_label_1
_geom_bond_atom_site_label_2
_ccdc_geom_bond_type
C14   C23   D    
Cu2   O9    S    
Cu2   N1    S    
C2    C4    S    
C28   H19   S    
C27   H16   S    
Cu1   N2    S    
C3    C9    S    
C17   H2    S    
C23   C27   S    
C1    C14   S    
C21   H10   S    
C15   C27   D    
C1    O10   A    
C17   H22   S    
C19   H8    S    
Cu1   O11   S    
C18   H5    S    
C22   H11   S    
C31   O13   A    
Cu1   Cu2   S    
C18   H4    S    
C16   H21   S    
Cu1   O1    S    
C10   C32   S    
C17   H3    S    
C28   N1    D    
C2    H12   S    
C6    C13   T    
C9    C11   S    
C25   H14   S    
C4    O2    S    
C21   O4    D    
C8    C20   S    
Cu1   O12   S    
C4    C7    S    
C16   O16   S    
Cu1   O15   S    
C28   C29   S    
C30   O12   A    
C12   O11   A    
C5    C11   T    
C12   C15   S    
C1    O1    A    
C3    C32   S    
C8    C10   S    
C26   N1    S    
C16   H20   S    
C31   O15   A    
C12   O9    A    
C16   C17   S    
C25   N2    S    
C4    C10   S    
C26   O8    D    
C32   H1    S    
Cu2   O14   S    
C24   H13   S    
C20   H9    S    
C25   O7    D    
C29   N2    D    
C18   O2    S    
C24   O6    D    
C3    C8    S    
C19   H6    S    
C26   H15   S    
C14   C24   S    
C20   O3    D    
C7    C9    S    
C3    O16   S    
C18   C19   S    
C6    C31   S    
C7    C32   S    
C22   O5    D    
C7    C21   S    
C2    C9    S    
C23   H17   S    
Cu2   O13   S    
C29   H18   S    
C15   C22   S    
C2    C8    S    
C30   O14   A    
C19   H7    S    
C5    C30   S    
Cu2   O10   S    
C10   C13   S    
