data_mof_unit_47737.cif
_audit_creation_date              2012-12-11T15:22:46-0500
_audit_creation_method            fapswitch 2.2
_symmetry_space_group_name_H-M    P1
_symmetry_Int_Tables_number       1
_space_group_crystal_system       triclinic
_cell_length_a                    22.399322
_cell_length_b                    13.014825
_cell_length_c                    26.989231
_cell_angle_alpha                 89.901482
_cell_angle_beta                  90.58778
_cell_angle_gamma                 90.007196
_cell_volume                      7867.5628071

loop_
_atom_site_label
_atom_site_type_symbol
_atom_type_description
_atom_site_fract_x
_atom_site_fract_y
_atom_site_fract_z
_atom_type_partial_charge
C1    C     C_R   0.721158 0.345438 0.178308 0.549644
C2    C     C_R   0.477371 0.255850 0.897106 -0.167030
C3    C     C_R   0.022957 0.635065 0.554911 -0.096943
C4    C     C_R   0.493358 0.078008 0.390687 0.226894
C5    C     C_R   0.514486 0.134267 0.606253 0.227306
C6    C     C_R   0.993371 0.577998 0.390692 0.226889
C7    C     C_R   0.014482 0.634243 0.606252 0.227304
C8    C     C_R   0.734996 0.975513 0.376307 0.017830
C9    C     C_R   0.265760 0.976101 0.623454 0.017516
C10   C     C_R   0.234998 0.475505 0.376305 0.017831
C11   C     C_R   0.765760 0.476106 0.623453 0.017518
C12   C     C_R   0.681854 0.961104 0.402630 -0.093953
C13   C     C_R   0.023815 0.756024 0.102440 -0.167804
C14   C     C_R   0.318926 0.954395 0.598272 -0.098359
C15   C     C_R   0.181856 0.461100 0.402629 -0.093952
C16   C     C_R   0.818927 0.454400 0.598271 -0.098358
C17   C     C_R   0.682891 0.956826 0.453804 -0.066539
C18   C     C_R   0.319333 0.949713 0.547063 -0.038223
C19   C     C_R   0.182895 0.456816 0.453803 -0.066537
C20   C     C_R   0.819335 0.449722 0.547062 -0.038238
C21   C     C_R   0.737170 0.962483 0.479586 0.054879
C22   C     C_R   0.266326 0.962429 0.520027 0.065187
C23   C     C_R   0.237174 0.462464 0.479584 0.054880
C24   C     C_R   0.977371 0.755850 0.897106 -0.167031
C25   C     C_R   0.766328 0.462442 0.520025 0.065176
C26   C     C_R   0.790957 0.976182 0.453580 0.034676
C27   C     C_R   0.212664 0.984160 0.544981 0.009203
C28   C     C_R   0.290961 0.476155 0.453577 0.034673
C29   C     C_R   0.712666 0.484175 0.544979 0.009205
C30   C     C_R   0.789502 0.982968 0.402009 -0.097812
C31   C     C_R   0.212714 0.990755 0.596515 -0.103145
C32   C     C_R   0.289505 0.482948 0.402006 -0.097811
C33   C     C_R   0.712715 0.490766 0.596513 -0.103142
C34   C     C_R   0.760707 0.014927 0.565905 -0.095626
C35   C     C_R   0.510489 0.258243 0.051462 -0.018545
C36   C     C_R   0.244699 0.015930 0.433230 -0.075675
C37   C     C_R   0.260712 0.514915 0.565900 -0.095632
C38   C     C_R   0.744702 0.515938 0.433228 -0.075688
C39   C     C_R   0.721924 0.348512 0.321014 0.582674
C40   C     C_R   0.278169 0.348623 0.678989 0.578280
C41   C     C_R   0.221924 0.848512 0.321014 0.582677
C42   C     C_R   0.778169 0.848624 0.678990 0.578276
C43   C     C_R   0.771337 0.988800 0.615263 0.252125
C44   C     C_R   0.232050 0.989354 0.384213 0.235398
C45   C     C_R   0.271340 0.488793 0.615260 0.252122
C46   C     C_R   0.491012 0.258119 0.948025 -0.018608
C47   C     C_R   0.732052 0.489359 0.384211 0.235397
C48   C     C_R   0.728471 0.820142 0.599474 -0.106675
C49   C     C_R   0.271654 0.818579 0.400432 -0.107203
C50   C     C_R   0.228472 0.320134 0.599475 -0.106670
C51   C     C_R   0.771653 0.318582 0.400433 -0.107205
C52   C     C_R   0.719010 0.845523 0.550293 0.266295
C53   C     C_R   0.282616 0.843947 0.449379 0.231463
C54   C     C_R   0.219012 0.345511 0.550292 0.266298
C55   C     C_R   0.782615 0.343953 0.449379 0.231471
C56   C     C_R   0.737331 0.942024 0.532855 -0.008146
C57   C     C_R   0.010489 0.758243 0.051462 -0.018545
C58   C     C_R   0.266633 0.941907 0.466630 -0.010137
C59   C     C_R   0.237335 0.442009 0.532852 -0.008151
C60   C     C_R   0.766634 0.441917 0.466629 -0.010138
C61   C     C_R   0.757176 0.889163 0.631640 0.004981
C62   C     C_R   0.243584 0.888584 0.368275 0.000135
C63   C     C_R   0.257177 0.389159 0.631638 0.004986
C64   C     C_R   0.743585 0.388587 0.368274 0.000134
C65   C     C_R   0.553127 0.158226 0.321191 0.563382
C66   C     C_R   0.444856 0.158718 0.678020 0.593074
C67   C     C_R   0.053127 0.658226 0.321191 0.563375
C68   C     C_R   0.991012 0.758119 0.948025 -0.018608
C69   C     C_R   0.944855 0.658718 0.678020 0.593068
C70   C     C_R   0.730681 0.005771 0.324323 0.548840
C71   C     C_R   0.269541 0.006317 0.675503 0.552387
C72   C     C_R   0.230681 0.505769 0.324323 0.548837
C73   C     C_R   0.769541 0.506319 0.675502 0.552393
C74   C     C_R   0.503062 0.073791 0.105108 0.212044
C75   C     C_R   0.496913 0.073233 0.894931 0.212511
C76   C     C_R   0.003062 0.573791 0.105108 0.212044
C77   C     C_R   0.996913 0.573233 0.894931 0.212510
C78   C     C_R   0.502149 0.069629 0.052666 -0.008530
C79   C     C_R   0.503339 0.163718 0.025939 0.003506
C80   C     C_R   0.498019 0.069349 0.947384 -0.008705
C81   C     C_R   0.002149 0.569628 0.052666 -0.008529
C82   C     C_R   0.998019 0.569349 0.947384 -0.008705
C83   C     C_R   0.498270 0.975292 0.974105 -0.048745
C84   C     C_R   0.501475 0.975425 0.026225 -0.048789
C85   C     C_R   0.998269 0.475292 0.974106 -0.048745
C86   C     C_R   0.001475 0.475425 0.026225 -0.048788
C87   C     C_1   0.488812 0.877352 0.949423 0.279798
C88   C     C_1   0.510540 0.877524 0.051202 0.280089
C89   C     C_1   0.988811 0.377352 0.949423 0.279798
C90   C     C_R   0.497498 0.163615 0.973833 0.003475
C91   C     C_1   0.010540 0.377524 0.051202 0.280090
C92   C     C_1   0.847733 0.984744 0.479015 0.310809
C93   C     C_1   0.157786 0.005054 0.518552 0.270551
C94   C     C_1   0.347739 0.484701 0.479010 0.310780
C95   C     C_1   0.657789 0.505078 0.518550 0.270579
C96   C     C_1   0.489296 0.449606 0.947869 0.190274
C97   C     C_1   0.514271 0.449659 0.050931 0.189848
C98   C     C_1   0.989296 0.949606 0.947869 0.190274
C99   C     C_1   0.014272 0.949659 0.050931 0.189848
C100  C     C_1   0.664405 0.785633 0.975318 0.196265
C101  C     C_R   0.003339 0.663718 0.025939 0.003506
C102  C     C_1   0.335593 0.785608 0.025000 0.196071
C103  C     C_1   0.164405 0.285634 0.975318 0.196265
C104  C     C_1   0.835592 0.285607 0.025000 0.196071
C105  C     C_1   0.667771 0.770538 0.871153 0.280097
C106  C     C_1   0.332649 0.771903 0.129247 0.280356
C107  C     C_1   0.167771 0.270539 0.871153 0.280097
C108  C     C_1   0.832649 0.271903 0.129247 0.280356
C109  C     C_R   0.278853 0.345286 0.821719 0.550589
C110  C     C_R   0.997498 0.663615 0.973833 0.003475
C111  C     C_R   0.507107 0.352306 0.025245 -0.026087
C112  C     C_R   0.495372 0.352272 0.973912 -0.026233
C113  C     C_R   0.007108 0.852306 0.025245 -0.026087
C114  C     C_R   0.995372 0.852272 0.973912 -0.026233
C115  C     C_R   0.735886 0.966652 0.128391 0.027556
C116  C     C_R   0.264078 0.966174 0.871551 0.027680
C117  C     C_R   0.235886 0.466652 0.128391 0.027557
C118  C     C_R   0.764078 0.466174 0.871551 0.027680
C119  C     C_R   0.791361 0.945391 0.107268 -0.107895
C120  C     C_R   0.221158 0.845438 0.178308 0.549644
C121  C     C_R   0.208600 0.944606 0.892633 -0.106753
C122  C     C_R   0.291361 0.445390 0.107269 -0.107895
C123  C     C_R   0.708600 0.444606 0.892633 -0.106752
C124  C     C_R   0.794839 0.926104 0.056538 -0.105571
C125  C     C_R   0.205077 0.925283 0.943380 -0.105441
C126  C     C_R   0.294839 0.426103 0.056538 -0.105571
C127  C     C_R   0.705077 0.425283 0.943380 -0.105440
C128  C     C_R   0.743108 0.931027 0.026648 0.030394
C129  C     C_R   0.256765 0.930503 0.973296 0.030385
C130  C     C_R   0.243108 0.431027 0.026648 0.030394
C131  C     C_R   0.778853 0.845286 0.821719 0.550590
C132  C     C_R   0.756765 0.430503 0.973296 0.030385
C133  C     C_R   0.688105 0.954384 0.047906 -0.099408
C134  C     C_R   0.311769 0.954096 0.952066 -0.099624
C135  C     C_R   0.188104 0.454384 0.047906 -0.099408
C136  C     C_R   0.811769 0.454095 0.952066 -0.099624
C137  C     C_R   0.552774 0.157324 0.177870 0.566818
C138  C     C_R   0.447286 0.157209 0.822089 0.572952
C139  C     C_R   0.052775 0.657324 0.177870 0.566816
C140  C     C_R   0.947286 0.657209 0.822089 0.572950
C141  C     C_R   0.684270 0.969569 0.098426 -0.112088
C142  C     C_R   0.477677 0.163390 0.870898 0.008496
C143  C     C_R   0.315657 0.969281 0.901541 -0.112574
C144  C     C_R   0.184270 0.469570 0.098426 -0.112088
C145  C     C_R   0.815657 0.469281 0.901541 -0.112574
C146  C     C_R   0.706864 0.847542 0.947934 -0.015891
C147  C     C_R   0.293137 0.847649 0.052206 -0.016042
C148  C     C_R   0.206864 0.347542 0.947934 -0.015891
C149  C     C_R   0.793137 0.347649 0.052206 -0.016042
C150  C     C_R   0.711563 0.834540 0.896433 -0.028713
C151  C     C_R   0.288572 0.835127 0.103747 -0.029108
C152  C     C_R   0.211563 0.334540 0.896433 -0.028713
C153  C     C_R   0.522675 0.163765 0.128944 0.006672
C154  C     C_R   0.788572 0.335126 0.103747 -0.029108
C155  C     C_R   0.796190 0.952324 0.895954 -0.122946
C156  C     C_R   0.203616 0.952206 0.103873 -0.123405
C157  C     C_R   0.296190 0.452324 0.895954 -0.122947
C158  C     C_R   0.703616 0.452207 0.103873 -0.123405
C159  C     C_R   0.789367 0.969252 0.946250 -0.129066
C160  C     C_R   0.210382 0.968861 0.053531 -0.129162
C161  C     C_R   0.289367 0.469251 0.946250 -0.129067
C162  C     C_R   0.710382 0.468861 0.053532 -0.129162
C163  C     C_R   0.746403 0.914917 0.972890 -0.000259
C164  C     C_R   0.977677 0.663390 0.870898 0.008495
C165  C     C_R   0.253437 0.914592 0.027063 -0.000297
C166  C     C_R   0.246403 0.414917 0.972890 -0.000259
C167  C     C_R   0.753437 0.414592 0.027063 -0.000297
C168  C     C_R   0.759425 0.881948 0.870770 -0.000472
C169  C     C_R   0.240569 0.882259 0.129249 -0.001240
C170  C     C_R   0.259425 0.381948 0.870770 -0.000473
C171  C     C_R   0.740569 0.382259 0.129249 -0.001241
C172  C     C_R   0.521104 0.165046 0.368907 -0.022463
C173  C     C_R   0.459611 0.166763 0.625447 0.004810
C174  C     C_R   0.021104 0.665043 0.368907 -0.022464
C175  C     C_R   0.022675 0.663765 0.128944 0.006671
C176  C     C_R   0.959613 0.666765 0.625447 0.004798
C177  C     C_R   0.525859 0.255776 0.396820 -0.132072
C178  C     C_R   0.413317 0.196579 0.592964 -0.122992
C179  C     C_R   0.025844 0.755782 0.396815 -0.132067
C180  C     C_R   0.913324 0.696610 0.592966 -0.122990
C181  C     C_R   0.508574 0.257589 0.446361 0.260412
C182  C     C_R   0.421133 0.194410 0.541842 0.261690
C183  C     C_R   0.008559 0.757599 0.446356 0.260438
C184  C     C_R   0.921139 0.694442 0.541843 0.261720
C185  C     C_R   0.730912 0.002950 0.179207 0.542239
C186  C     C_R   0.523815 0.256024 0.102440 -0.167804
C187  C     C_R   0.269059 0.002751 0.820754 0.545601
C188  C     C_R   0.230912 0.502950 0.179207 0.542238
C189  C     C_R   0.769060 0.502751 0.820754 0.545603
C190  C     C_R   0.487230 0.168021 0.469013 0.025022
C191  C     C_R   0.476485 0.165008 0.522626 0.025302
C192  C     C_R   0.987230 0.668025 0.469013 0.025021
C193  C     C_R   0.976486 0.665017 0.522626 0.025295
C194  C     C_R   0.477678 0.079887 0.440643 -0.100928
C195  C     C_R   0.522961 0.135085 0.554912 -0.096906
C196  C     C_R   0.977692 0.579881 0.440649 -0.100960
Cl1   Cl    Cl    0.529001 0.974761 0.858322 -0.528204
Cl2   Cl    Cl    0.360290 0.225493 0.502826 -0.582063
Cl3   Cl    Cl    0.015694 0.872149 0.479886 -0.512949
Cl4   Cl    Cl    0.860300 0.725550 0.502829 -0.582032
Cl5   Cl    Cl    0.803264 0.081710 0.654815 -0.489990
Cl6   Cl    Cl    0.200967 0.083065 0.344530 -0.493129
Cl7   Cl    Cl    0.303266 0.581707 0.654810 -0.489997
Cl8   Cl    Cl    0.700971 0.583068 0.344526 -0.493141
Cl9   Cl    Cl    0.689860 0.750098 0.510843 -0.582340
Cl10  Cl    Cl    0.310524 0.746389 0.488496 -0.633434
Cl11  Cl    Cl    0.189859 0.250085 0.510845 -0.582321
Cl12  Cl    Cl    0.470386 0.975951 0.141919 -0.528430
Cl13  Cl    Cl    0.810520 0.246397 0.488499 -0.633441
Cl14  Cl    Cl    0.029001 0.474761 0.858322 -0.528202
Cl15  Cl    Cl    0.970386 0.475952 0.141919 -0.528435
Cl16  Cl    Cl    0.573114 0.093195 0.645381 -0.520792
Cl17  Cl    Cl    0.477306 0.964230 0.357738 -0.495843
Cl18  Cl    Cl    0.073103 0.593135 0.645378 -0.520790
Cl19  Cl    Cl    0.977333 0.464205 0.357750 -0.495845
Cl20  Cl    Cl    0.515726 0.372127 0.479898 -0.512982
Cr1   Cr    Cr6+3 0.756570 0.170940 0.251190 1.087973
Cr2   Cr    Cr6+3 0.374010 0.036240 0.749520 1.112152
Cr3   Cr    Cr6+3 0.125990 0.536240 0.250480 1.132747
Cr4   Cr    Cr6+3 0.874010 0.536240 0.749520 1.112161
Cr5   Cr    Cr6+3 0.243430 0.170940 0.748810 1.083061
Cr6   Cr    Cr6+3 0.256570 0.670940 0.251190 1.087975
Cr7   Cr    Cr6+3 0.743430 0.670940 0.748810 1.083060
Cr8   Cr    Cr6+3 0.623740 0.299110 0.249580 1.081003
Cr9   Cr    Cr6+3 0.376260 0.299110 0.750420 1.093125
Cr10  Cr    Cr6+3 0.123740 0.799110 0.249580 1.081002
Cr11  Cr    Cr6+3 0.876260 0.799110 0.750420 1.093120
Cr12  Cr    Cr6+3 0.625990 0.036240 0.250480 1.132743
H1    H     H_    0.832346 0.991162 0.877253 0.167570
H2    H     H_    0.358728 0.989614 0.886445 0.147675
H3    H     H_    0.141190 0.489669 0.113537 0.147730
H4    H     H_    0.858728 0.489613 0.886445 0.147676
H5    H     H_    0.545748 0.324107 0.381018 0.183555
H6    H     H_    0.370088 0.218020 0.607448 0.137350
H7    H     H_    0.045721 0.824119 0.381009 0.183555
H8    H     H_    0.870098 0.718068 0.607450 0.137362
H9    H     H_    0.565656 0.111892 0.540059 0.152589
H10   H     H_    0.458926 0.011828 0.457692 0.167196
H11   H     H_    0.065648 0.611852 0.540057 0.152583
H12   H     H_    0.167355 0.990848 0.122458 0.168180
H13   H     H_    0.958951 0.511817 0.457701 0.167191
H14   H     H_    0.638848 0.958339 0.383947 0.173149
H15   H     H_    0.361093 0.946079 0.617868 0.158878
H16   H     H_    0.138849 0.458343 0.383947 0.173158
H17   H     H_    0.861093 0.446080 0.617867 0.158883
H18   H     H_    0.773160 0.090358 0.552817 0.211829
H19   H     H_    0.234413 0.092603 0.445970 0.227352
H20   H     H_    0.273166 0.590344 0.552811 0.211832
H21   H     H_    0.734418 0.592613 0.445966 0.227340
H22   H     H_    0.641287 0.947214 0.473453 0.160406
H23   H     H_    0.332346 0.491162 0.877253 0.167569
H24   H     H_    0.361057 0.934887 0.528386 0.168168
H25   H     H_    0.141291 0.447209 0.473453 0.160407
H26   H     H_    0.861059 0.434894 0.528385 0.168166
H27   H     H_    0.717407 0.742979 0.611493 0.165618
H28   H     H_    0.281054 0.740693 0.388621 0.170677
H29   H     H_    0.217407 0.242973 0.611495 0.165623
H30   H     H_    0.781051 0.240695 0.388623 0.170669
H31   H     H_    0.830488 0.996945 0.382038 0.153574
H32   H     H_    0.171925 0.011141 0.615449 0.156409
H33   H     H_    0.330491 0.496920 0.382034 0.153568
H34   H     H_    0.667356 0.490848 0.122458 0.168180
H35   H     H_    0.671927 0.511154 0.615448 0.156412
H36   H     H_    0.464948 0.325684 0.877742 0.154807
H37   H     H_    0.536647 0.325714 0.121631 0.154890
H38   H     H_    0.964949 0.825684 0.877742 0.154807
H39   H     H_    0.036647 0.825714 0.121631 0.154890
H40   H     H_    0.831696 0.945242 0.129753 0.146209
H41   H     H_    0.168297 0.944316 0.870109 0.147780
H42   H     H_    0.331696 0.445241 0.129753 0.146209
H43   H     H_    0.668297 0.444317 0.870109 0.147781
H44   H     H_    0.837817 0.908826 0.040486 0.125719
H45   H     H_    0.648157 0.962744 0.025273 0.127051
H46   H     H_    0.162102 0.907820 0.959426 0.125763
H47   H     H_    0.337817 0.408825 0.040486 0.125719
H48   H     H_    0.662102 0.407821 0.959426 0.125764
H49   H     H_    0.819043 0.022907 0.964804 0.153565
H50   H     H_    0.180587 0.022204 0.034814 0.154010
H51   H     H_    0.319044 0.522907 0.964804 0.153564
H52   H     H_    0.680587 0.522204 0.034814 0.154010
H53   H     H_    0.351668 0.962688 0.974726 0.126771
H54   H     H_    0.148157 0.462745 0.025272 0.127051
H55   H     H_    0.851668 0.462687 0.974726 0.126771
H56   H     H_    0.641189 0.989668 0.113537 0.147730
N1    N     N_1   0.481124 0.798938 0.930194 -0.166256
N2    N     N_1   0.520013 0.527239 0.071330 -0.234015
N3    N     N_1   0.984435 0.027175 0.927183 -0.232839
N4    N     N_1   0.020014 0.027239 0.071330 -0.234015
N5    N     N_1   0.630641 0.736018 0.997017 -0.260942
N6    N     N_1   0.369343 0.735864 0.003446 -0.261866
N7    N     N_1   0.130641 0.236019 0.997017 -0.260942
N8    N     N_1   0.869343 0.235863 0.003446 -0.261867
N9    N     N_1   0.632636 0.719606 0.851241 -0.201034
N10   N     N_1   0.368001 0.721591 0.149339 -0.198273
N11   N     N_1   0.132636 0.219606 0.851241 -0.201032
N12   N     N_1   0.517924 0.799138 0.070664 -0.165266
N13   N     N_1   0.868001 0.221591 0.149339 -0.198275
N14   N     N_1   0.981124 0.298938 0.930194 -0.166255
N15   N     N_1   0.017924 0.299138 0.070664 -0.165266
N16   N     N_1   0.893029 0.992280 0.499657 -0.114061
N17   N     N_1   0.114205 0.024176 0.497175 -0.114396
N18   N     N_1   0.393036 0.492223 0.499651 -0.114089
N19   N     N_1   0.614209 0.524208 0.497173 -0.114384
N20   N     N_1   0.484434 0.527175 0.927183 -0.232840
O1    O     O_R   0.769900 0.064540 0.196060 -0.498975
O2    O     O_R   0.433710 0.069580 0.694600 -0.477210
O3    O     O_R   0.066290 0.569580 0.305400 -0.443414
O4    O     O_R   0.933710 0.569580 0.694600 -0.477194
O5    O     O_R   0.680760 0.993330 0.302620 -0.491224
O6    O     O_R   0.319240 0.993330 0.697380 -0.499390
O7    O     O_R   0.180760 0.493330 0.302620 -0.491221
O8    O     O_R   0.819240 0.493330 0.697380 -0.499388
O9    O     O_3   0.668770 0.168760 0.250420 -0.290041
O10   O     O_3   0.331230 0.168760 0.749580 -0.293673
O11   O     O_3   0.168770 0.668760 0.250420 -0.290040
O12   O     O_R   0.230100 0.064540 0.803940 -0.497107
O13   O     O_3   0.831230 0.668760 0.749580 -0.293673
O14   O     O_R   0.750800 0.274080 0.199250 -0.490660
O15   O     O_R   0.249200 0.274080 0.800750 -0.490356
O16   O     O_R   0.250800 0.774080 0.199250 -0.490659
O17   O     O_R   0.749200 0.774080 0.800750 -0.490357
O18   O     O_R   0.669990 0.371670 0.194150 -0.505255
O19   O     O_R   0.330010 0.371670 0.805850 -0.505632
O20   O     O_R   0.169990 0.871670 0.194150 -0.505256
O21   O     O_R   0.830010 0.871670 0.805850 -0.505630
O22   O     O_R   0.574600 0.238480 0.197800 -0.515319
O23   O     O_R   0.269900 0.564540 0.196060 -0.498976
O24   O     O_R   0.425400 0.238480 0.802200 -0.513486
O25   O     O_R   0.074600 0.738480 0.197800 -0.515320
O26   O     O_R   0.925400 0.738480 0.802200 -0.513487
O27   O     O_R   0.566130 0.068680 0.194240 -0.446683
O28   O     O_R   0.433870 0.068680 0.805760 -0.448124
O29   O     O_R   0.066130 0.568680 0.194240 -0.446684
O30   O     O_R   0.933870 0.568680 0.805760 -0.448122
O31   O     O_R   0.680610 0.992490 0.199570 -0.495551
O32   O     O_R   0.319390 0.992490 0.800430 -0.495232
O33   O     O_R   0.180610 0.492490 0.199570 -0.495551
O34   O     O_R   0.730100 0.564540 0.803940 -0.497106
O35   O     O_R   0.819390 0.492490 0.800430 -0.495232
O36   O     O_R   0.770060 0.065440 0.307230 -0.513299
O37   O     O_R   0.229940 0.065440 0.692770 -0.512071
O38   O     O_R   0.270060 0.565440 0.307230 -0.513299
O39   O     O_R   0.729940 0.565440 0.692770 -0.512071
O40   O     O_R   0.750960 0.274920 0.302300 -0.506240
O41   O     O_R   0.249040 0.274920 0.697700 -0.510442
O42   O     O_R   0.250960 0.774920 0.302300 -0.506239
O43   O     O_R   0.749040 0.774920 0.697700 -0.510443
O44   O     O_R   0.670160 0.372580 0.305320 -0.455017
O45   O     O_R   0.574760 0.239320 0.300850 -0.511854
O46   O     O_R   0.329840 0.372580 0.694680 -0.451959
O47   O     O_R   0.170160 0.872580 0.305320 -0.455015
O48   O     O_R   0.829840 0.872580 0.694680 -0.451962
O49   O     O_R   0.425240 0.239320 0.699150 -0.492735
O50   O     O_R   0.074760 0.739320 0.300850 -0.511855
O51   O     O_R   0.925240 0.739320 0.699150 -0.492746
O52   O     O_R   0.566290 0.069580 0.305400 -0.443421

loop_
_geom_bond_atom_site_label_1
_geom_bond_atom_site_label_2
_ccdc_geom_bond_type
C172  C177  A    
C104  N8    T    
C44   Cl6   S    
C21   C26   A    
C115  C141  A    
C34   C56   A    
Cr10  O11   S    
C46   C112  A    
Cr9   O49   S    
C6    C196  A    
C4    C194  A    
C69   O51   A    
C109  O19   A    
Cr11  O26   S    
C98   C114  S    
C38   H21   S    
C26   C92   S    
C184  C193  A    
C29   C33   A    
C17   H22   S    
C28   C94   S    
C79   C90   A    
C137  O27   A    
C134  C143  A    
C146  C150  A    
C2    H36   S    
C6    Cl19  S    
C40   O46   A    
C9    C31   A    
C34   H18   S    
C4    Cl17  S    
C25   C60   S    
C81   C86   A    
Cr9   O24   S    
C24   C164  A    
C94   N18   T    
C80   C83   A    
Cr1   O36   S    
C25   C29   A    
C134  H53   S    
C116  C121  A    
C27   C31   A    
C87   N1    T    
C28   C32   A    
C160  H50   S    
C47   C64   A    
C6    C174  A    
C101  C110  A    
Cr8   O44   S    
C155  H1    S    
C17   C21   A    
C19   C23   A    
C39   C64   S    
C55   Cl13  S    
C152  C170  A    
C181  C190  A    
C103  N7    T    
C156  C160  A    
C45   Cl7   S    
C150  C168  A    
C137  C153  S    
C187  O12   A    
C68   C110  A    
C178  C182  A    
C186  H37   S    
C145  H4    S    
C12   H14   S    
C22   C27   A    
C36   C44   A    
C37   C45   A    
C137  O22   A    
C43   C61   A    
C42   O43   A    
C13   C175  A    
C5    Cl16  S    
C73   O39   A    
C49   C62   A    
Cr8   O9    S    
C76   C175  A    
C51   C64   A    
C84   C88   S    
C22   C58   S    
C53   C58   A    
C82   C85   A    
C188  O33   A    
C196  H13   S    
C44   C62   A    
Cr9   O19   S    
C66   O2    A    
C120  O20   A    
C77   C82   A    
C97   C111  S    
C47   Cl8   S    
C181  Cl20  S    
C51   C55   A    
C143  H2    S    
C125  C129  A    
C48   C52   A    
C180  H8    S    
Cr2   O6    S    
Cr8   O45   S    
C20   C25   A    
C95   N19   T    
Cr4   O35   S    
C159  H49   S    
C88   N12   T    
C180  C184  A    
C187  O32   A    
C99   N4    T    
C190  C191  S    
C144  H3    S    
C111  C112  A    
C97   N2    T    
C1    O18   A    
Cr10  O20   S    
C67   O3    A    
C108  N13   T    
C13   H39   S    
C23   C59   S    
C3    C193  A    
Cr2   O32   S    
C39   O40   A    
C118  C189  S    
C49   C53   A    
C120  C169  S    
C13   C57   A    
C67   C174  S    
C39   O44   A    
C73   O8    A    
Cr3   O11   S    
C147  C165  A    
C19   H25   S    
C65   O52   A    
C158  H34   S    
C138  O24   A    
C72   O38   A    
Cr1   O14   S    
C31   H32   S    
C140  O26   A    
C70   O5    A    
Cr3   O33   S    
C77   C164  A    
C185  O1    A    
C50   C63   A    
C41   O47   A    
C135  H54   S    
C157  H23   S    
C54   C59   A    
C116  C187  S    
C133  H45   S    
C65   C172  S    
C155  C159  A    
C52   Cl9   S    
C11   C33   A    
C117  C144  A    
C178  H6    S    
C24   C68   A    
C57   C113  A    
Cr11  O51   S    
C129  C134  A    
C147  C151  A    
C117  C122  A    
Cr2   O2    S    
C141  H56   S    
C43   Cl5   S    
Cr3   O7    S    
C102  C147  S    
Cr7   O39   S    
Cr10  O25   S    
C123  C127  A    
C83   C84   A    
C8    C12   A    
C7    C176  A    
C53   Cl10  S    
C23   C28   A    
C194  H10   S    
C48   H27   S    
Cr12  O5    S    
C37   C59   A    
C77   Cl14  S    
Cr1   O40   S    
C38   C60   A    
C51   H30   S    
C26   C30   A    
C115  C119  A    
C2    C142  A    
Cr4   O8    S    
C121  H41   S    
Cr6   O42   S    
C98   N3    T    
C139  O25   A    
C123  H43   S    
C124  H44   S    
C4    C172  A    
C188  O23   A    
C24   H38   S    
C71   O37   A    
Cr1   O9    S    
C195  H9    S    
C118  C145  A    
C34   C43   A    
C148  C152  A    
C117  C188  S    
C20   H26   S    
C140  C164  S    
C70   O36   A    
C8    C70   S    
C151  C169  A    
C41   O42   A    
Cr7   O17   S    
C173  C178  A    
C35   C186  A    
C177  C181  A    
C119  H40   S    
C35   C79   A    
Cr3   O29   S    
C154  C171  A    
C69   O4    A    
C32   H33   S    
C191  C195  A    
C7    Cl18  S    
C176  C180  A    
C108  C154  S    
Cr6   O11   S    
C36   H19   S    
C96   N20   T    
C72   O7    A    
C10   C72   S    
C83   C87   S    
C148  C166  A    
C130  C135  A    
C149  C167  A    
C132  C167  S    
C183  C192  A    
C16   H17   S    
Cr4   O13   S    
C15   C19   A    
C105  C150  S    
C50   C54   A    
C40   C63   S    
C109  O15   A    
C192  C196  A    
C105  N9    T    
C3    C7    A    
C86   C91   S    
C189  O35   A    
C115  C185  S    
Cr12  O27   S    
C107  N11   T    
C153  C186  A    
C126  C130  A    
Cr9   O46   S    
Cr5   O41   S    
C12   C17   A    
C124  C128  A    
Cr5   O10   S    
Cr8   O18   S    
C18   C22   A    
C55   C60   A    
C5    C173  A    
C41   C62   S    
C131  O21   A    
C89   N14   T    
C125  H46   S    
C75   Cl1   S    
Cr9   O10   S    
Cr6   O16   S    
Cr7   O13   S    
C11   C73   S    
C49   H28   S    
C85   C89   S    
C81   C101  A    
C85   C86   A    
C138  O28   A    
C2    C46   A    
C140  O30   A    
C104  C149  S    
Cr8   O22   S    
C149  C154  A    
C100  N5    T    
C157  C170  A    
C11   C16   A    
C130  C166  S    
C27   C93   S    
C91   N15   T    
C155  C168  A    
C1    O14   A    
C160  C165  A    
C71   O6    A    
C66   O49   A    
C161  H51   S    
C182  C191  A    
C157  C161  A    
C57   C101  A    
C113  C114  A    
C162  H52   S    
C106  C151  S    
C67   O50   A    
C9    C71   S    
Cr3   O3    S    
C99   C113  S    
C21   C56   S    
Cr7   O43   S    
C46   C90   A    
C139  O29   A    
C33   H35   S    
C133  C141  A    
C129  C165  S    
C8    C30   A    
Cr12  O9    S    
C1    C171  S    
C118  C123  A    
Cr6   O38   S    
C122  H42   S    
C14   H15   S    
Cr5   O12   S    
C74   C78   A    
Cr11  O13   S    
C3    H11   S    
C126  H47   S    
C14   C18   A    
C139  C175  S    
C182  Cl2   S    
C127  H48   S    
C9    C14   A    
Cr10  O47   S    
Cr11  O21   S    
C74   Cl12  S    
C119  C124  A    
C156  H12   S    
C96   C112  S    
C37   H20   S    
C92   N16   T    
C82   C110  A    
C93   N17   T    
C36   C58   A    
C10   C15   A    
C158  C171  A    
C156  C169  A    
Cr12  O52   S    
C136  H55   S    
C127  C132  A    
C121  C125  A    
Cr11  O48   S    
Cr7   O34   S    
C18   H24   S    
C66   C173  S    
C69   C176  S    
Cr1   O1    S    
Cr4   O4    S    
C75   C80   A    
C185  O31   A    
C161  C166  A    
C16   C20   A    
C5    C195  A    
C106  N10   T    
Cr12  O31   S    
C103  C148  S    
C179  C183  A    
C189  O34   A    
Cr5   O15   S    
C138  C142  S    
Cr5   O37   S    
C30   H31   S    
C179  H7    S    
C100  C146  S    
C29   C95   S    
C190  C194  A    
C78   C79   A    
C177  H5    S    
C184  Cl4   S    
C45   C63   A    
C128  C163  S    
C183  Cl3   S    
C74   C153  A    
Cr10  O50   S    
C122  C126  A    
C75   C142  A    
C10   C32   A    
C116  C143  A    
C42   C61   S    
C38   C47   A    
C131  O17   A    
C42   O48   A    
C107  C152  S    
C76   Cl15  S    
C135  C144  A    
C131  C168  S    
C159  C163  A    
C35   C111  A    
C109  C170  S    
Cr6   O23   S    
C132  C136  A    
C15   H16   S    
C136  C145  A    
C76   C81   A    
C50   H29   S    
C40   O41   A    
C146  C163  A    
C102  N6    T    
C192  C193  S    
C65   O45   A    
C128  C133  A    
C48   C61   A    
Cr2   O28   S    
C120  O16   A    
C80   C90   A    
Cr4   O30   S    
C158  C162  A    
C162  C167  A    
C78   C84   A    
C54   Cl11  S    
Cr2   O10   S    
C174  C179  A    
C52   C56   A    
C68   C114  A    
