data_mof_unit_63978.cif
_audit_creation_date              2012-12-10T17:57:23-0500
_audit_creation_method            fapswitch 2.2
_symmetry_space_group_name_H-M    P1
_symmetry_Int_Tables_number       1
_space_group_crystal_system       triclinic
_cell_length_a                    30.841518
_cell_length_b                    29.377713
_cell_length_c                    30.660395
_cell_angle_alpha                 90.39886
_cell_angle_beta                  89.966646
_cell_angle_gamma                 90.141768
_cell_volume                      27779.188381

loop_
_atom_site_label
_atom_site_type_symbol
_atom_type_description
_atom_site_fract_x
_atom_site_fract_y
_atom_site_fract_z
_atom_type_partial_charge
C1    C     C_R   0.309118 0.000231 0.690570 0.825718
C2    C     C_R   0.638121 0.994995 0.579636 0.343734
C3    C     C_R   0.750067 0.084611 0.250097 0.789918
C4    C     C_R   0.249916 0.415390 0.249906 0.791199
C5    C     C_R   0.749954 0.584618 0.250027 0.797720
C6    C     C_R   0.750056 0.415382 0.249970 0.794916
C7    C     C_R   0.250067 0.584611 0.250097 0.791462
C8    C     C_R   0.097593 0.036428 0.878028 0.074523
C9    C     C_R   0.879044 0.962861 0.901467 0.119006
C10   C     C_R   0.597694 0.536503 0.878127 0.075338
C11   C     C_R   0.379927 0.462346 0.900530 0.130668
C12   C     C_R   0.597694 0.036503 0.378127 0.075339
C13   C     C_R   0.868305 0.531145 0.588056 0.339926
C14   C     C_R   0.379927 0.962346 0.400530 0.130668
C15   C     C_R   0.097593 0.536429 0.378029 0.074525
C16   C     C_R   0.879044 0.462860 0.401466 0.119005
C17   C     C_3   0.105041 0.085368 0.889160 -0.403487
C18   C     C_3   0.849771 0.942711 0.935061 -0.444270
C19   C     C_3   0.605269 0.585390 0.889392 -0.403486
C20   C     C_3   0.351143 0.440728 0.933705 -0.447796
C21   C     C_3   0.605270 0.085390 0.389392 -0.403486
C22   C     C_3   0.351142 0.940728 0.433705 -0.447797
C23   C     C_3   0.105042 0.585369 0.389161 -0.403488
C24   C     C_R   0.138106 0.494383 0.579675 0.343736
C25   C     C_3   0.849771 0.442709 0.435060 -0.444266
C26   C     C_3   0.139944 0.085446 0.854185 -0.488380
C27   C     C_3   0.813991 0.943725 0.901025 -0.452360
C28   C     C_3   0.640180 0.585469 0.854425 -0.488165
C29   C     C_3   0.315284 0.441738 0.899754 -0.462666
C30   C     C_3   0.640181 0.085469 0.354425 -0.488166
C31   C     C_3   0.315284 0.941738 0.399754 -0.462666
C32   C     C_3   0.139945 0.585446 0.354186 -0.488379
C33   C     C_3   0.813991 0.443723 0.401025 -0.452357
C34   C     C_R   0.939875 0.999822 0.940054 0.846713
C35   C     C_R   0.868306 0.031145 0.088056 0.339935
C36   C     C_R   0.060070 0.999848 0.939912 0.902065
C37   C     C_R   0.440029 0.499819 0.939890 0.851184
C38   C     C_R   0.560071 0.499848 0.939912 0.904930
C39   C     C_R   0.440029 0.999819 0.439890 0.851184
C40   C     C_R   0.560071 0.999848 0.439912 0.904930
C41   C     C_R   0.939875 0.499822 0.440054 0.846715
C42   C     C_R   0.060070 0.499848 0.439912 0.902065
C43   C     C_R   0.438584 0.000068 0.558572 0.895669
C44   C     C_R   0.559975 0.000227 0.559811 0.918794
C45   C     C_R   0.938755 0.500049 0.558748 0.878802
C46   C     C_R   0.138106 0.994383 0.079675 0.343736
C47   C     C_R   0.060002 0.500227 0.559789 0.916752
C48   C     C_R   0.938755 0.000048 0.058748 0.878803
C49   C     C_R   0.060002 0.000227 0.059789 0.916752
C50   C     C_R   0.438584 0.500068 0.058572 0.895669
C51   C     C_R   0.559975 0.500227 0.059811 0.918794
C52   C     C_R   0.190776 0.000348 0.809295 0.789264
C53   C     C_R   0.809284 0.000296 0.809342 0.792372
C54   C     C_R   0.690777 0.500348 0.809295 0.789762
C55   C     C_R   0.309279 0.500301 0.809337 0.791408
C56   C     C_R   0.690777 0.000348 0.309295 0.789762
C57   C     C_R   0.368583 0.531844 0.088538 0.419283
C58   C     C_R   0.309279 0.000301 0.309337 0.791408
C59   C     C_R   0.190776 0.500348 0.309295 0.789264
C60   C     C_R   0.809284 0.500296 0.309342 0.792372
C61   C     C_1   0.249743 0.864112 0.749775 -0.182862
C62   C     C_1   0.749832 0.135897 0.750041 -0.177996
C63   C     C_1   0.750184 0.864104 0.749966 -0.184101
C64   C     C_1   0.250222 0.135888 0.750242 -0.177883
C65   C     C_1   0.749742 0.364112 0.749775 -0.182492
C66   C     C_1   0.249833 0.635896 0.750041 -0.180287
C67   C     C_1   0.250186 0.364104 0.749967 -0.183472
C68   C     C_R   0.638121 0.494995 0.079636 0.343734
C69   C     C_1   0.750222 0.635888 0.750242 -0.181366
C70   C     C_1   0.749742 0.864112 0.249775 -0.182492
C71   C     C_1   0.249833 0.135896 0.250041 -0.180287
C72   C     C_1   0.250186 0.864104 0.249967 -0.183472
C73   C     C_1   0.750222 0.135888 0.250242 -0.181366
C74   C     C_1   0.249743 0.364112 0.249775 -0.182862
C75   C     C_1   0.749832 0.635896 0.250041 -0.177996
C76   C     C_1   0.750184 0.364104 0.249966 -0.184101
C77   C     C_1   0.250222 0.635888 0.250242 -0.177883
C78   C     C_1   0.249697 0.821633 0.749778 0.005708
C79   C     C_R   0.402888 0.999682 0.589450 -0.235876
C80   C     C_1   0.749770 0.178375 0.749995 0.009956
C81   C     C_1   0.750238 0.821626 0.750023 0.005404
C82   C     C_1   0.250267 0.178366 0.750251 0.010339
C83   C     C_1   0.749696 0.321633 0.749778 0.006576
C84   C     C_1   0.249771 0.678375 0.749996 0.007965
C85   C     C_1   0.250240 0.321626 0.750026 0.006521
C86   C     C_1   0.750266 0.678366 0.750250 0.007047
C87   C     C_1   0.749696 0.821633 0.249778 0.006576
C88   C     C_1   0.249771 0.178375 0.249996 0.007965
C89   C     C_1   0.250240 0.821626 0.250026 0.006521
C90   C     C_R   0.594315 0.001455 0.591540 -0.207975
C91   C     C_1   0.750266 0.178366 0.250250 0.007047
C92   C     C_1   0.249697 0.321633 0.249778 0.005708
C93   C     C_1   0.749770 0.678375 0.249995 0.009956
C94   C     C_1   0.750238 0.321626 0.250023 0.005404
C95   C     C_1   0.250267 0.678366 0.250250 0.010339
C96   C     C_1   0.249699 0.771243 0.749842 0.009625
C97   C     C_1   0.749722 0.228765 0.749912 0.011877
C98   C     C_1   0.750269 0.771235 0.750116 0.009470
C99   C     C_1   0.250278 0.228756 0.750192 0.012738
C100  C     C_1   0.749698 0.271243 0.749841 0.010788
C101  C     C_R   0.903045 0.499577 0.589565 -0.225335
C102  C     C_1   0.249723 0.728765 0.749913 0.010316
C103  C     C_1   0.250270 0.271235 0.750118 0.011213
C104  C     C_1   0.750278 0.728756 0.750190 0.010198
C105  C     C_1   0.749698 0.771243 0.249841 0.010788
C106  C     C_1   0.249723 0.228765 0.249913 0.010316
C107  C     C_1   0.250270 0.771235 0.250118 0.011213
C108  C     C_1   0.750278 0.228756 0.250190 0.010198
C109  C     C_1   0.249699 0.271243 0.249842 0.009626
C110  C     C_1   0.749722 0.728765 0.249912 0.011877
C111  C     C_1   0.750269 0.271235 0.250116 0.009470
C112  C     C_R   0.690736 0.000066 0.690417 0.823230
C113  C     C_R   0.094365 0.501453 0.591505 -0.207497
C114  C     C_1   0.250278 0.728756 0.250192 0.012738
C115  C     C_R   0.371110 0.965223 0.653265 0.105896
C116  C     C_R   0.615654 0.014554 0.666099 0.144335
C117  C     C_R   0.871545 0.465572 0.653724 0.109086
C118  C     C_R   0.115825 0.515093 0.665952 0.143317
C119  C     C_R   0.871545 0.965572 0.153724 0.109085
C120  C     C_R   0.115824 0.015093 0.165952 0.143318
C121  C     C_R   0.371110 0.465223 0.153265 0.105896
C122  C     C_R   0.615654 0.514554 0.166099 0.144335
C123  C     C_R   0.341118 0.000236 0.656415 -0.154470
C124  C     C_R   0.903045 0.999577 0.089565 -0.225334
C125  C     C_R   0.658238 0.002551 0.656311 -0.174160
C126  C     C_R   0.841092 0.500190 0.656340 -0.144881
C127  C     C_R   0.158274 0.502502 0.656288 -0.173704
C128  C     C_R   0.841092 0.000191 0.156341 -0.144880
C129  C     C_R   0.158274 0.002502 0.156288 -0.173705
C130  C     C_R   0.341118 0.500236 0.156415 -0.154470
C131  C     C_R   0.658238 0.502551 0.156311 -0.174160
C132  C     C_R   0.337757 0.031478 0.622231 -0.268029
C133  C     C_R   0.669874 0.995659 0.612339 -0.263160
C134  C     C_R   0.837389 0.530851 0.621675 -0.277816
C135  C     C_R   0.094365 0.001453 0.091505 -0.207497
C136  C     C_R   0.169852 0.495031 0.612385 -0.263043
C137  C     C_R   0.837389 0.030851 0.121675 -0.277818
C138  C     C_R   0.169852 0.995031 0.112385 -0.263043
C139  C     C_R   0.337757 0.531478 0.122231 -0.268030
C140  C     C_R   0.669874 0.495659 0.112339 -0.263161
C141  C     C_R   0.402888 0.499682 0.089450 -0.235876
C142  C     C_R   0.594315 0.501455 0.091540 -0.207975
C143  C     C_R   0.401314 0.964841 0.620204 0.082961
C144  C     C_R   0.584313 0.014424 0.634125 0.063594
C145  C     C_R   0.901835 0.465144 0.620744 0.092197
C146  C     C_R   0.084493 0.514981 0.633967 0.061849
C147  C     C_R   0.901835 0.965144 0.120744 0.092195
C148  C     C_R   0.809117 0.500301 0.690553 0.820644
C149  C     C_R   0.084493 0.014981 0.133967 0.061849
C150  C     C_R   0.401314 0.464841 0.120204 0.082961
C151  C     C_R   0.584313 0.514424 0.134125 0.063594
C152  C     C_3   0.435958 0.947342 0.649592 -0.466614
C153  C     C_3   0.550785 0.995800 0.664255 -0.517179
C154  C     C_3   0.936618 0.448590 0.650465 -0.473258
C155  C     C_3   0.050793 0.497030 0.664275 -0.518407
C156  C     C_3   0.936618 0.948590 0.150465 -0.473259
C157  C     C_3   0.050793 0.997030 0.164275 -0.518406
C158  C     C_3   0.435958 0.447342 0.149592 -0.466614
C159  C     C_R   0.190742 0.500051 0.690416 0.823356
C160  C     C_3   0.550785 0.495801 0.164255 -0.517177
C161  C     C_3   0.402564 0.947812 0.686023 -0.437025
C162  C     C_3   0.585329 0.995899 0.699482 -0.404487
C163  C     C_3   0.903120 0.449062 0.686793 -0.440256
C164  C     C_3   0.085319 0.497133 0.699513 -0.404059
C165  C     C_3   0.903120 0.949062 0.186793 -0.440257
C166  C     C_3   0.085319 0.997132 0.199513 -0.404060
C167  C     C_3   0.402564 0.447812 0.186023 -0.437024
C168  C     C_3   0.585329 0.495899 0.199482 -0.404486
C169  C     C_R   0.129369 0.036450 0.846306 0.111102
C170  C     C_R   0.809117 0.000301 0.190553 0.820644
C171  C     C_R   0.846545 0.963602 0.870547 0.089767
C172  C     C_R   0.629475 0.536527 0.846409 0.111011
C173  C     C_R   0.347361 0.463079 0.869682 0.093098
C174  C     C_R   0.629475 0.036528 0.346409 0.111011
C175  C     C_R   0.347361 0.963079 0.369682 0.093098
C176  C     C_R   0.129369 0.536450 0.346306 0.111101
C177  C     C_R   0.846546 0.463601 0.370546 0.089765
C178  C     C_R   0.157370 0.999577 0.841953 -0.057191
C179  C     C_R   0.842871 0.000069 0.842001 -0.063636
C180  C     C_R   0.657372 0.499582 0.841951 -0.057166
C181  C     C_R   0.190742 0.000051 0.190416 0.823356
C182  C     C_R   0.342857 0.500144 0.841987 -0.065074
C183  C     C_R   0.657371 0.999582 0.341951 -0.057165
C184  C     C_R   0.342857 0.000144 0.341987 -0.065074
C185  C     C_R   0.157370 0.499577 0.341953 -0.057190
C186  C     C_R   0.842871 0.500069 0.342001 -0.063635
C187  C     C_R   0.149443 0.959881 0.865757 -0.197533
C188  C     C_R   0.875454 0.033536 0.841603 -0.190192
C189  C     C_R   0.649324 0.459831 0.865630 -0.197068
C190  C     C_R   0.374734 0.534347 0.842261 -0.193230
C191  C     C_R   0.649324 0.959830 0.365630 -0.197069
C192  C     C_R   0.309118 0.500231 0.190570 0.825718
C193  C     C_R   0.374734 0.034347 0.342261 -0.193229
C194  C     C_R   0.149442 0.459881 0.365756 -0.197533
C195  C     C_R   0.875454 0.533537 0.341604 -0.190191
C196  C     C_R   0.116486 0.959391 0.897074 -0.112267
C197  C     C_R   0.907682 0.033518 0.873690 -0.186034
C198  C     C_R   0.616366 0.459344 0.896947 -0.112492
C199  C     C_R   0.407049 0.534282 0.874260 -0.217116
C200  C     C_R   0.616366 0.959344 0.396947 -0.112492
C201  C     C_R   0.407049 0.034282 0.374260 -0.217116
C202  C     C_R   0.116486 0.459391 0.397074 -0.112267
C203  C     C_R   0.690736 0.500066 0.190417 0.823230
C204  C     C_R   0.907682 0.533518 0.373691 -0.186031
C205  C     C_R   0.092055 0.998972 0.905254 -0.073781
C206  C     C_R   0.908216 0.999080 0.905262 -0.067869
C207  C     C_R   0.592050 0.498978 0.905246 -0.073552
C208  C     C_R   0.408381 0.499110 0.905063 -0.083563
C209  C     C_R   0.592050 0.998978 0.405246 -0.073552
C210  C     C_R   0.408381 0.999110 0.405063 -0.083562
C211  C     C_R   0.092056 0.498972 0.405254 -0.073782
C212  C     C_R   0.908216 0.499080 0.405262 -0.067870
C213  C     C_R   0.249916 0.915390 0.749906 0.791199
C214  C     C_R   0.368583 0.031844 0.588538 0.419283
C215  C     C_R   0.749954 0.084618 0.750027 0.797720
C216  C     C_R   0.750056 0.915382 0.749970 0.794916
C217  C     C_R   0.250067 0.084611 0.750097 0.791462
C218  C     C_R   0.749916 0.415390 0.749906 0.791902
C219  C     C_R   0.249954 0.584618 0.750027 0.796461
C220  C     C_R   0.250057 0.415382 0.749971 0.795475
C221  C     C_R   0.750067 0.584611 0.750097 0.789918
C222  C     C_R   0.749916 0.915390 0.249906 0.791902
C223  C     C_R   0.249954 0.084618 0.250027 0.796461
C224  C     C_R   0.250057 0.915382 0.249971 0.795475
Cu1   Cu    Cu3+1 0.280900 0.000000 0.780900 0.979334
Cu2   Cu    Cu3+1 0.780910 0.000000 0.719100 0.980513
Cu3   Cu    Cu3+1 0.719090 0.500000 0.719100 0.979746
Cu4   Cu    Cu3+1 0.280910 0.500000 0.719100 0.982043
Cu5   Cu    Cu3+1 0.719090 1.000000 0.219100 0.979746
Cu6   Cu    Cu3+1 0.280910 1.000000 0.219100 0.982043
Cu7   Cu    Cu3+1 0.219090 0.500000 0.219100 0.979185
Cu8   Cu    Cu3+1 0.780910 0.500000 0.219100 0.980513
Cu9   Cu    Cu3+1 1.000000 0.957530 0.999990 0.983275
Cu10  Cu    Cu3+1 1.000000 0.042470 0.999990 1.055960
Cu11  Cu    Cu3+1 0.500000 0.457530 0.999990 0.983895
Cu12  Cu    Cu3+1 0.719100 0.000000 0.780900 0.964343
Cu13  Cu    Cu3+1 0.500000 0.542470 0.999990 1.043490
Cu14  Cu    Cu3+1 0.500000 0.957530 0.499990 0.983895
Cu15  Cu    Cu3+1 0.500000 0.042470 0.499990 1.043490
Cu16  Cu    Cu3+1 1.000000 0.457530 0.499990 0.983275
Cu17  Cu    Cu3+1 1.000000 0.542470 0.499990 1.055958
Cu18  Cu    Cu3+1 0.780900 0.500000 0.780900 0.977232
Cu19  Cu    Cu3+1 0.219100 0.500000 0.780900 0.961159
Cu20  Cu    Cu3+1 0.780900 0.000000 0.280900 0.977232
Cu21  Cu    Cu3+1 0.219100 0.000000 0.280900 0.961159
Cu22  Cu    Cu3+1 0.280900 0.500000 0.280900 0.979333
Cu23  Cu    Cu3+1 0.719100 0.500000 0.280900 0.964343
Cu24  Cu    Cu3+1 0.219090 0.000000 0.719100 0.979185
H1    H     H_    0.312063 0.056552 0.622852 0.197709
H2    H     H_    0.524421 0.020698 0.670652 0.203021
H3    H     H_    0.539981 0.960997 0.654680 0.198921
H4    H     H_    0.462333 0.972517 0.654605 0.186983
H5    H     H_    0.947858 0.413823 0.641577 0.206169
H6    H     H_    0.024668 0.522269 0.670425 0.200393
H7    H     H_    0.039688 0.462237 0.655030 0.199430
H8    H     H_    0.962588 0.474262 0.655235 0.186443
H9    H     H_    0.947858 0.913823 0.141576 0.206169
H10   H     H_    0.024668 0.022268 0.170425 0.200393
H11   H     H_    0.039688 0.962236 0.155029 0.199430
H12   H     H_    0.703294 0.988939 0.603707 0.213002
H13   H     H_    0.962588 0.974261 0.155235 0.186444
H14   H     H_    0.446671 0.412525 0.140220 0.205458
H15   H     H_    0.524421 0.520698 0.170653 0.203021
H16   H     H_    0.539981 0.460997 0.154680 0.198920
H17   H     H_    0.462334 0.472517 0.154605 0.186983
H18   H     H_    0.393777 0.913211 0.697561 0.196292
H19   H     H_    0.578796 0.020762 0.726164 0.200557
H20   H     H_    0.594484 0.961187 0.710358 0.199436
H21   H     H_    0.409888 0.973064 0.712207 0.211338
H22   H     H_    0.894750 0.414497 0.698730 0.197503
H23   H     H_    0.811412 0.555608 0.621872 0.194553
H24   H     H_    0.079026 0.522353 0.725945 0.199394
H25   H     H_    0.094125 0.462442 0.710736 0.199870
H26   H     H_    0.910042 0.474761 0.712686 0.210465
H27   H     H_    0.894750 0.914497 0.198730 0.197503
H28   H     H_    0.079026 0.022353 0.225945 0.199394
H29   H     H_    0.094125 0.962442 0.210736 0.199870
H30   H     H_    0.910042 0.974761 0.212686 0.210466
H31   H     H_    0.393777 0.413211 0.197561 0.196292
H32   H     H_    0.578796 0.520762 0.226164 0.200557
H33   H     H_    0.594484 0.461187 0.210358 0.199435
H34   H     H_    0.203208 0.487856 0.603832 0.212927
H35   H     H_    0.409888 0.473064 0.212207 0.211338
H36   H     H_    0.169182 0.929838 0.860744 0.147223
H37   H     H_    0.874764 0.060675 0.817869 0.149075
H38   H     H_    0.668975 0.429739 0.860525 0.147141
H39   H     H_    0.373425 0.562017 0.819124 0.148749
H40   H     H_    0.668974 0.929739 0.360525 0.147141
H41   H     H_    0.373425 0.062017 0.319124 0.148749
H42   H     H_    0.169181 0.429838 0.360743 0.147222
H43   H     H_    0.874763 0.560676 0.317869 0.149074
H44   H     H_    0.111530 0.928927 0.916141 0.189887
H45   H     H_    0.811413 0.055608 0.121872 0.194553
H46   H     H_    0.931454 0.060719 0.874409 0.155350
H47   H     H_    0.611320 0.428832 0.915919 0.189160
H48   H     H_    0.430239 0.562011 0.875535 0.157651
H49   H     H_    0.611320 0.928831 0.415919 0.189159
H50   H     H_    0.430239 0.062011 0.375535 0.157651
H51   H     H_    0.111529 0.428927 0.416140 0.189886
H52   H     H_    0.931453 0.560720 0.374410 0.155350
H53   H     H_    0.076652 0.106866 0.880857 0.190292
H54   H     H_    0.859684 0.907643 0.943997 0.197062
H55   H     H_    0.843882 0.966037 0.963145 0.232665
H56   H     H_    0.203208 0.987856 0.103832 0.212927
H57   H     H_    0.118036 0.090353 0.922690 0.234609
H58   H     H_    0.576940 0.606995 0.881142 0.189698
H59   H     H_    0.361799 0.405685 0.941846 0.198755
H60   H     H_    0.344817 0.463228 0.962302 0.235516
H61   H     H_    0.618270 0.590241 0.922937 0.235629
H62   H     H_    0.576940 0.106995 0.381143 0.189698
H63   H     H_    0.361799 0.905685 0.441847 0.198756
H64   H     H_    0.344817 0.963228 0.462302 0.235517
H65   H     H_    0.618271 0.090241 0.422937 0.235629
H66   H     H_    0.076653 0.606866 0.380859 0.190292
H67   H     H_    0.312063 0.556551 0.122852 0.197710
H68   H     H_    0.859685 0.407641 0.443996 0.197062
H69   H     H_    0.843882 0.466035 0.463145 0.232663
H70   H     H_    0.118038 0.590353 0.422691 0.234610
H71   H     H_    0.131656 0.106944 0.825701 0.198711
H72   H     H_    0.803237 0.909246 0.890426 0.195584
H73   H     H_    0.787413 0.967821 0.909256 0.225330
H74   H     H_    0.173210 0.090588 0.867350 0.213025
H75   H     H_    0.631957 0.607078 0.825999 0.198744
H76   H     H_    0.305225 0.407281 0.888414 0.197944
H77   H     H_    0.288227 0.465024 0.908541 0.222923
H78   H     H_    0.703294 0.488939 0.103707 0.213002
H79   H     H_    0.673457 0.590472 0.867611 0.213353
H80   H     H_    0.631958 0.107078 0.326000 0.198744
H81   H     H_    0.305225 0.907281 0.388414 0.197945
H82   H     H_    0.288227 0.965024 0.408541 0.222924
H83   H     H_    0.673458 0.090471 0.367611 0.213354
H84   H     H_    0.131657 0.606944 0.325702 0.198710
H85   H     H_    0.803238 0.409244 0.390425 0.195583
H86   H     H_    0.787413 0.467820 0.409256 0.225328
H87   H     H_    0.173212 0.590587 0.367352 0.213025
H88   H     H_    0.365708 0.071416 0.476182 0.377260
H89   H     H_    0.446671 0.912525 0.640220 0.205459
H90   H     H_    0.636517 0.913625 0.526318 0.340161
H91   H     H_    0.894926 0.624980 0.581534 0.334102
H92   H     H_    0.135776 0.412597 0.526946 0.340123
H93   H     H_    0.894924 0.124983 0.081533 0.334106
H94   H     H_    0.135776 0.912598 0.026946 0.340122
H95   H     H_    0.365708 0.571416 0.976182 0.377260
H96   H     H_    0.636517 0.413625 0.026318 0.340161
O1    O     O_R   0.321180 0.000000 0.731010 -0.581702
O2    O     O_R   0.731020 0.000000 0.678820 -0.577496
O3    O     O_2   0.640816 0.024979 0.497779 -0.288519
O4    O     O_2   0.702010 0.978411 0.521290 -0.276437
O5    O     O_3   0.628569 0.938070 0.505747 -0.532220
O6    O     O_2   0.869101 0.548314 0.502315 -0.284611
O7    O     O_2   0.817943 0.592146 0.546587 -0.276717
O8    O     O_3   0.899622 0.612865 0.551678 -0.487264
O9    O     O_2   0.141130 0.523670 0.497602 -0.288768
O10   O     O_2   0.201871 0.476671 0.521496 -0.276228
O11   O     O_3   0.128078 0.436955 0.506185 -0.531635
O12   O     O_2   0.869102 0.048314 0.002315 -0.284611
O13   O     O_R   0.768980 0.500000 0.678820 -0.572164
O14   O     O_2   0.817944 0.092146 0.046587 -0.276722
O15   O     O_3   0.899622 0.112865 0.051678 -0.487267
O16   O     O_2   0.141130 0.023670 0.997602 -0.288768
O17   O     O_2   0.201871 0.976672 0.021496 -0.276228
O18   O     O_3   0.128079 0.936955 0.006185 -0.531636
O19   O     O_2   0.318690 0.594056 0.048576 -0.285231
O20   O     O_2   0.396791 0.608892 0.051997 -0.270036
O21   O     O_3   0.369004 0.546830 0.997866 -0.571736
O22   O     O_2   0.640816 0.524979 0.997779 -0.288519
O23   O     O_2   0.702010 0.478411 0.021290 -0.276437
O24   O     O_R   0.231020 0.500000 0.678820 -0.577220
O25   O     O_3   0.628568 0.438069 0.005748 -0.532221
O26   O     O_R   0.768980 0.000000 0.178820 -0.572164
O27   O     O_R   0.231020 0.000000 0.178820 -0.577220
O28   O     O_R   0.268980 0.500000 0.178820 -0.573371
O29   O     O_R   0.731020 0.500000 0.178820 -0.577496
O30   O     O_R   0.276100 0.938030 0.776090 -0.562772
O31   O     O_R   0.723900 0.061970 0.776090 -0.560478
O32   O     O_R   0.723900 0.938030 0.776090 -0.567325
O33   O     O_R   0.678820 0.000000 0.731010 -0.583087
O34   O     O_R   0.276100 0.061970 0.776090 -0.562395
O35   O     O_R   0.776100 0.438030 0.776090 -0.562408
O36   O     O_R   0.223900 0.561970 0.776090 -0.561744
O37   O     O_R   0.223900 0.438030 0.776090 -0.567337
O38   O     O_R   0.776100 0.561970 0.776090 -0.563099
O39   O     O_R   0.776100 0.938030 0.276090 -0.562408
O40   O     O_R   0.223900 0.061970 0.276090 -0.561744
O41   O     O_R   0.223900 0.938030 0.276090 -0.567337
O42   O     O_R   0.776100 0.061970 0.276090 -0.563099
O43   O     O_R   0.276100 0.438030 0.276090 -0.562772
O44   O     O_R   0.821180 0.500000 0.731010 -0.583352
O45   O     O_R   0.723900 0.561970 0.276090 -0.560478
O46   O     O_R   0.723900 0.438030 0.276090 -0.567325
O47   O     O_R   0.276100 0.561970 0.276090 -0.562395
O48   O     O_R   0.223900 0.938040 0.723900 -0.561688
O49   O     O_R   0.776100 0.061960 0.723900 -0.562354
O50   O     O_R   0.776100 0.938040 0.723900 -0.558303
O51   O     O_R   0.223900 0.061960 0.723900 -0.561903
O52   O     O_R   0.723900 0.438040 0.723900 -0.561185
O53   O     O_R   0.276100 0.561960 0.723900 -0.561931
O54   O     O_R   0.276100 0.438040 0.723900 -0.557551
O55   O     O_R   0.178820 0.500000 0.731010 -0.583224
O56   O     O_R   0.723900 0.561960 0.723900 -0.561818
O57   O     O_R   0.723900 0.938040 0.223900 -0.561185
O58   O     O_R   0.276100 0.061960 0.223900 -0.561931
O59   O     O_R   0.276100 0.938040 0.223900 -0.557551
O60   O     O_R   0.723900 0.061960 0.223900 -0.561818
O61   O     O_R   0.223900 0.438040 0.223900 -0.561688
O62   O     O_R   0.776100 0.561960 0.223900 -0.562354
O63   O     O_R   0.776100 0.438040 0.223900 -0.558303
O64   O     O_R   0.223900 0.561960 0.223900 -0.561902
O65   O     O_R   0.231010 0.000000 0.821180 -0.565100
O66   O     O_R   0.821180 0.000000 0.231010 -0.583351
O67   O     O_R   0.768990 0.000000 0.821180 -0.575577
O68   O     O_R   0.731010 0.500000 0.821180 -0.564947
O69   O     O_R   0.268990 0.500000 0.821180 -0.577507
O70   O     O_R   0.731010 0.000000 0.321180 -0.564947
O71   O     O_R   0.268990 0.000000 0.321180 -0.577507
O72   O     O_R   0.231010 0.500000 0.321180 -0.565100
O73   O     O_R   0.768990 0.500000 0.321180 -0.575576
O74   O     O_R   0.178810 0.000000 0.768990 -0.579916
O75   O     O_R   0.821190 0.000000 0.768990 -0.579804
O76   O     O_R   0.678810 0.500000 0.768990 -0.579501
O77   O     O_R   0.178820 0.000000 0.231010 -0.583224
O78   O     O_R   0.321190 0.500000 0.768990 -0.577936
O79   O     O_R   0.678810 0.000000 0.268990 -0.579501
O80   O     O_R   0.321190 0.000000 0.268990 -0.577936
O81   O     O_R   0.178810 0.500000 0.268990 -0.579916
O82   O     O_R   0.821190 0.500000 0.268990 -0.579804
O83   O     O_R   0.954900 0.964110 0.954900 -0.608756
O84   O     O_R   0.045100 0.035890 0.954900 -0.593268
O85   O     O_R   0.045100 0.964110 0.954900 -0.579920
O86   O     O_R   0.954900 0.035890 0.954900 -0.554003
O87   O     O_R   0.454900 0.464110 0.954900 -0.602237
O88   O     O_R   0.321180 0.500000 0.231010 -0.581702
O89   O     O_R   0.545100 0.535890 0.954900 -0.592410
O90   O     O_R   0.545100 0.464110 0.954900 -0.580197
O91   O     O_R   0.454900 0.535890 0.954900 -0.572971
O92   O     O_R   0.454900 0.964110 0.454900 -0.602238
O93   O     O_R   0.545100 0.035890 0.454900 -0.592410
O94   O     O_R   0.545100 0.964110 0.454900 -0.580197
O95   O     O_R   0.454900 0.035890 0.454900 -0.572971
O96   O     O_R   0.954900 0.464110 0.454900 -0.608756
O97   O     O_R   0.045100 0.535890 0.454900 -0.593268
O98   O     O_R   0.045100 0.464110 0.454900 -0.579920
O99   O     O_R   0.678820 0.500000 0.231010 -0.583087
O100  O     O_R   0.954900 0.535890 0.454900 -0.554003
O101  O     O_R   0.454900 0.964130 0.545070 -0.606056
O102  O     O_R   0.545100 0.035870 0.545070 -0.577868
O103  O     O_R   0.545100 0.964130 0.545070 -0.576530
O104  O     O_R   0.454900 0.035870 0.545070 -0.527383
O105  O     O_R   0.954900 0.464130 0.545070 -0.605928
O106  O     O_R   0.045100 0.535870 0.545070 -0.580538
O107  O     O_R   0.045100 0.464130 0.545070 -0.575470
O108  O     O_R   0.954900 0.535870 0.545070 -0.526607
O109  O     O_R   0.954900 0.964130 0.045070 -0.605929
O110  O     O_R   0.268980 0.000000 0.678820 -0.573371
O111  O     O_R   0.045100 0.035870 0.045070 -0.580538
O112  O     O_R   0.045100 0.964130 0.045070 -0.575471
O113  O     O_R   0.954900 0.035870 0.045070 -0.526603
O114  O     O_R   0.454900 0.464130 0.045070 -0.606056
O115  O     O_R   0.545100 0.535870 0.045070 -0.577868
O116  O     O_R   0.545100 0.464130 0.045070 -0.576530
O117  O     O_R   0.454900 0.535870 0.045070 -0.527383
O118  O     O_2   0.318690 0.094056 0.548576 -0.285231
O119  O     O_2   0.396791 0.108892 0.551997 -0.270037
O120  O     O_3   0.369004 0.046830 0.497866 -0.571735
S1    S     S_3+6 0.362827 0.072519 0.546583 0.008932
S2    S     S_3+6 0.653799 0.984868 0.524889 0.001664
S3    S     S_3+6 0.862433 0.571361 0.545670 0.023916
S4    S     S_3+6 0.153720 0.483644 0.525012 0.001636
S5    S     S_3+6 0.862433 0.071361 0.045670 0.023913
S6    S     S_3+6 0.153720 0.983644 0.025012 0.001636
S7    S     S_3+6 0.362827 0.572519 0.046583 0.008932
S8    S     S_3+6 0.653799 0.484868 0.024889 0.001664

loop_
_geom_bond_atom_site_label_1
_geom_bond_atom_site_label_2
_ccdc_geom_bond_type
Cu24  O110  S    
C105  C110  T    
C27   H73   S    
C96   C102  T    
C192  O88   A    
C99   C103  T    
Cu19  O37   S    
C171  C179  A    
Cu7   O28   S    
C120  C166  S    
Cu15  O104  S    
C25   H69   S    
C117  C163  S    
C21   H65   S    
C153  H3    S    
C118  C164  S    
C215  O49   A    
C67   C220  S    
Cu2   O2    S    
C92   C109  S    
C184  C193  A    
C72   C224  S    
C94   C111  S    
C193  C201  A    
C49   O111  A    
C74   C92   T    
C2    C90   A    
C112  O2    A    
C131  C140  A    
C76   C94   T    
C197  H46   S    
C181  O27   A    
C78   C96   S    
O120  S1    S    
Cu24  O48   S    
C32   H84   S    
C160  H15   S    
C30   H80   S    
Cu20  O70   S    
C136  H34   S    
C117  C126  A    
Cu12  O32   S    
C203  O29   A    
C50   C141  S    
C93   C110  S    
C60   O82   A    
C119  C128  A    
C112  O33   A    
C222  O39   A    
C19   H58   S    
C197  C206  A    
C222  O57   A    
C56   O79   A    
C181  O77   A    
C130  C192  S    
C190  C199  A    
O11   S4    S    
Cu18  O38   S    
C124  C147  A    
C11   C20   S    
C67   C85   T    
C115  C123  A    
C217  O34   A    
C163  H22   S    
C164  H25   S    
C127  C136  A    
C193  H41   S    
Cu9   O85   S    
C179  C188  A    
C201  H50   S    
Cu18  O44   S    
O12   S5    D    
C168  H32   S    
C203  O99   A    
C177  C186  A    
C113  C146  A    
C159  O24   A    
C59   O72   A    
C66   C219  S    
C3    O42   A    
C35   S5    S    
C13   S3    S    
Cu14  O101  S    
C16   C212  A    
C204  C212  A    
C24   S4    S    
C165  H27   S    
C166  H28   S    
C112  C125  S    
C121  C167  S    
C173  C182  A    
C20   H59   S    
C83   C100  S    
Cu5   O57   S    
C44   O103  A    
C21   H62   S    
C37   C208  S    
Cu16  O105  S    
C9    C171  A    
Cu7   O61   S    
Cu13  O89   S    
C8    C169  A    
Cu14  O94   S    
Cu15  O102  S    
C12   C174  A    
C16   C25   S    
C224  O59   A    
C35   C124  A    
C148  O13   A    
H92   O11   S    
Cu22  O47   S    
C57   S7    S    
Cu10  O111  S    
C219  O53   A    
C215  O31   A    
C200  C209  A    
C108  C111  T    
C42   O98   A    
Cu2   O75   S    
O16   S6    D    
C3    O60   A    
Cu16  O96   S    
C35   C137  A    
C8    C17   S    
C19   H61   S    
Cu23  O45   S    
Cu18  O35   S    
Cu3   O13   S    
C69   C221  S    
C160  C168  S    
C8    C205  A    
C37   O91   A    
C2    S2    S    
C71   C88   T    
C28   H75   S    
C126  C134  A    
Cu4   O78   S    
Cu8   O62   S    
Cu5   O79   S    
C140  H78   S    
C182  C190  A    
C119  C147  A    
C30   C174  S    
C5    O62   A    
C41   O100  A    
C167  H35   S    
C154  H5    S    
O9    S4    D    
C80   C97   S    
C84   C102  S    
C162  H19   S    
C165  H30   S    
C128  C137  A    
C86   C104  S    
Cu9   O109  S    
C60   O73   A    
C101  C145  A    
C202  H51   S    
C64   C217  S    
C148  O44   A    
C156  C165  S    
C62   C80   T    
C12   C209  A    
C180  C189  A    
Cu21  O40   S    
C168  H33   S    
Cu2   O49   S    
Cu3   O56   S    
Cu13  O115  S    
Cu2   Cu12  S    
C1    O1    A    
C70   C222  S    
C116  C144  A    
Cu17  O100  S    
C28   C172  S    
C133  H12   S    
C79   C143  A    
C158  H14   S    
Cu16  O107  S    
C68   C142  A    
C22   H63   S    
C63   C216  S    
Cu9   Cu10  S    
Cu13  O91   S    
C40   O94   A    
C152  C161  S    
Cu14  O92   S    
C7    C77   S    
C220  O37   A    
C24   C136  A    
C49   C135  S    
O6    S3    D    
O8    S3    S    
C32   H87   S    
C30   H83   S    
C216  O50   A    
C61   C213  S    
O3    S2    D    
C70   C87   T    
C53   C179  S    
C141  C150  A    
C196  H44   S    
C154  C163  S    
C38   C207  S    
C33   C177  S    
C120  C129  A    
C50   O117  A    
C55   O69   A    
C191  C200  A    
C43   O101  A    
Cu5   Cu20  S    
C221  O38   A    
Cu6   O27   S    
Cu9   O83   S    
C54   O76   A    
Cu10  O84   S    
C170  O26   A    
C39   O95   A    
C115  C161  S    
C38   O90   A    
C216  O32   A    
C47   O106  A    
C1    O110  A    
C87   C105  S    
C18   H55   S    
C223  O40   A    
Cu4   O54   S    
Cu6   O58   S    
C19   C28   S    
Cu11  O87   S    
C139  H67   S    
C145  C154  S    
C116  C125  A    
C33   H86   S    
C31   H81   S    
C118  C127  A    
C122  C131  A    
C152  H4    S    
C97   C100  T    
C194  H42   S    
C156  H9    S    
C56   O70   A    
C44   O102  A    
C198  C207  A    
C224  O41   A    
C46   S6    S    
C85   C103  S    
C167  H31   S    
C152  H89   S    
Cu5   O60   S    
C4    O61   A    
C25   H68   S    
Cu21  O71   S    
C153  H2    S    
Cu12  O33   S    
Cu22  O72   S    
C200  H49   S    
C14   C22   S    
C36   O85   A    
C202  C211  A    
O118  S1    D    
C157  H11   S    
Cu19  O69   S    
C75   C93   T    
C162  H20   S    
C199  C208  A    
C55   C182  S    
C59   C185  S    
C4    O43   A    
C50   O114  A    
C138  H56   S    
C3    C73   S    
O20   S7    D    
C9    C18   S    
O19   S7    D    
C20   H60   S    
C160  H16   S    
C53   O75   A    
Cu22  O43   S    
C48   O113  A    
C163  H26   S    
C90   C144  A    
C25   C33   S    
C106  C109  T    
C7    O47   A    
C34   O86   A    
C27   C171  S    
C187  C196  A    
C82   C99   S    
C201  C210  A    
C185  C194  A    
Cu3   Cu18  S    
C44   C90   S    
C176  C185  A    
C154  H8    S    
C223  O58   A    
C15   C176  A    
C9    C206  A    
C213  O30   A    
C123  C132  A    
C155  H6    S    
Cu19  O55   S    
C28   H79   S    
C81   C98   S    
C95   C114  S    
C10   C172  A    
C194  C202  A    
C220  O54   A    
C51   O116  A    
C57   C139  A    
C117  C145  A    
H96   O25   S    
C204  H52   S    
C129  C181  S    
C46   C135  A    
C41   C212  S    
Cu20  O66   S    
C79   C214  A    
C146  C155  S    
C158  C167  S    
C192  O28   A    
C131  C203  S    
C121  C130  A    
C166  H29   S    
H93   O15   S    
C48   O109  A    
Cu17  O97   S    
C172  C180  A    
Cu1   Cu24  S    
C6    O46   A    
C158  H17   S    
Cu7   O64   S    
C68   S8    S    
C130  C139  A    
Cu11  O90   S    
O18   S6    S    
Cu17  O108  S    
Cu3   O52   S    
C2    C133  A    
C122  C168  S    
C27   H72   S    
C119  C165  S    
Cu8   O82   S    
Cu1   O30   S    
C126  C148  S    
Cu6   O80   S    
C195  C204  A    
O21   S7    S    
C59   O81   A    
C34   O83   A    
C39   C210  S    
C49   O112  A    
C5    C75   S    
C23   H66   S    
O22   S8    D    
C1    C123  S    
C107  C114  T    
O14   S5    D    
C10   C19   S    
C89   C107  S    
C39   O92   A    
C120  C149  A    
Cu11  O116  S    
O23   S8    D    
Cu10  O113  S    
C6    C76   S    
Cu5   O26   S    
Cu12  O31   S    
Cu6   Cu21  S    
C45   C101  S    
C178  C187  A    
C47   O107  A    
C143  C152  S    
H88   O120  S    
C17   H53   S    
C58   O71   A    
C54   O68   A    
Cu1   O1    S    
C17   C26   S    
Cu3   O76   S    
Cu17  O106  S    
Cu18  O68   S    
C47   C113  S    
Cu14  Cu15  S    
C58   C184  S    
O17   S6    D    
C150  C158  S    
C91   C108  S    
C174  C183  A    
C187  H36   S    
Cu1   O34   S    
C56   C183  S    
C58   O80   A    
C21   C30   S    
C214  S1    S    
C57   C141  A    
C153  C162  S    
C161  H21   S    
C23   C32   S    
C45   O108  A    
C151  C160  S    
Cu23  O73   S    
Cu4   Cu19  S    
C188  C197  A    
Cu2   O50   S    
H91   O8    S    
C40   C209  S    
C170  O66   A    
Cu4   O24   S    
C29   H77   S    
C36   C205  S    
C52   C178  S    
C36   O84   A    
C156  H13   S    
C26   H74   S    
Cu16  O98   S    
C195  H43   S    
C17   H57   S    
C22   H64   S    
Cu19  O36   S    
O25   S8    S    
C52   O65   A    
C149  C157  S    
Cu20  O39   S    
C175  C184  A    
C189  C198  A    
C142  C151  A    
C26   H71   S    
C128  C170  S    
Cu1   O65   S    
C37   O87   A    
C29   H76   S    
Cu21  O41   S    
C13   C134  A    
O4    S2    D    
Cu24  O74   S    
Cu22  O88   S    
C31   C175  S    
C34   C206  S    
C32   C176  S    
C14   C175  A    
C63   C81   T    
C6    O63   A    
C42   O97   A    
C116  C162  S    
C61   C78   T    
C43   O104  A    
C53   O67   A    
C62   C215  S    
C65   C218  S    
C65   C83   T    
Cu23  O46   S    
C43   C79   S    
C144  C153  S    
C121  C150  A    
Cu11  O114  S    
C40   O93   A    
C196  C205  A    
Cu16  Cu17  S    
C15   C211  A    
C155  H7    S    
C129  C138  A    
C26   C169  S    
C54   C180  S    
Cu6   O59   S    
C4    C74   S    
C46   C138  A    
C132  H1    S    
C15   C23   S    
C164  H24   S    
C24   C113  A    
H90   O5    S    
C189  H38   S    
Cu13  O117  S    
Cu11  Cu13  S    
C33   H85   S    
H94   O18   S    
C221  O56   A    
C191  H40   S    
C20   C29   S    
C115  C143  A    
C11   C173  A    
C71   C223  S    
C22   C31   S    
C14   C210  A    
C7    O64   A    
C186  C195  A    
C118  C146  A    
C73   C91   T    
C55   O78   A    
C134  H23   S    
C135  C149  A    
O10   S4    D    
C12   C21   S    
C77   C95   T    
C52   O74   A    
C218  O52   A    
C10   C207  A    
C147  C156  S    
C88   C106  S    
C157  H10   S    
C161  H18   S    
C5    O45   A    
C64   C82   T    
Cu12  O67   S    
C199  H48   S    
C159  O55   A    
Cu23  O99   S    
Cu7   Cu22  S    
C132  C214  A    
C11   C208  A    
C213  O48   A    
C13   C101  A    
C127  C159  S    
C169  C178  A    
Cu20  O42   S    
C16   C177  A    
O119  S1    D    
C218  O35   A    
C51   C142  S    
C125  C133  A    
Cu7   O81   S    
O15   S5    S    
C60   C186  S    
C23   H70   S    
C18   C27   S    
C29   C173  S    
C219  O36   A    
C183  C191  A    
C157  C166  S    
C48   C124  S    
C41   O96   A    
H95   O21   S    
C155  C164  S    
Cu10  O86   S    
Cu8   Cu23  S    
O7    S3    D    
C122  C151  A    
C137  H45   S    
C38   O89   A    
C72   C89   T    
C98   C104  T    
C18   H54   S    
Cu8   O63   S    
Cu15  O95   S    
C51   O115  A    
Cu4   O53   S    
C45   O105  A    
C68   C140  A    
C69   C86   T    
C66   C84   T    
Cu14  O103  S    
Cu15  O93   S    
C188  H37   S    
Cu8   O29   S    
O5    S2    S    
Cu24  O51   S    
C190  H39   S    
C31   H82   S    
C198  H47   S    
Cu9   O112  S    
C42   C211  S    
Cu21  O77   S    
C217  O51   A    
