data_mof_unit_52413.cif
_audit_creation_date              2012-12-11T15:29:35-0500
_audit_creation_method            fapswitch 2.2
_symmetry_space_group_name_H-M    P1
_symmetry_Int_Tables_number       1
_space_group_crystal_system       triclinic
_cell_length_a                    21.403716
_cell_length_b                    7.249352
_cell_length_c                    14.824963
_cell_angle_alpha                 90.000677
_cell_angle_beta                  74.337093
_cell_angle_gamma                 89.999731
_cell_volume                      2214.86962168

loop_
_atom_site_label
_atom_site_type_symbol
_atom_type_description
_atom_site_fract_x
_atom_site_fract_y
_atom_site_fract_z
_atom_type_partial_charge
O1    O     O_R   0.464160 0.506670 0.130070 -0.524854
O2    O     O_R   0.535840 0.006670 0.869930 -0.524838
O3    O     O_R   0.589710 0.179080 0.006710 -0.534923
O4    O     O_R   0.410290 0.679080 0.993290 -0.534919
C1    C     C_R   0.615875 0.344266 0.004346 0.652934
C2    C     C_R   0.384126 0.844267 0.995653 0.652916
O5    O     O_R   0.467940 0.177220 0.138010 -0.543156
O6    O     O_R   0.532060 0.677220 0.861990 -0.543161
O7    O     O_R   0.413200 0.002810 0.002170 -0.540195
O8    O     O_R   0.586800 0.502810 0.997830 -0.540205
C3    C     C_R   0.456011 0.345584 0.174243 0.738907
C4    C     C_R   0.543986 0.845582 0.825754 0.738847
O9    O     O_3   0.482180 0.337850 0.955280 -0.377965
O10   O     O_3   0.517820 0.837850 0.044720 -0.377980
V1    V     V_3+5 0.503310 0.064600 0.008300 1.452290
V2    V     V_3+5 0.496690 0.564600 0.991700 1.452282
C5    C     C_R   0.573952 0.854451 0.724577 -0.097134
C6    C     C_R   0.426035 0.354459 0.275414 -0.097124
C7    C     C_R   0.929167 0.870873 0.275766 -0.030492
C8    C     C_R   0.070821 0.370862 0.724231 -0.030499
C9    C     C_R   0.560199 0.851454 0.568121 -0.158573
C10   C     C_R   0.439781 0.351456 0.431871 -0.158574
C11   C     C_R   0.533657 0.857807 0.664600 -0.200888
C12   C     C_R   0.466326 0.357829 0.335396 -0.200901
C13   C     C_R   0.642174 0.851077 0.687701 -0.059568
C14   C     C_R   0.357811 0.351064 0.312280 -0.059652
C15   C     C_R   0.669627 0.870679 0.588939 0.028775
C16   C     C_R   0.330354 0.370650 0.411044 0.028788
C17   C     C_R   0.627622 0.854608 0.529916 0.132322
C18   C     C_R   0.372358 0.354584 0.470069 0.132330
C19   C     C_R   0.737161 0.902442 0.546296 0.071171
C20   C     C_R   0.262819 0.402402 0.453689 0.071180
C21   C     C_R   0.763465 0.871950 0.448271 0.059869
C22   C     C_R   0.236516 0.371907 0.551713 0.059863
C23   C     C_R   0.719939 0.839893 0.393287 -0.189885
C24   C     C_R   0.280042 0.339844 0.606695 -0.189891
C25   C     C_R   0.653245 0.839492 0.433144 -0.195468
C26   C     C_R   0.346734 0.339453 0.566839 -0.195478
C27   C     C_R   0.778002 0.978102 0.597188 -0.125919
C28   C     C_R   0.221978 0.478064 0.402801 -0.125872
C29   C     C_R   0.844307 0.994002 0.558136 -0.194628
C30   C     C_R   0.155673 0.493983 0.441859 -0.194636
C31   C     C_R   0.872030 0.943721 0.465318 0.132838
C32   C     C_R   0.127951 0.443707 0.534677 0.132824
C33   C     C_R   0.832079 0.884070 0.408340 0.082441
C34   C     C_R   0.167903 0.384038 0.591648 0.082440
C35   C     C_R   0.939280 0.961990 0.427727 -0.161150
C36   C     C_R   0.060702 0.462000 0.572276 -0.161146
C37   C     C_R   0.967484 0.928459 0.333177 -0.170920
C38   C     C_R   0.032502 0.428472 0.666827 -0.170923
C39   C     C_R   0.862466 0.844040 0.313163 -0.216262
C40   C     C_R   0.137519 0.344007 0.686825 -0.216253
H1    H     H_    0.621424 0.823181 0.387844 0.118342
H2    H     H_    0.378555 0.323143 0.612140 0.118343
H3    H     H_    0.835578 0.798493 0.265377 0.092355
H4    H     H_    0.164408 0.298440 0.734606 0.092358
H5    H     H_    0.018952 0.952851 0.304020 0.108304
H6    H     H_    0.981035 0.452884 0.695990 0.108305
H7    H     H_    0.873983 0.049254 0.600589 0.123594
H8    H     H_    0.125996 0.549244 0.399410 0.123597
H9    H     H_    0.527868 0.844416 0.523145 0.120067
H10   H     H_    0.472109 0.344425 0.476850 0.120069
H11   H     H_    0.481367 0.857397 0.692782 0.104945
H12   H     H_    0.518616 0.357436 0.307220 0.104942
H13   H     H_    0.735602 0.824430 0.318286 0.115541
H14   H     H_    0.264380 0.324377 0.681695 0.115538
H15   H     H_    0.759028 0.032758 0.666977 0.131727
H16   H     H_    0.240952 0.532707 0.333011 0.131690
H17   H     H_    0.969769 0.009003 0.470824 0.120929
H18   H     H_    0.030212 0.509033 0.529185 0.120930
C41   C     C_3   0.219005 0.674104 0.958740 -0.316007
C42   C     C_3   0.781061 0.173859 0.040913 -0.316037
H19   H     H_    0.193668 0.559168 0.003842 0.144643
H20   H     H_    0.806410 0.059273 0.995568 0.144686
H21   H     H_    0.213435 0.650615 0.887113 0.132025
H22   H     H_    0.786678 0.149811 0.112462 0.132062
C43   C     C_3   0.291880 0.668713 0.955490 -0.314737
C44   C     C_3   0.708175 0.168505 0.044240 -0.314780
H23   H     H_    0.321379 0.647272 0.881986 0.127471
H24   H     H_    0.678714 0.146721 0.117731 0.127553
H25   H     H_    0.300581 0.548293 0.996909 0.156684
H26   H     H_    0.699466 0.048306 0.002697 0.156769
H27   H     H_    0.168927 0.779383 0.144758 0.131305
H28   H     H_    0.831112 0.280479 0.855091 0.131231
H29   H     H_    0.276690 0.761697 0.141108 0.161412
H30   H     H_    0.723346 0.262469 0.858781 0.161390
C45   C     C_3   0.196508 0.887922 0.097275 -0.332337
C46   C     C_3   0.803473 0.388607 0.902784 -0.332260
C47   C     C_3   0.227215 0.016693 0.933631 -0.317570
C48   C     C_3   0.772745 0.516232 0.066638 -0.317685
C49   C     C_3   0.187969 0.862192 0.997474 0.118586
C50   C     C_3   0.812033 0.362187 0.002520 0.118498
H31   H     H_    0.206977 0.154686 0.958593 0.141293
H32   H     H_    0.792958 0.654367 0.041957 0.141272
H33   H     H_    0.223068 0.999741 0.860857 0.128353
H34   H     H_    0.776881 0.498708 0.139376 0.128434
C51   C     C_3   0.313104 0.850553 0.994775 0.103600
C52   C     C_3   0.686898 0.350545 0.005225 0.103530
C53   C     C_3   0.269245 0.877392 0.095753 -0.296444
C54   C     C_3   0.730741 0.377950 0.904291 -0.296186
C55   C     C_3   0.299853 0.011576 0.933223 -0.331464
C56   C     C_3   0.700111 0.511204 0.067007 -0.331515
H35   H     H_    0.330668 0.995565 0.860075 0.124618
H36   H     H_    0.669284 0.494830 0.140121 0.124570
H37   H     H_    0.312990 0.145568 0.959877 0.145997
H38   H     H_    0.686961 0.645349 0.040527 0.146016
H39   H     H_    0.176304 0.023674 0.126170 0.148429
H40   H     H_    0.823596 0.524585 0.874160 0.148454
H41   H     H_    0.283326 0.006171 0.125228 0.177157
H42   H     H_    0.716602 0.506840 0.874994 0.177016
O11   O     O_R   0.913210 0.208550 0.002110 -0.539276
O12   O     O_R   0.086790 0.708550 0.997890 -0.539270
O13   O     O_R   0.032060 0.539960 0.861980 -0.537420
O14   O     O_R   0.967940 0.039960 0.138020 -0.537421
C57   C     C_R   0.043740 0.372976 0.825632 0.689141
C58   C     C_R   0.956255 0.872979 0.174367 0.689145
O15   O     O_R   0.910290 0.538020 0.993280 -0.545498
O16   O     O_R   0.089710 0.038020 0.006720 -0.545495
O17   O     O_R   0.964160 0.712340 0.130090 -0.537252
O18   O     O_R   0.035840 0.212340 0.869910 -0.537256
C59   C     C_R   0.883681 0.369982 0.999808 0.643510
C60   C     C_R   0.116320 0.869984 0.000186 0.643501
O19   O     O_3   0.017820 0.379210 0.044690 -0.376294
O20   O     O_3   0.982180 0.879210 0.955310 -0.376300
V3    V     V_3+5 0.996690 0.652500 0.991710 1.396927
V4    V     V_3+5 0.003310 0.152500 0.008290 1.396931
C61   C     C_2   0.682641 0.796014 0.750531 0.685016
O21   O     O_2   0.723945 0.676330 0.725236 -0.566866
O22   O     O_R   0.674393 0.882375 0.837300 -0.675223
H43   H     H_    0.706176 0.836327 0.871941 0.264911
C62   C     C_2   0.317352 0.295985 0.249434 0.685044
O23   O     O_2   0.276030 0.176370 0.274739 -0.566909
O24   O     O_R   0.325636 0.382218 0.162627 -0.675205
H44   H     H_    0.293881 0.336105 0.127953 0.264971

loop_
_geom_bond_atom_site_label_1
_geom_bond_atom_site_label_2
_ccdc_geom_bond_type
H27   C45   S    
C3    C6    S    
C54   H42   S    
C45   C49   S    
O11   C59   A    
C21   C33   A    
O1    C3    A    
C42   H22   S    
O2    C4    A    
C2    O7    A    
C27   C29   A    
O5    C3    A    
C5    C11   A    
C6    C12   A    
C23   C25   A    
C36   C38   A    
C46   H40   S    
C24   H14   S    
O13   V3    S    
C23   H13   S    
C53   H41   S    
C34   C40   A    
C37   H5    S    
C15   C17   A    
C18   C26   A    
O16   C60   A    
C7    C37   A    
C35   H17   S    
C8    C38   A    
C48   C56   S    
C46   C50   S    
C49   C60   S    
C6    C14   A    
C4    C5    S    
C44   C52   S    
C42   C44   S    
C19   C21   A    
C43   C51   S    
C22   C34   A    
C47   C49   S    
H30   C54   S    
C9    H9    S    
C25   H1    S    
C11   H11   S    
O6    V2    S    
C47   H31   S    
C29   C31   A    
C30   C32   A    
O4    V2    S    
C51   C53   S    
C32   C34   A    
C48   H32   S    
C45   C53   S    
C43   H23   S    
C55   H37   S    
C15   C19   A    
C38   H6    S    
C2    C51   S    
C16   C20   A    
C29   H7    S    
C42   H20   S    
C30   H8    S    
C41   H19   S    
O19   V4    S    
C39   H3    S    
O3    C1    A    
C52   C56   S    
C9    C17   A    
C20   C22   A    
C47   H33   S    
C61   O22   S    
O12   C60   A    
H29   C53   S    
C7    C39   A    
C10   H10   S    
C44   H26   S    
C48   C50   S    
C26   H2    S    
C43   H25   S    
O6    C4    A    
O11   V4    S    
C41   C49   S    
O1    V2    S    
C56   H36   S    
O2    V1    S    
C31   C33   A    
O12   V3    S    
C46   C54   S    
O18   V4    S    
O17   V3    S    
O4    C2    A    
C52   C54   S    
C9    C11   A    
O24   H44   S    
C10   C12   A    
C13   C15   A    
C62   O23   D    
C41   C43   S    
O3    V1    S    
O22   H43   S    
C55   H35   S    
C10   C18   A    
C47   C55   S    
C27   H15   S    
H28   C46   S    
C36   H18   S    
C28   C30   A    
C62   O24   S    
C8    C57   S    
O14   C58   A    
C48   H34   S    
O15   C59   A    
C35   C37   A    
C14   C16   A    
C58   O17   A    
C5    C13   A    
C16   C18   A    
O7    V1    S    
C1    O8    A    
C8    C40   A    
C32   C36   A    
O8    V2    S    
C50   C59   S    
C24   C26   A    
C41   H21   S    
C31   C35   A    
C7    C58   S    
C42   C50   S    
O5    V1    S    
C21   C23   A    
C22   C24   A    
C19   C27   A    
C56   H38   S    
C44   H24   S    
C20   C28   A    
C13   C61   S    
C40   H4    S    
C45   H39   S    
C1    C52   S    
C12   H12   S    
C57   O18   A    
C28   H16   S    
O9    V2    S    
C17   C25   A    
O14   V4    S    
C33   C39   A    
O10   V1    S    
O16   V4    S    
O15   V3    S    
C51   C55   S    
C14   C62   S    
C61   O21   D    
O20   V3    S    
O13   C57   A    
