data_mof_unit_53234.cif
_audit_creation_date              2012-12-10T17:34:23-0500
_audit_creation_method            fapswitch 2.2
_symmetry_space_group_name_H-M    P1
_symmetry_Int_Tables_number       1
_space_group_crystal_system       triclinic
_cell_length_a                    12.358214
_cell_length_b                    13.311569
_cell_length_c                    14.342202
_cell_angle_alpha                 77.882251
_cell_angle_beta                  100.757742
_cell_angle_gamma                 116.671662
_cell_volume                      2049.79562438

loop_
_atom_site_label
_atom_site_type_symbol
_atom_type_description
_atom_site_fract_x
_atom_site_fract_y
_atom_site_fract_z
_atom_type_partial_charge
C1    C     C_R   0.854773 0.286798 0.510927 0.785743
C2    C     C_1   0.999428 0.500011 0.228847 -0.187678
C3    C     C_R   0.283936 0.998489 0.565878 -0.178324
C4    C     C_R   0.228814 0.831454 0.494404 -0.042956
C5    C     C_R   0.812676 0.109736 0.454165 -0.215911
C6    C     C_R   0.730939 0.007478 0.422623 0.037684
C7    C     C_R   0.608158 0.960764 0.438011 -0.218409
C8    C     C_R   0.566033 0.014206 0.489300 0.068257
C9    C     C_R   0.652454 0.115455 0.525631 0.084174
C10   C     C_R   0.441117 0.972399 0.504687 0.088135
C11   C     C_R   0.406513 0.033310 0.554503 0.149321
C12   C     C_R   0.999888 0.499533 0.668696 0.806242
C13   C     C_R   0.494943 0.125128 0.597022 -0.208714
C14   C     C_R   0.616484 0.163343 0.585389 -0.182675
C15   C     C_R   0.349634 0.870430 0.475538 -0.232373
C16   C     C_R   0.195217 0.898332 0.535229 -0.180456
C17   C     C_R   0.773831 0.166603 0.502397 -0.103441
C18   C     C_R   0.346371 0.336510 0.659645 -0.215927
C19   C     C_R   0.754521 0.633861 0.367557 0.112234
C20   C     C_R   0.654269 0.657387 0.333573 -0.227591
C21   C     C_R   0.553944 0.608996 0.385436 -0.199877
C22   C     C_R   0.551993 0.534328 0.471767 0.027308
C23   C     C_R   0.145292 0.712688 0.488646 0.781201
C24   C     C_R   0.655517 0.510810 0.502041 0.277901
C25   C     C_R   0.449649 0.478524 0.526642 -0.046089
C26   C     C_R   0.453398 0.401848 0.612198 0.025818
C27   C     C_R   0.563427 0.391630 0.645339 -0.089084
C28   C     C_R   0.655706 0.436688 0.586428 -0.226989
C29   C     C_R   0.343266 0.496337 0.499690 -0.054980
C30   C     C_R   0.243497 0.358541 0.627928 0.586542
C31   C     C_R   0.999940 0.500241 0.331312 0.798096
C32   C     C_1   0.999849 0.499186 0.771163 -0.177618
C33   C     C_1   0.999575 0.499087 0.856606 0.013219
C34   C     C_1   0.999291 0.499183 0.957282 0.023353
C35   C     C_1   0.999180 0.499394 0.042701 0.018378
C36   C     C_1   0.999224 0.499728 0.143392 0.001504
Cu1   Cu    Cu3+1 0.098280 0.475420 0.520190 0.983065
Cu2   Cu    Cu3+1 0.901720 0.524580 0.479810 0.937990
H1    H     H_    0.102263 0.868823 0.550422 0.162248
H2    H     H_    0.335368 0.557464 0.439754 0.136070
H3    H     H_    0.832210 0.672042 0.326775 0.138349
H4    H     H_    0.479239 0.630622 0.355274 0.134832
H5    H     H_    0.653982 0.712823 0.266569 0.167689
H6    H     H_    0.726294 0.410103 0.609042 0.193510
H7    H     H_    0.469477 0.165251 0.641555 0.163942
H8    H     H_    0.257450 0.046189 0.602416 0.152390
H9    H     H_    0.370469 0.816049 0.443052 0.134947
H10   H     H_    0.905547 0.148585 0.435745 0.160495
H11   H     H_    0.548161 0.884068 0.408070 0.128312
H12   H     H_    0.683148 0.229528 0.624906 0.137510
N1    N     N_R   0.246290 0.438200 0.550780 -0.192072
N2    N     N_R   0.754310 0.561180 0.449760 -0.204959
O1    O     O_R   0.972510 0.318130 0.525390 -0.517874
O2    O     O_R   0.806530 0.359650 0.491290 -0.588346
O3    O     O_R   0.083010 0.479240 0.641000 -0.506437
O4    O     O_R   0.917030 0.520750 0.606900 -0.590479
O5    O     O_R   0.193470 0.640350 0.508710 -0.581449
O6    O     O_R   0.027490 0.681870 0.474610 -0.579479
O7    O     O_R   0.082970 0.479250 0.393100 -0.568027
O8    O     O_R   0.916990 0.520760 0.359000 -0.566913
C37   C     C_1   0.590283 0.341216 0.741439 0.241145
N3    N     N_1   0.613015 0.301551 0.818076 -0.255216
C38   C     C_1   0.334828 0.239527 0.732588 0.199169
N4    N     N_1   0.324460 0.161672 0.790554 -0.260813
C39   C     C_1   0.773180 0.955653 0.367828 0.237816
N5    N     N_1   0.809003 0.915869 0.323506 -0.304870
O9    O     O_3   0.137528 0.301491 0.672254 -0.697812
H13   H     H_    0.153167 0.264565 0.737431 0.309249

loop_
_geom_bond_atom_site_label_1
_geom_bond_atom_site_label_2
_ccdc_geom_bond_type
C31   O8    A    
C4    C16   A    
C23   O6    A    
C9    C14   A    
C24   N2    A    
Cu1   Cu2   S    
C18   C30   A    
C19   C20   A    
C3    H8    S    
C1    C17   S    
C30   O9    S    
C18   C26   A    
C15   H9    S    
C30   N1    A    
Cu1   O1    S    
C32   C33   T    
C37   N3    T    
C4    C15   A    
C33   C34   S    
C25   C26   A    
C7    C8    A    
C12   O4    A    
C13   C14   A    
C12   C32   S    
C5    C17   A    
C13   H7    S    
C11   C13   A    
C26   C27   A    
Cu1   O7    S    
C1    O2    A    
Cu2   O8    S    
C29   H2    S    
C9    C17   A    
C22   C25   A    
C21   C22   A    
C39   N5    T    
C6    C7    A    
C10   C15   A    
C25   C29   A    
C5    C6    A    
Cu1   N1    S    
C5    H10   S    
C22   C24   A    
C18   C38   S    
C12   O3    A    
C3    C11   A    
C10   C11   A    
C14   H12   S    
C16   H1    S    
C2    C36   T    
O9    H13   S    
Cu1   O3    S    
C24   C28   A    
C20   H5    S    
Cu2   O4    S    
C20   C21   A    
C7    H11   S    
C8    C9    A    
C8    C10   A    
C34   C35   T    
C29   N1    A    
C31   O7    A    
C27   C28   A    
C23   O5    A    
Cu2   N2    S    
C1    O1    A    
C2    C31   S    
C21   H4    S    
C27   C37   S    
C4    C23   S    
Cu2   O6    S    
C19   N2    A    
C28   H6    S    
C6    C39   S    
Cu1   O5    S    
C3    C16   A    
C19   H3    S    
C38   N4    T    
C35   C36   S    
Cu2   O2    S    
