data_mof_unit_43716.cif
_audit_creation_date              2012-12-10T18:48:40-0500
_audit_creation_method            fapswitch 2.2
_symmetry_space_group_name_H-M    P1
_symmetry_Int_Tables_number       1
_space_group_crystal_system       triclinic
_cell_length_a                    15.356714
_cell_length_b                    15.038474
_cell_length_c                    9.825847
_cell_angle_alpha                 92.291781
_cell_angle_beta                  90.000365
_cell_angle_gamma                 90.000132
_cell_volume                      2267.38124383

loop_
_atom_site_label
_atom_site_type_symbol
_atom_type_description
_atom_site_fract_x
_atom_site_fract_y
_atom_site_fract_z
_atom_type_partial_charge
C1    C     C_R   0.124958 0.384842 0.498802 0.940448
C2    C     C_R   0.008653 0.422706 0.923690 0.007192
C3    C     C_R   0.006549 0.422371 0.067200 0.007956
C4    C     C_R   0.997160 0.577911 0.933123 -0.014371
C5    C     C_R   0.508668 0.077292 0.076310 0.007199
C6    C     C_R   0.496376 0.921926 0.923030 -0.006160
C7    C     C_R   0.497148 0.922089 0.066877 -0.014372
C8    C     C_R   0.506563 0.077628 0.932800 0.007957
C9    C     C_R   0.797348 0.257932 0.367152 0.145658
C10   C     C_R   0.174577 0.764410 0.592711 0.116703
C11   C     C_R   0.250249 0.682560 0.407422 0.117906
C12   C     C_R   0.876393 0.616587 0.502408 0.950017
C13   C     C_R   0.817225 0.251147 0.611644 0.135349
C14   C     C_R   0.243891 0.316191 0.625334 0.138618
C15   C     C_R   0.738648 0.670053 0.407595 0.130190
C16   C     C_R   0.799472 0.742877 0.613466 0.143338
C17   C     C_R   0.242856 0.299320 0.377476 0.155852
C18   C     C_R   0.299473 0.757120 0.386537 0.143335
C19   C     C_R   0.742867 0.200670 0.622521 0.155855
C20   C     C_R   0.743887 0.183811 0.374663 0.138617
C21   C     C_R   0.238647 0.829950 0.592400 0.130189
C22   C     C_R   0.750248 0.817436 0.592583 0.117908
C23   C     C_R   0.885006 0.374426 0.497058 0.944129
C24   C     C_R   0.317215 0.248846 0.388349 0.135360
C25   C     C_R   0.297356 0.242073 0.632846 0.145661
C26   C     C_R   0.674577 0.735592 0.407287 0.116707
C27   C     C_R   0.184396 0.688337 0.505513 -0.223068
C28   C     C_R   0.831977 0.294757 0.490540 -0.252636
C29   C     C_R   0.803433 0.676307 0.508816 -0.236425
C30   C     C_R   0.203673 0.332269 0.499159 -0.245825
C31   C     C_R   0.703676 0.167727 0.500840 -0.245825
C32   C     C_R   0.303433 0.823693 0.491182 -0.236421
C33   C     C_R   0.331978 0.205244 0.509457 -0.252645
C34   C     C_R   0.119769 0.620396 0.502034 0.945934
C35   C     C_R   0.684395 0.811662 0.494490 -0.223071
C36   C     C_R   0.619769 0.879604 0.497967 0.945932
C37   C     C_R   0.385007 0.125575 0.502942 0.944131
C38   C     C_R   0.376393 0.883413 0.497591 0.950017
C39   C     C_R   0.624959 0.115156 0.501199 0.940441
C40   C     C_R   0.996389 0.578074 0.076970 -0.006157
H1    H     H_    0.993613 0.640521 0.135390 0.154413
H2    H     H_    0.020384 0.361768 0.866346 0.172896
H3    H     H_    0.011145 0.360100 0.117755 0.166613
H4    H     H_    0.997238 0.640042 0.882883 0.175848
H5    H     H_    0.520412 0.138229 0.133654 0.172896
H6    H     H_    0.493590 0.859480 0.864610 0.154413
H7    H     H_    0.497218 0.859958 0.117117 0.175850
H8    H     H_    0.511170 0.139898 0.882245 0.166611
I1    I     I_    0.817110 0.308634 0.168305 -0.193325
I2    I     I_    0.696981 0.184303 0.825400 -0.199002
I3    I     I_    0.742232 0.088289 0.204766 -0.182665
I4    I     I_    0.229236 0.944433 0.730137 -0.174556
I5    I     I_    0.780233 0.938488 0.706326 -0.169764
I6    I     I_    0.421058 0.274308 0.251946 -0.221956
I7    I     I_    0.317134 0.191381 0.831698 -0.193306
I8    I     I_    0.559910 0.713555 0.287780 -0.232513
I9    I     I_    0.059911 0.786447 0.712217 -0.232512
I10   I     I_    0.280234 0.561507 0.293684 -0.169776
I11   I     I_    0.921084 0.225667 0.748007 -0.221963
I12   I     I_    0.242233 0.411715 0.795231 -0.182652
I13   I     I_    0.729241 0.555578 0.269844 -0.174560
I14   I     I_    0.831852 0.720955 0.820786 -0.229202
I15   I     I_    0.196951 0.315669 0.174602 -0.198998
I16   I     I_    0.331846 0.779040 0.179215 -0.229216
N1    N     N_R   0.000000 0.500000 0.857200 -0.098706
N2    N     N_R   1.000000 0.500000 0.142800 -0.095856
N3    N     N_R   0.500000 0.000000 0.857200 -0.095856
N4    N     N_R   0.500000 0.000000 0.142800 -0.098704
O1    O     O_R   0.091610 0.408380 0.614620 -0.609420
O2    O     O_R   0.408390 0.091620 0.385380 -0.600319
O3    O     O_R   0.408390 0.091620 0.614620 -0.596738
O4    O     O_R   0.591610 0.908380 0.385380 -0.599973
O5    O     O_R   0.408390 0.908380 0.385380 -0.596603
O6    O     O_R   0.591610 0.091620 0.614620 -0.602865
O7    O     O_R   0.591610 0.091620 0.385380 -0.609428
O8    O     O_R   0.408390 0.908380 0.614620 -0.607128
O9    O     O_R   0.908390 0.591620 0.385380 -0.607123
O10   O     O_R   0.908390 0.591620 0.614620 -0.596602
O11   O     O_R   0.091610 0.408380 0.385380 -0.602860
O12   O     O_R   0.908390 0.408380 0.385380 -0.596742
O13   O     O_R   0.091610 0.591620 0.614620 -0.599976
O14   O     O_R   0.091610 0.591620 0.385380 -0.607803
O15   O     O_R   0.908390 0.408380 0.614620 -0.600326
O16   O     O_R   0.591610 0.908380 0.614620 -0.607801
Zn1   Zn    Zn3+2 0.000000 0.500000 0.653120 1.024329
Zn2   Zn    Zn3+2 0.000000 0.500000 0.346880 1.023487
Zn3   Zn    Zn3+2 0.500000 0.000000 0.653120 1.023486
Zn4   Zn    Zn3+2 0.500000 0.000000 0.346880 1.024330

loop_
_geom_bond_atom_site_label_1
_geom_bond_atom_site_label_2
_ccdc_geom_bond_type
C10   C27   A    
C11   C18   A    
C12   C29   S    
C35   C36   S    
O16   Zn3   S    
C2    N1    A    
O2    Zn4   S    
C38   O8    A    
C22   C35   A    
C3    H3    S    
C23   O15   A    
C2    H2    S    
C20   I3    S    
C4    N1    A    
N4    Zn4   S    
C24   I6    S    
C39   O6    A    
O12   Zn2   S    
C7    N4    A    
C4    C40   A    
C12   O10   A    
C13   C28   A    
C34   O13   A    
C32   C38   S    
O6    Zn3   S    
C11   I10   S    
C19   C31   A    
C10   C21   A    
C40   N2    A    
C37   O2    A    
C17   C30   A    
C16   I14   S    
C14   C30   A    
C5    N4    A    
O4    Zn4   S    
C15   C29   A    
C22   I5    S    
C27   C34   S    
C21   C32   A    
C17   C24   A    
C13   C19   A    
C10   I9    S    
C9    I1    S    
C15   C26   A    
C4    H4    S    
C16   C29   A    
O14   Zn2   S    
C5    H5    S    
C1    O1    A    
C7    H7    S    
C8    H8    S    
O5    Zn4   S    
C26   C35   A    
C9    C20   A    
C11   C27   A    
C12   O9    A    
C15   I13   S    
C23   C28   S    
O8    Zn3   S    
O3    Zn3   S    
O10   Zn1   S    
C6    N3    A    
O15   Zn1   S    
O9    Zn2   S    
C39   O7    A    
C37   O3    A    
C23   O12   A    
C3    N2    A    
C18   C32   A    
O1    Zn1   S    
C40   H1    S    
C16   C22   A    
C6    H6    S    
C25   I7    S    
C26   I8    S    
N2    Zn2   S    
C5    C8    A    
N1    Zn1   S    
C6    C7    A    
C13   I11   S    
C14   I12   S    
N3    Zn3   S    
C24   C33   A    
C2    C3    A    
C17   I15   S    
C19   I2    S    
C18   I16   S    
C36   O16   A    
C1    O11   A    
C1    C30   S    
C31   C39   S    
O11   Zn2   S    
C14   C25   A    
C33   C37   S    
O7    Zn4   S    
C8    N3    A    
C34   O14   A    
C20   C31   A    
C21   I4    S    
O13   Zn1   S    
C36   O4    A    
C9    C28   A    
C25   C33   A    
C38   O5    A    
