data_mof_unit_12232.cif
_audit_creation_date              2012-12-10T17:37:29-0500
_audit_creation_method            fapswitch 2.2
_symmetry_space_group_name_H-M    P1
_symmetry_Int_Tables_number       1
_space_group_crystal_system       triclinic
_cell_length_a                    12.061784
_cell_length_b                    12.860154
_cell_length_c                    16.695741
_cell_angle_alpha                 92.009648
_cell_angle_beta                  80.00874
_cell_angle_gamma                 93.410754
_cell_volume                      2545.18271546

loop_
_atom_site_label
_atom_site_type_symbol
_atom_type_description
_atom_site_fract_x
_atom_site_fract_y
_atom_site_fract_z
_atom_type_partial_charge
C1    C     C_R   0.522943 0.700057 0.495470 0.868878
C2    C     C_R   0.477114 0.299712 0.503532 0.874594
C3    C     C_R   0.461494 0.188235 0.511111 -0.142688
C4    C     C_R   0.538812 0.811553 0.491112 -0.174282
C5    C     C_R   0.648122 0.970386 0.451580 0.112151
C6    C     C_R   0.357643 0.030437 0.563569 0.065826
C7    C     C_R   0.632808 0.861421 0.441937 -0.039829
C8    C     C_R   0.364255 0.139623 0.556828 -0.047689
C9    C     C_R   0.454937 0.868040 0.537617 -0.274106
C10   C     C_R   0.550447 0.131231 0.473420 -0.280728
C11   C     C_R   0.453865 0.974480 0.529390 0.111734
C12   C     C_R   0.552125 0.025998 0.485762 0.077337
C13   C     C_R   0.970726 0.413228 0.416494 -0.295357
C14   C     C_R   0.029204 0.587198 0.583242 -0.327808
C15   C     C_R   0.852800 0.420415 0.423079 0.240770
C16   C     C_R   0.146996 0.581399 0.575305 0.262027
C17   C     C_R   0.850965 0.534660 0.538540 -0.067310
C18   C     C_R   0.148473 0.463019 0.462962 -0.026373
C19   C     C_R   0.969503 0.529955 0.531299 0.063964
C20   C     C_R   0.029721 0.467743 0.470250 0.059134
C21   C     C_R   0.483162 0.499045 0.654153 0.847388
C22   C     C_R   0.516120 0.494393 0.345931 0.848423
C23   C     C_R   0.469804 0.480215 0.740534 -0.031455
C24   C     C_R   0.524580 0.461872 0.261113 -0.020391
C25   C     C_R   0.559430 0.506866 0.781620 -0.210825
C26   C     C_R   0.436531 0.398597 0.237597 -0.200863
C27   C     C_R   0.554567 0.475070 0.860595 -0.142853
C28   C     C_R   0.446149 0.359143 0.158586 -0.153758
C29   C     C_R   0.460357 0.415035 0.898948 0.202576
C30   C     C_R   0.542930 0.384836 0.101726 0.203478
C31   C     C_R   0.368788 0.392040 0.859069 -0.180089
C32   C     C_R   0.633399 0.443503 0.126233 -0.175370
C33   C     C_R   0.373929 0.423604 0.779697 -0.203139
C34   C     C_R   0.624287 0.482036 0.205850 -0.212827
C35   C     C_2   0.452173 0.384647 0.983285 -0.233575
C36   C     C_2   0.544189 0.367406 0.014687 -0.239865
H1    H     H_    0.633873 0.550895 0.752161 0.142654
H2    H     H_    0.360816 0.378436 0.280608 0.145837
H3    H     H_    0.018576 0.368026 0.368216 0.140088
H4    H     H_    0.984276 0.637020 0.630158 0.139144
H5    H     H_    0.693714 0.529221 0.223770 0.145230
H6    H     H_    0.305345 0.399929 0.747981 0.141117
H7    H     H_    0.625564 0.362785 0.975217 0.149224
H8    H     H_    0.370337 0.389946 0.021945 0.151383
H9    H     H_    0.294687 0.347732 0.888697 0.129276
H10   H     H_    0.708519 0.464048 0.082774 0.128432
H11   H     H_    0.376680 0.311321 0.141398 0.128540
H12   H     H_    0.623978 0.498663 0.891664 0.127133
H13   H     H_    0.617485 0.170530 0.432178 0.154291
H14   H     H_    0.388246 0.826510 0.577604 0.156196
H15   H     H_    0.194573 0.414197 0.416067 0.127875
H16   H     H_    0.804759 0.582847 0.585846 0.129002
N1    N     N_R   0.206400 0.519440 0.514690 -0.111208
N2    N     N_R   0.793600 0.480560 0.485310 -0.116616
O1    O     O_R   0.421320 0.658850 0.503920 -0.628986
O2    O     O_R   0.578680 0.341150 0.496080 -0.633103
O3    O     O_R   0.609840 0.646370 0.494500 -0.634487
O4    O     O_R   0.390160 0.353630 0.505500 -0.601359
O5    O     O_R   0.394600 0.506990 0.621070 -0.631582
O6    O     O_R   0.605400 0.493010 0.378930 -0.650384
O7    O     O_R   0.583120 0.494520 0.611640 -0.608257
O8    O     O_R   0.416880 0.505480 0.388360 -0.613190
Zn1   Zn    Zn3+2 0.374120 0.508330 0.506290 0.946128
Zn2   Zn    Zn3+2 0.625880 0.491670 0.493710 0.922572
C37   C     C_3   0.201641 0.646550 0.636337 -0.405658
C38   C     C_3   0.167565 0.603795 0.722367 -0.349903
C39   C     C_3   0.233733 0.660676 0.782327 -0.870235
H17   H     H_    0.325791 0.655566 0.761398 0.262540
H18   H     H_    0.213583 0.743867 0.788680 0.264461
H19   H     H_    0.210712 0.624679 0.842855 0.255892
H20   H     H_    0.076204 0.612689 0.744459 0.211757
H21   H     H_    0.182814 0.519540 0.721066 0.235227
H22   H     H_    0.293154 0.652831 0.620591 0.258238
H23   H     H_    0.174693 0.727528 0.636208 0.167855
C40   C     C_3   0.795678 0.370617 0.355704 -0.368889
C41   C     C_3   0.855022 0.279451 0.307175 -0.456722
C42   C     C_3   0.779787 0.223386 0.252654 -0.852024
H24   H     H_    0.701676 0.189133 0.289710 0.255963
H25   H     H_    0.756801 0.278518 0.209249 0.273319
H26   H     H_    0.825651 0.159486 0.217540 0.259692
H27   H     H_    0.933026 0.309165 0.267159 0.231102
H28   H     H_    0.877489 0.222592 0.349514 0.235006
H29   H     H_    0.711155 0.339630 0.381616 0.255576
H30   H     H_    0.788695 0.432071 0.312189 0.205537
C43   C     C_2   0.273853 0.203622 0.601250 0.434653
H31   H     H_    0.290324 0.253032 0.652272 0.036383
O9    O     O_2   0.183186 0.205458 0.578410 -0.584304
C44   C     C_2   0.706232 0.801407 0.376799 0.358142
H32   H     H_    0.693349 0.717964 0.369272 0.103140
O10   O     O_2   0.778319 0.844656 0.326703 -0.589244
C45   C     C_3   0.765878 0.024985 0.432433 -0.385322
C46   C     C_3   0.850212 0.976872 0.477891 -0.335063
C47   C     C_3   0.965400 0.035626 0.461544 -0.827414
H33   H     H_    0.000286 0.033046 0.395446 0.265029
H34   H     H_    0.958355 0.118183 0.482845 0.271416
H35   H     H_    0.024495 0.998815 0.494669 0.252147
H36   H     H_    0.817602 0.980052 0.544402 0.215917
H37   H     H_    0.861559 0.894063 0.459159 0.249521
H38   H     H_    0.796877 0.024711 0.365899 0.251686
H39   H     H_    0.765366 0.107716 0.452895 0.189251
C48   C     C_3   0.248802 0.976125 0.606984 -0.414840
C49   C     C_3   0.250248 0.967679 0.698243 -0.357300
C50   C     C_3   0.132555 0.940338 0.745410 -0.885032
H40   H     H_    0.075471 0.003687 0.740686 0.271558
H41   H     H_    0.096959 0.866522 0.721388 0.258952
H42   H     H_    0.137139 0.931008 0.810595 0.250180
H43   H     H_    0.308106 0.906996 0.707850 0.219191
H44   H     H_    0.281432 0.043083 0.723090 0.221651
H45   H     H_    0.174800 0.018592 0.598097 0.248060
H46   H     H_    0.232441 0.898510 0.579091 0.180859

loop_
_geom_bond_atom_site_label_1
_geom_bond_atom_site_label_2
_ccdc_geom_bond_type
C27   H12   S    
C15   C40   S    
C28   H11   S    
C48   C49   S    
C27   C29   A    
C35   C36   D    
C46   H37   S    
C42   H24   S    
C47   H33   S    
C33   H6    S    
C24   C26   A    
C21   O5    A    
C22   O6    A    
C40   H30   S    
C48   H45   S    
C37   H22   S    
C18   C20   A    
C8    C43   S    
C6    C48   S    
C7    C44   S    
C16   N1    A    
C18   N1    A    
C25   H1    S    
C38   H21   S    
C19   C20   A    
C23   C33   A    
O1    Zn1   S    
C46   H36   S    
O2    Zn2   S    
C49   H44   S    
C45   H39   S    
C21   O7    A    
C43   O9    D    
C38   C39   S    
C47   H34   S    
C34   H5    S    
C4    C7    A    
C17   H16   S    
C26   C28   A    
C18   H15   S    
C42   H25   S    
C39   H17   S    
C15   N2    A    
C41   C42   S    
C5    C12   A    
C3    C8    A    
C41   H28   S    
C45   C46   S    
C5    C7    A    
C26   H2    S    
C6    C8    A    
C48   H46   S    
C43   H31   S    
C24   C34   A    
C37   H23   S    
C39   H18   S    
C32   C34   A    
O7    Zn2   S    
C40   C41   S    
O8    Zn1   S    
C1    O3    A    
C22   O8    A    
C38   H20   S    
C31   C33   A    
C49   H43   S    
C50   H41   S    
C35   H8    S    
C9    C11   A    
C5    C45   S    
C10   C12   A    
C44   O10   D    
C47   H35   S    
C13   C15   A    
C14   C16   A    
C6    C11   A    
O3    Zn2   S    
C42   H26   S    
O4    Zn1   S    
C13   C20   A    
C32   H10   S    
C14   C19   A    
C9    H14   S    
C41   H27   S    
C11   C12   A    
C2    O4    A    
C25   C27   A    
C29   C35   S    
O5    Zn1   S    
C30   C36   S    
O6    Zn2   S    
C1    C4    S    
C39   H19   S    
C21   C23   S    
C2    C3    S    
C1    O1    A    
C29   C31   A    
C3    C10   A    
C2    O2    A    
C30   C32   A    
N1    Zn1   S    
C40   H29   S    
N2    Zn2   S    
C28   C30   A    
C46   C47   S    
C17   C19   A    
C50   H42   S    
C22   C24   S    
C23   C25   A    
C49   C50   S    
C13   H3    S    
C14   H4    S    
C44   H32   S    
C37   C38   S    
C31   H9    S    
C50   H40   S    
C36   H7    S    
C16   C37   S    
C45   H38   S    
C4    C9    A    
C10   H13   S    
C17   N2    A    
