data_mof_unit_60095.cif
_audit_creation_date              2012-10-26T18:19:06-0400
_audit_creation_method            fapswitch 2.2
_symmetry_space_group_name_H-M    P1
_symmetry_Int_Tables_number       1
_space_group_crystal_system       triclinic
_cell_length_a                    18.765076
_cell_length_b                    18.75846
_cell_length_c                    18.84942
_cell_angle_alpha                 109.384664
_cell_angle_beta                  109.325319
_cell_angle_gamma                 109.241642
_cell_volume                      5136.59143288

loop_
_atom_site_label
_atom_site_type_symbol
_atom_type_description
_atom_site_fract_x
_atom_site_fract_y
_atom_site_fract_z
_atom_type_partial_charge
C1    C     C_R   0.380230 0.381462 0.499072 0.551521
C2    C     C_R   0.252963 0.178841 0.493947 -0.003828
C3    C     C_3   0.291708 0.120923 0.483063 -0.139347
C4    C     C_R   0.618386 0.498963 0.618939 0.542209
C5    C     C_3   0.360992 0.191302 0.480227 -0.127453
C6    C     C_R   0.293490 0.465376 0.231025 0.007552
C7    C     C_R   0.310772 0.500489 0.316100 -0.012264
C8    C     C_R   0.259667 0.538071 0.335735 -0.054967
C9    C     C_R   0.193702 0.536190 0.268964 -0.047740
C10   C     C_R   0.181475 0.501002 0.184193 0.012314
C11   C     C_R   0.233428 0.467170 0.168999 -0.004896
C12   C     C_3   0.808490 0.502633 0.812085 -0.025145
C13   C     C_3   0.251617 0.423992 0.100679 -0.269316
C14   C     C_3   0.320779 0.422396 0.171535 -0.246417
C15   C     C_R   0.768827 0.698049 0.531872 -0.005627
C16   C     C_R   0.618447 0.618694 0.499787 0.541823
C17   C     C_R   0.684992 0.686123 0.500928 0.020865
C18   C     C_R   0.668706 0.746740 0.480757 -0.131058
C19   C     C_R   0.732969 0.810997 0.480372 -0.123001
C20   C     C_R   0.814904 0.816820 0.503204 0.012602
C21   C     C_R   0.833106 0.762854 0.533654 0.037649
C22   C     C_3   0.869973 0.706047 0.506423 -0.137292
C23   C     C_3   0.848286 0.579514 0.792875 -0.044712
C24   C     C_3   0.799437 0.634957 0.505116 -0.262416
C25   C     C_R   0.999718 0.381433 0.880812 0.549758
C26   C     C_R   0.878058 0.503058 0.880988 0.541694
C27   C     C_R   0.998447 0.618915 0.117100 0.555606
C28   C     C_R   0.379583 0.499678 0.380997 0.540181
C29   C     C_R   0.116130 0.498574 0.114961 0.544748
C30   C     C_R   0.998800 0.117811 0.617710 0.546757
C31   C     C_R   0.118297 0.117916 0.499450 0.540334
C32   C     C_R   0.000323 0.881086 0.382045 0.535817
C33   C     C_R   0.881271 0.881121 0.500059 0.536995
C34   C     C_3   0.736958 0.509642 0.838166 -0.064539
C35   C     C_R   0.929598 0.234653 0.757240 -0.007568
C36   C     C_R   0.003186 0.315610 0.816640 0.012835
C37   C     C_R   0.079679 0.330389 0.809917 -0.034127
C38   C     C_R   0.077739 0.264734 0.743899 -0.142228
C39   C     C_R   0.000478 0.185271 0.683697 0.011724
C40   C     C_3   0.696036 0.415451 0.650286 -0.123871
C41   C     C_R   0.927922 0.173104 0.692771 -0.008816
C42   C     C_3   0.835945 0.108256 0.657552 -0.051852
C43   C     C_3   0.836668 0.179720 0.730181 -0.130938
C44   C     C_R   0.924371 0.686568 0.176185 0.031206
C45   C     C_R   0.312404 0.239657 0.489916 0.001682
C46   C     C_R   0.001413 0.687028 0.185541 0.018933
C47   C     C_R   0.081225 0.758927 0.257497 -0.026942
C48   C     C_R   0.080750 0.822581 0.322489 -0.144931
C49   C     C_R   0.001773 0.816374 0.315062 0.005181
C50   C     C_R   0.924601 0.750812 0.239143 0.037776
C51   C     C_3   0.842774 0.687961 0.228359 -0.272064
C52   C     C_3   0.759123 0.412433 0.726312 -0.152338
C53   C     C_3   0.842801 0.617215 0.159369 -0.251536
C54   C     C_3   0.773035 0.581349 0.727965 -0.255776
C55   C     C_3   0.662285 0.501858 0.760529 -0.141515
C56   C     C_R   0.311560 0.315590 0.497679 0.011301
C57   C     C_3   0.685875 0.498027 0.687387 -0.031864
C58   C     C_1   0.723362 0.412175 0.584137 0.248361
C59   C     C_1   0.774827 0.593034 0.917128 0.172369
C60   C     C_1   0.904268 0.666141 0.871777 0.225248
C61   C     C_1   0.233180 0.400478 0.511928 0.229366
C62   C     C_1   0.326830 0.113241 0.560703 0.234182
C63   C     C_1   0.356387 0.161629 0.395367 0.222780
C64   C     C_1   0.274164 0.580120 0.422975 0.263925
C65   C     C_1   0.139328 0.570718 0.287641 0.233079
C66   C     C_1   0.957971 0.738685 0.574700 0.249651
C67   C     C_R   0.242167 0.325542 0.505762 -0.039978
C68   C     C_1   0.161304 0.410110 0.870544 0.225360
C69   C     C_1   0.778927 0.086983 0.569538 0.215022
C70   C     C_1   0.828332 0.030511 0.664875 0.203321
C71   C     C_1   0.828208 0.160834 0.797852 0.239978
C72   C     C_1   0.163774 0.765902 0.269155 0.241135
C73   C     C_1   0.817031 0.381076 0.706511 0.209478
C74   C     C_1   0.904800 0.568308 0.755835 0.237035
C75   C     C_1   0.574409 0.428464 0.724200 0.194099
C76   C     C_1   0.701109 0.442891 0.861448 0.226045
C77   C     C_R   0.178078 0.259671 0.505589 -0.143134
C78   C     C_R   0.183711 0.185322 0.500224 0.009908
Cu1   Cu    Cu3+1 0.500370 0.438220 0.438550 0.993365
Cu2   Cu    Cu3+1 0.499630 0.561780 0.561450 1.027753
Cu3   Cu    Cu3+1 0.935500 0.438280 0.997350 1.024402
Cu4   Cu    Cu3+1 0.059110 0.561800 0.997270 1.065540
Cu5   Cu    Cu3+1 0.062130 0.000020 0.562160 1.026073
Cu6   Cu    Cu3+1 0.937870 0.000080 0.437940 1.001688
H1    H     H_    0.766936 0.638951 0.760490 0.138713
H2    H     H_    0.247670 0.057405 0.422015 0.116313
H3    H     H_    0.428116 0.226489 0.535605 0.141641
H4    H     H_    0.631492 0.356231 0.616413 0.116904
H5    H     H_    0.195891 0.358487 0.049106 0.146719
H6    H     H_    0.279444 0.467710 0.077756 0.172540
H7    H     H_    0.388435 0.465334 0.189491 0.149262
H8    H     H_    0.605407 0.741951 0.461700 0.131023
H9    H     H_    0.718283 0.855087 0.461195 0.151296
H10   H     H_    0.864379 0.691004 0.441924 0.105704
H11   H     H_    0.751475 0.578478 0.439077 0.151855
H12   H     H_    0.305263 0.355865 0.160655 0.161713
H13   H     H_    0.823337 0.617448 0.555665 0.157272
H14   H     H_    0.136102 0.275643 0.739234 0.132755
H15   H     H_    0.795383 0.206991 0.707149 0.132650
H16   H     H_    0.141555 0.876028 0.379183 0.133987
H17   H     H_    0.655754 0.560926 0.784890 0.144040
H18   H     H_    0.718278 0.361457 0.735081 0.124760
H19   H     H_    0.852738 0.681236 0.286842 0.128651
H20   H     H_    0.788244 0.700027 0.202051 0.159802
H21   H     H_    0.853160 0.569578 0.177981 0.162258
H22   H     H_    0.788050 0.588202 0.093383 0.170166
H23   H     H_    0.785419 0.588642 0.676148 0.122304
H24   H     H_    0.124593 0.266801 0.510603 0.139488
N1    N     N_1   0.744574 0.409679 0.532662 -0.253878
N2    N     N_1   0.226766 0.473969 0.918991 -0.279399
N3    N     N_1   0.734074 0.070233 0.500231 -0.259086
N4    N     N_1   0.822677 0.969881 0.671260 -0.269250
N5    N     N_1   0.821578 0.146088 0.850997 -0.247630
N6    N     N_1   0.229892 0.771428 0.278519 -0.261747
N7    N     N_1   0.862008 0.356722 0.690759 -0.263602
N8    N     N_1   0.949160 0.560068 0.727011 -0.229760
N9    N     N_1   0.505981 0.371619 0.696119 -0.285701
N10   N     N_1   0.673029 0.391072 0.879560 -0.257929
N11   N     N_1   0.803822 0.658035 0.978933 -0.276994
N12   N     N_1   0.948422 0.734011 0.933272 -0.238894
N13   N     N_1   0.225459 0.460377 0.517080 -0.238147
N14   N     N_1   0.354450 0.107185 0.621817 -0.242455
N15   N     N_1   0.352802 0.138320 0.328594 -0.254450
N16   N     N_1   0.285798 0.614577 0.492533 -0.219457
N17   N     N_1   0.095828 0.597969 0.302632 -0.279601
N18   N     N_1   0.027245 0.764394 0.628421 -0.240095
O1    O     O_R   0.410140 0.357660 0.448100 -0.503988
O2    O     O_R   0.947040 0.090210 0.537310 -0.497307
O3    O     O_R   0.142640 0.090190 0.552500 -0.499528
O4    O     O_R   0.409510 0.462000 0.551890 -0.493805
O5    O     O_R   0.037710 0.090250 0.447610 -0.508815
O6    O     O_R   0.052960 0.909890 0.462790 -0.508819
O7    O     O_R   0.948020 0.909940 0.357900 -0.502312
O8    O     O_R   0.962290 0.909850 0.552490 -0.494403
O9    O     O_R   0.857360 0.909910 0.447600 -0.517824
O10   O     O_R   0.590970 0.447830 0.538770 -0.505494
O11   O     O_R   0.590340 0.552170 0.642560 -0.516505
O12   O     O_R   0.049970 0.462000 0.907620 -0.491612
O13   O     O_R   0.590490 0.538000 0.448110 -0.515053
O14   O     O_R   0.589860 0.642340 0.551900 -0.500498
O15   O     O_R   0.409660 0.447830 0.357440 -0.511189
O16   O     O_R   0.409030 0.552170 0.461230 -0.500659
O17   O     O_R   0.945590 0.357690 0.907690 -0.509299
O18   O     O_R   0.854460 0.447890 0.906680 -0.509282
O19   O     O_R   0.958840 0.552200 0.906620 -0.497217
O20   O     O_R   0.944630 0.538080 0.087010 -0.510585
O21   O     O_R   0.049020 0.642390 0.086940 -0.497917
O22   O     O_R   0.035760 0.447880 0.088010 -0.506484
O23   O     O_R   0.140150 0.552190 0.087940 -0.499507
O24   O     O_R   0.051980 0.090160 0.642200 -0.504369

loop_
_geom_bond_atom_site_label_1
_geom_bond_atom_site_label_2
_ccdc_geom_bond_type
Cu6   O2    S    
Cu1   O13   S    
Cu6   O9    S    
C13   H6    S    
C58   N1    T    
C69   N3    T    
C41   C42   S    
C35   C36   A    
C75   N9    T    
C62   N14   T    
C38   H14   S    
C29   O22   A    
Cu4   O21   S    
C7    C8    A    
C39   C41   A    
C16   O14   A    
C77   C78   A    
Cu1   O10   S    
C12   C23   S    
C52   H18   S    
C54   H23   S    
C23   C54   S    
C36   C37   A    
C1    C56   S    
C43   H15   S    
Cu5   O3    S    
C32   O7    A    
C32   C49   S    
C30   O24   A    
C51   H19   S    
Cu2   O11   S    
C37   C68   S    
C72   N6    T    
C42   C70   S    
C71   N5    T    
C61   N13   T    
C18   C19   A    
C33   O9    A    
C22   C66   S    
Cu5   O8    S    
C31   O5    A    
C4    O11   A    
C44   C53   S    
Cu3   O18   S    
Cu5   Cu6   S    
C45   C56   A    
C16   C17   S    
C67   C77   A    
C4    C57   S    
C43   C71   S    
C35   C43   S    
C9    C10   A    
C19   H9    S    
C4    O10   A    
Cu5   O24   S    
C55   C75   S    
C34   C55   S    
C13   C14   S    
C3    H2    S    
C22   H10   S    
C25   O17   A    
C26   O18   A    
C53   H22   S    
C14   H12   S    
C47   C72   S    
C12   C52   S    
C44   C46   A    
Cu3   Cu4   S    
C2    C45   A    
C23   C60   S    
C48   H16   S    
C30   O2    A    
Cu6   O7    S    
C40   C58   S    
C24   H13   S    
Cu2   O4    S    
C52   C73   S    
C24   H11   S    
C6    C11   A    
C8    C9    A    
C51   H20   S    
C40   C52   S    
C5    C45   S    
C42   C69   S    
C76   N10   T    
C7    C28   S    
C66   N18   T    
C12   C26   S    
C51   C53   S    
C65   N17   T    
C26   O19   A    
C37   C38   A    
C2    C78   A    
C6    C14   S    
C5    C63   S    
C61   C67   S    
C47   C48   A    
Cu3   O17   S    
C33   O8    A    
Cu3   O22   S    
C74   N8    T    
C50   C51   S    
Cu3   O20   S    
C68   N2    T    
C70   N4    T    
C8    C64   S    
C20   C33   S    
C27   C46   S    
C48   C49   A    
C1    O4    A    
Cu2   O16   S    
C55   C57   S    
C34   C59   S    
C22   C24   S    
C16   O13   A    
C28   O16   A    
C42   C43   S    
C23   C74   S    
C12   C34   S    
C32   O6    A    
Cu4   O19   S    
C31   C78   S    
C3    C62   S    
C44   C50   A    
C15   C17   A    
Cu1   O1    S    
C46   C47   A    
C15   C24   S    
C59   N11   T    
C40   C57   S    
C13   H5    S    
C38   C39   A    
C77   H24   S    
C1    O1    A    
C3    C5    S    
C54   H1    S    
C63   N15   T    
C25   O12   A    
C6    C7    A    
C56   C67   A    
C64   N16   T    
C55   H17   S    
Cu6   O5    S    
C73   N7    T    
C17   C18   A    
C18   H8    S    
C40   H4    S    
C19   C20   A    
C2    C3    S    
Cu5   O6    S    
C31   O3    A    
Cu2   O14   S    
Cu4   O12   S    
C11   C13   S    
C10   C29   S    
Cu1   O15   S    
C27   O20   A    
C30   C39   S    
C60   N12   T    
C35   C41   A    
C9    C65   S    
C14   H7    S    
Cu4   O23   S    
C10   C11   A    
C25   C36   S    
C29   O23   A    
Cu1   Cu2   S    
C5    H3    S    
C53   H21   S    
C15   C21   A    
C20   C21   A    
C27   O21   A    
C49   C50   A    
C28   O15   A    
C21   C22   S    
C34   C76   S    
C54   C57   S    
