data_mof_unit_45252.cif
_audit_creation_date              2013-03-05T15:43:03-0500
_audit_creation_method            fapswitch 2.2
_symmetry_space_group_name_H-M    P1
_symmetry_Int_Tables_number       1
_space_group_crystal_system       triclinic
_cell_length_a                    9.692727
_cell_length_b                    10.925338
_cell_length_c                    15.54419
_cell_angle_alpha                 89.972901
_cell_angle_beta                  73.897257
_cell_angle_gamma                 90.20953
_cell_volume                      1581.47781576

loop_
_atom_site_label
_atom_site_type_symbol
_atom_site_description
_atom_site_fract_x
_atom_site_fract_y
_atom_site_fract_z
_atom_type_partial_charge
O1    O     O_R   0.117050 0.321960 0.499980 -0.565620
O2    O     O_R   0.882890 0.321920 0.500020 -0.580758
C1    C     C_R   0.998585 0.265405 0.502609 0.840627
O3    O     O_R   0.052910 0.500040 0.629810 -0.585493
O4    O     O_R   0.818750 0.499990 0.629840 -0.581421
C2    C     C_R   0.916923 0.500162 0.672078 0.787877
Cu1   Cu    Cu3+1 0.138640 0.500020 0.499980 0.988196
Cu2   Cu    Cu3+1 0.861360 0.499980 0.500020 0.952910
O5    O     O_R   0.117110 0.678080 0.499980 -0.526320
O6    O     O_R   0.882950 0.678040 0.500020 -0.592209
O7    O     O_R   0.181250 0.500010 0.370160 -0.574363
O8    O     O_R   0.947090 0.499960 0.370190 -0.579948
C3    C     C_R   0.002337 0.734740 0.495626 0.761793
C4    C     C_R   0.083064 0.498478 0.327970 0.817977
C5    C     C_R   0.870995 0.501509 0.770364 -0.050064
C6    C     C_R   0.129419 0.486423 0.230168 -0.045641
C7    C     C_R   0.919880 0.534150 0.912791 -0.207472
C8    C     C_R   0.968380 0.525661 0.819959 -0.193185
C9    C     C_R   0.725811 0.482195 0.814617 -0.245323
C10   C     C_R   0.674451 0.487161 0.908456 0.091953
C11   C     C_R   0.774033 0.516224 0.957244 0.164476
C12   C     C_R   0.526774 0.467959 0.954731 0.068301
C13   C     C_R   0.479264 0.488193 0.048870 0.067819
C14   C     C_R   0.582979 0.515216 0.094907 -0.200493
C15   C     C_R   0.727253 0.528226 0.049813 -0.229756
C16   C     C_R   0.425518 0.427459 0.910346 -0.213429
C17   C     C_R   0.281666 0.412087 0.955807 -0.230282
C18   C     C_R   0.232447 0.437543 0.046800 0.167187
C19   C     C_R   0.329983 0.477750 0.094125 0.092338
C20   C     C_R   0.086245 0.421766 0.091297 -0.207772
C21   C     C_R   0.035037 0.445536 0.182580 -0.181411
C22   C     C_R   0.274195 0.505953 0.185378 -0.220573
H1    H     H_    0.802637 0.549389 0.087840 0.150155
H2    H     H_    0.340939 0.543719 0.223733 0.153685
H3    H     H_    0.922739 0.429084 0.216192 0.159253
H4    H     H_    0.208201 0.380092 0.919204 0.145956
H5    H     H_    0.996212 0.556774 0.949754 0.144086
H6    H     H_    0.081095 0.541209 0.786977 0.158525
H7    H     H_    0.654199 0.466967 0.773826 0.149373
H8    H     H_    0.557350 0.524133 0.166545 0.147241
H9    H     H_    0.454047 0.403027 0.840579 0.137400
H10   H     H_    0.011970 0.388495 0.055791 0.141697
C23   C     C_2   0.890279 0.932990 0.501619 -0.272868
C24   C     C_2   0.011385 0.865836 0.477881 0.188671
H11   H     H_    0.786857 0.889213 0.530343 0.160794
C25   C     C_2   0.889596 0.066583 0.495155 -0.111412
C26   C     C_2   0.995826 0.133647 0.510760 -0.248224
H12   H     H_    0.797067 0.109795 0.481543 0.174427
H13   H     H_    0.083639 0.091204 0.530330 0.178922
C27   C     C_2   0.397689 0.432958 0.554124 -0.058940
N1    N     N_2   0.346430 0.498660 0.500980 -0.272760
H14   H     H_    0.324339 0.375136 0.602898 0.146721
H15   H     H_    0.415106 0.551136 0.452893 0.206293
C28   C     C_2   0.554231 0.430145 0.552209 -0.061644
N2    N     N_2   0.652550 0.498630 0.501000 -0.278521
H16   H     H_    0.585169 0.367101 0.597442 0.146484
H17   H     H_    0.624121 0.561165 0.459822 0.199588
N3    N     N_R   0.146650 0.916628 0.426142 0.120233
O9    O     O_R   0.265984 0.885071 0.442878 -0.356718
O10   O     O_R   0.152314 0.983446 0.355865 -0.338336

loop_
_geom_bond_atom_site_label_1
_geom_bond_atom_site_label_2
_geom_bond_distance
_ccdc_geom_bond_type
O4    Cu2   1.944316 S    
C27   H14   1.084716 S    
C13   C14   1.416664 A    
C22   H2    1.075379 S    
O2    C1    1.292472 A    
C17   H4    1.084474 S    
C6    C22   1.398268 A    
C28   N2    1.294236 D    
C5    C8    1.398909 A    
C9    C10   1.405676 A    
O8    C4    1.299359 A    
Cu2   O8    1.957802 S    
C18   C20   1.403803 A    
C7    C8    1.391411 A    
C8    H6    1.083122 S    
Cu1   N1    2.018528 S    
Cu1   Cu2   2.687425 S    
C26   H13   1.085535 S    
C7    H5    1.083155 S    
C14   C15   1.386286 A    
C6    C21   1.398698 A    
Cu1   O7    1.944316 S    
C23   H11   1.086736 S    
C16   C17   1.386825 A    
C27   C28   1.509760 S    
C9    H7    1.074659 S    
O3    Cu1   1.957799 S    
O4    C2    1.297348 A    
C13   C19   1.426739 A    
Cu2   N2    2.019766 S    
C1    C26   1.444505 S    
C18   C19   1.418074 A    
C14   H8    1.076123 S    
C10   C12   1.427166 A    
C27   N1    1.293926 D    
C19   C22   1.405530 A    
C4    C6    1.466997 S    
N2    H17   1.025287 S    
C23   C24   1.348567 D    
C20   C21   1.392017 A    
C23   C25   1.463125 S    
C28   H16   1.084760 S    
C2    C5    1.468086 S    
O3    C2    1.299480 A    
N1    H15   1.025328 S    
N3    O10   1.301914 A    
C25   H12   1.086405 S    
C17   C18   1.390162 A    
O5    C3    1.293102 A    
C10   C11   1.418312 A    
Cu2   O6    1.955827 S    
C12   C16   1.416952 A    
C24   N3    1.443277 S    
O7    C4    1.296996 A    
Cu1   O5    1.957284 S    
C11   C15   1.389941 A    
C25   C26   1.337556 D    
C20   H10   1.083394 S    
C21   H3    1.083085 S    
O1    Cu1   1.955828 S    
N3    O9    1.301593 A    
C5    C9    1.399536 A    
C3    C24   1.456177 S    
O2    Cu2   1.957285 S    
C12   C13   1.424596 A    
C16   H9    1.076221 S    
C15   H1    1.084083 S    
O1    C1    1.292548 A    
O6    C3    1.295512 A    
C7    C11   1.403650 A    
