data_mof_unit_48481.cif
_audit_creation_date              2012-12-10T18:48:22-0500
_audit_creation_method            fapswitch 2.2
_symmetry_space_group_name_H-M    P1
_symmetry_Int_Tables_number       1
_space_group_crystal_system       triclinic
_cell_length_a                    10.806068
_cell_length_b                    9.837564
_cell_length_c                    11.534726
_cell_angle_alpha                 90.0443
_cell_angle_beta                  90.001823
_cell_angle_gamma                 89.842333
_cell_volume                      1226.19848477

loop_
_atom_site_label
_atom_site_type_symbol
_atom_type_description
_atom_site_fract_x
_atom_site_fract_y
_atom_site_fract_z
_atom_type_partial_charge
C1    C     C_R   0.260149 0.500339 0.498685 0.954644
C2    C     C_R   0.937758 0.624747 0.504282 0.355848
C3    C     C_R   0.939258 0.377021 0.477548 0.370159
C4    C     C_R   0.063300 0.620718 0.523312 0.330092
C5    C     C_R   0.873401 0.500173 0.493555 -0.456462
C6    C     C_R   0.128181 0.501381 0.494649 -0.446486
C7    C     C_R   0.546804 0.071800 0.591875 -0.098416
C8    C     C_R   0.451290 0.928170 0.408936 -0.074687
C9    C     C_R   0.451913 0.072012 0.408677 -0.039990
C10   C     C_R   0.548277 0.928030 0.591241 -0.092240
C11   C     C_3   0.153125 0.297332 0.296038 0.133572
C12   C     C_R   0.740412 0.499863 0.497906 0.958535
C13   C     C_3   0.144177 0.164933 0.227740 -0.341088
C14   C     C_3   0.192538 0.181551 0.104229 -0.984319
C15   C     C_3   0.854595 0.787365 0.384963 0.168512
C16   C     C_3   0.969406 0.841013 0.321528 -0.364343
C17   C     C_3   0.938959 0.874274 0.195412 -0.999538
C18   C     C_3   0.860735 0.191642 0.572639 0.142716
C19   C     C_3   0.976514 0.124221 0.623845 -0.338182
C20   C     C_3   0.944172 0.051700 0.736879 -0.979924
C21   C     C_3   0.137582 0.735211 0.679576 0.135990
C22   C     C_3   0.236964 0.837659 0.714397 -0.304416
C23   C     C_R   0.499641 0.499953 0.281820 0.876197
C24   C     C_3   0.256787 0.839897 0.845420 -0.999310
C25   C     C_R   0.499503 0.500063 0.718176 0.891777
C26   C     C_1   0.498413 0.499862 0.161444 -0.198492
C27   C     C_1   0.498352 0.500176 0.838552 -0.196046
C28   C     C_1   0.497664 0.499937 0.059292 -0.010881
C29   C     C_1   0.497651 0.500113 0.940704 -0.014721
C30   C     C_R   0.065099 0.383398 0.460584 0.337186
H1    H     H_    0.584593 0.126016 0.665328 0.126390
H2    H     H_    0.183194 0.083886 0.056737 0.269659
H3    H     H_    0.291815 0.210629 0.105451 0.269739
H4    H     H_    0.783610 0.869311 0.386509 0.166582
H5    H     H_    0.813550 0.701760 0.334659 0.123476
H6    H     H_    0.004096 0.933556 0.366013 0.250337
H7    H     H_    0.043927 0.763159 0.321833 0.227219
H8    H     H_    0.900673 0.783542 0.150778 0.266171
H9    H     H_    0.024460 0.905086 0.149189 0.272561
H10   H     H_    0.870505 0.958559 0.190990 0.276542
H11   H     H_    0.790688 0.111095 0.559388 0.171643
H12   H     H_    0.412018 0.873939 0.336181 0.136102
H13   H     H_    0.821381 0.264878 0.636728 0.118201
H14   H     H_    0.015437 0.049699 0.561171 0.267539
H15   H     H_    0.047701 0.202321 0.642795 0.220607
H16   H     H_    0.897306 0.122619 0.797800 0.257869
H17   H     H_    0.029509 0.014496 0.779463 0.273263
H18   H     H_    0.882428 0.963948 0.719279 0.281734
H19   H     H_    0.167571 0.633050 0.711420 0.104308
H20   H     H_    0.048414 0.762642 0.721872 0.151101
H21   H     H_    0.325372 0.809495 0.671989 0.258377
H22   H     H_    0.210783 0.940828 0.683848 0.227519
H23   H     H_    0.413886 0.126489 0.335489 0.131617
H24   H     H_    0.169455 0.866433 0.890950 0.260805
H25   H     H_    0.327887 0.916969 0.867519 0.272742
H26   H     H_    0.289485 0.738920 0.875949 0.274028
H27   H     H_    0.587324 0.873686 0.664095 0.146685
H28   H     H_    0.249000 0.336982 0.289736 0.153406
H29   H     H_    0.089382 0.372556 0.254257 0.104646
H30   H     H_    0.197916 0.083735 0.272082 0.225088
H31   H     H_    0.045581 0.134063 0.224548 0.245421
H32   H     H_    0.138598 0.260782 0.057656 0.268830
N1    N     N_R   0.500000 0.857200 0.500000 -0.090780
N2    N     N_R   0.500000 0.142800 0.500000 -0.074847
O1    O     O_R   0.316770 0.614620 0.499990 -0.582677
O2    O     O_3   0.880470 0.751102 0.501734 -0.602159
O3    O     O_3   0.882228 0.252194 0.462901 -0.593000
O4    O     O_3   0.122907 0.738376 0.557784 -0.591798
O5    O     O_R   0.683230 0.385380 0.500010 -0.594824
O6    O     O_R   0.683230 0.614620 0.500010 -0.591188
O7    O     O_R   0.316770 0.385380 0.499990 -0.586241
O8    O     O_R   0.500020 0.614670 0.334450 -0.630524
O9    O     O_R   0.499980 0.385330 0.665550 -0.627662
O10   O     O_R   0.499980 0.614670 0.665550 -0.631182
O11   O     O_R   0.500020 0.385330 0.334450 -0.625489
O12   O     O_3   0.124680 0.271200 0.413919 -0.596896
Zn1   Zn    Zn3+2 0.500000 0.653120 0.500000 0.945033
Zn2   Zn    Zn3+2 0.500000 0.346880 0.500000 0.958344

loop_
_geom_bond_atom_site_label_1
_geom_bond_atom_site_label_2
_ccdc_geom_bond_type
C8    C9    A    
C7    C10   A    
C2    C4    A    
C12   O5    A    
C19   H15   S    
C2    O2    S    
O8    Zn1   S    
C27   C29   T    
C11   H28   S    
C30   O12   S    
C19   C20   S    
C15   H4    S    
C1    O1    A    
C10   N1    A    
C16   H7    S    
C17   H8    S    
C21   C22   S    
C14   H3    S    
C21   H19   S    
C13   H30   S    
C20   H18   S    
C13   C14   S    
C16   H6    S    
C24   H25   S    
C11   C13   S    
O5    Zn2   S    
C1    O7    A    
C9    H23   S    
N2    Zn2   S    
O9    Zn2   S    
C11   H29   S    
C3    C30   A    
C22   H22   S    
C28   C29   S    
C6    C30   A    
C7    H1    S    
C8    H12   S    
C25   O10   A    
C25   O9    A    
C11   O12   S    
C14   H2    S    
C21   O4    S    
N1    Zn1   S    
C25   C27   S    
O11   Zn2   S    
C22   C24   S    
C7    N2    A    
C23   C26   S    
C2    C5    A    
C24   H26   S    
C8    N1    A    
C24   H24   S    
C15   C16   S    
C9    N2    A    
C20   H16   S    
C10   H27   S    
C13   H31   S    
C19   H14   S    
C5    C12   S    
C4    C6    A    
C18   C19   S    
C17   H9    S    
C18   H11   S    
C15   H5    S    
C4    O4    S    
C12   O6    A    
C21   H20   S    
O1    Zn1   S    
C3    C5    A    
C18   O3    S    
C18   H13   S    
C15   O2    S    
C26   C28   T    
C23   O8    A    
O10   Zn1   S    
O7    Zn2   S    
C3    O3    S    
C20   H17   S    
C1    C6    S    
C16   C17   S    
C23   O11   A    
C22   H21   S    
O6    Zn1   S    
C17   H10   S    
C14   H32   S    
