data_mof_unit_60131.cif
_audit_creation_date              2012-12-10T20:26:06-0500
_audit_creation_method            fapswitch 2.2
_symmetry_space_group_name_H-M    P1
_symmetry_Int_Tables_number       1
_space_group_crystal_system       triclinic
_cell_length_a                    25.682165
_cell_length_b                    25.68229
_cell_length_c                    60.124279
_cell_angle_alpha                 90.000219
_cell_angle_beta                  90.000385
_cell_angle_gamma                 90.000458
_cell_volume                      39656.5801053

loop_
_atom_site_label
_atom_site_type_symbol
_atom_type_description
_atom_site_fract_x
_atom_site_fract_y
_atom_site_fract_z
_atom_type_partial_charge
C1    C     C_R   0.500000 0.000000 0.810565 0.902004
C2    C     C_R   0.500001 0.999999 0.382239 0.080936
C3    C     C_R   0.084544 0.457434 0.524253 -0.276678
C4    C     C_R   0.457789 0.915278 0.475746 -0.276705
C5    C     C_R   0.531838 0.089141 0.524272 -0.276637
C6    C     C_R   0.089025 0.467840 0.475730 -0.276638
C7    C     C_R   0.915457 0.542565 0.524253 -0.276736
C8    C     C_R   0.599160 0.900840 0.750000 0.812218
C9    C     C_R   0.400840 0.099160 0.250000 0.812414
C10   C     C_R   0.099160 0.599160 0.750000 0.812643
C11   C     C_R   0.900840 0.400840 0.250000 0.812760
C12   C     C_R   0.400840 0.099160 0.750000 0.812427
C13   C     C_R   0.000000 0.499999 0.617761 0.080783
C14   C     C_R   0.599160 0.900840 0.250000 0.812115
C15   C     C_R   0.900840 0.400840 0.750000 0.812642
C16   C     C_R   0.099160 0.599160 0.250000 0.812883
C17   C     C_R   0.599160 0.099160 0.250000 0.813236
C18   C     C_R   0.400840 0.900840 0.750000 0.813166
C19   C     C_R   0.099160 0.400840 0.250000 0.812836
C20   C     C_R   0.900840 0.599160 0.750000 0.812632
C21   C     C_R   0.400840 0.900840 0.250000 0.813375
C22   C     C_R   0.599160 0.099160 0.750000 0.813162
C23   C     C_R   0.900840 0.599160 0.250000 0.812532
C24   C     C_R   0.000001 0.500000 0.382234 0.082126
C25   C     C_R   0.099160 0.400840 0.750000 0.812841
C26   C     C_R   0.750020 0.288497 0.766510 0.536166
C27   C     C_R   0.249511 0.711971 0.233292 0.536387
C28   C     C_R   0.712020 0.750536 0.766727 0.534726
C29   C     C_R   0.287910 0.249394 0.233246 0.534724
C30   C     C_R   0.249973 0.711511 0.766514 0.536059
C31   C     C_R   0.749533 0.288982 0.233698 0.536584
C32   C     C_R   0.286749 0.248232 0.767207 0.534776
C33   C     C_R   0.709688 0.748204 0.234318 0.534525
C34   C     C_R   0.748204 0.709688 0.234318 0.534729
C35   C     C_R   0.999999 0.500000 0.117767 0.082034
C36   C     C_R   0.248232 0.286749 0.767207 0.534903
C37   C     C_R   0.711017 0.250466 0.233698 0.536425
C38   C     C_R   0.288490 0.750028 0.766514 0.536286
C39   C     C_R   0.249394 0.287910 0.233246 0.534735
C40   C     C_R   0.750537 0.712020 0.766727 0.534851
C41   C     C_R   0.288028 0.750488 0.233292 0.536691
C42   C     C_R   0.711503 0.249980 0.766511 0.536175
C43   C     C_R   0.250483 0.788034 0.266703 0.535945
C44   C     C_R   0.749977 0.211506 0.733487 0.535941
C45   C     C_R   0.212095 0.250611 0.266758 0.536078
C46   C     C_R   0.000001 0.499998 0.882239 0.080672
C47   C     C_R   0.787983 0.749466 0.733275 0.535708
C48   C     C_R   0.750472 0.211012 0.266297 0.536136
C49   C     C_R   0.250030 0.788486 0.733484 0.535830
C50   C     C_R   0.790307 0.751790 0.265686 0.535888
C51   C     C_R   0.213248 0.251765 0.732796 0.535764
C52   C     C_R   0.251764 0.213248 0.732796 0.535096
C53   C     C_R   0.751791 0.790307 0.265686 0.535375
C54   C     C_R   0.211513 0.749970 0.733484 0.535311
C55   C     C_R   0.788988 0.249529 0.266297 0.535234
C56   C     C_R   0.749467 0.787983 0.733275 0.535039
C57   C     C_R   0.500002 0.999999 0.117775 0.082442
C58   C     C_R   0.250611 0.212095 0.266758 0.535354
C59   C     C_R   0.788494 0.250022 0.733487 0.535197
C60   C     C_R   0.211966 0.749517 0.266704 0.535489
C61   C     C_R   0.788598 0.288600 0.749999 -0.377813
C62   C     C_R   0.211399 0.711403 0.249998 -0.377857
C63   C     C_R   0.711403 0.788600 0.750001 -0.376980
C64   C     C_R   0.288601 0.211404 0.250002 -0.376995
C65   C     C_R   0.211402 0.711400 0.749999 -0.377814
C66   C     C_R   0.788601 0.288596 0.249998 -0.377887
C67   C     C_R   0.288597 0.211400 0.750001 -0.376870
C68   C     C_R   0.499998 0.000002 0.882247 0.080977
C69   C     C_R   0.711399 0.788596 0.250002 -0.377145
C70   C     C_R   0.788596 0.711399 0.250002 -0.377328
C71   C     C_R   0.211400 0.288597 0.750001 -0.377166
C72   C     C_R   0.711404 0.211398 0.249998 -0.378115
C73   C     C_R   0.288600 0.788598 0.749999 -0.378011
C74   C     C_R   0.211403 0.288601 0.250002 -0.377216
C75   C     C_R   0.788600 0.711403 0.750001 -0.377259
C76   C     C_R   0.288596 0.788601 0.249998 -0.378100
C77   C     C_R   0.711400 0.211402 0.749999 -0.378012
C78   C     C_1   0.828226 0.328227 0.749999 0.264265
C79   C     C_R   0.499998 0.000001 0.547322 -0.205466
C80   C     C_1   0.171772 0.671775 0.249999 0.264612
C81   C     C_1   0.671775 0.828227 0.750001 0.263439
C82   C     C_1   0.328228 0.171775 0.250001 0.263616
C83   C     C_1   0.171774 0.671772 0.749999 0.264266
C84   C     C_1   0.828228 0.328225 0.249998 0.264573
C85   C     C_1   0.328225 0.171773 0.750001 0.263514
C86   C     C_1   0.671772 0.828225 0.250001 0.263488
C87   C     C_1   0.828225 0.671772 0.250001 0.263946
C88   C     C_1   0.171773 0.328226 0.750001 0.263945
C89   C     C_1   0.671775 0.171771 0.249999 0.265020
C90   C     C_R   0.500000 1.000000 0.452696 -0.205558
C91   C     C_1   0.328227 0.828226 0.749999 0.264742
C92   C     C_1   0.171775 0.328228 0.250001 0.264059
C93   C     C_1   0.828227 0.671774 0.750001 0.263877
C94   C     C_1   0.328225 0.828228 0.249998 0.265055
C95   C     C_1   0.671772 0.171774 0.749999 0.264740
C96   C     C_1   0.638607 0.138608 0.750000 -0.057998
C97   C     C_1   0.361392 0.861394 0.249999 -0.057673
C98   C     C_1   0.861393 0.638608 0.750000 -0.058914
C99   C     C_1   0.138608 0.361393 0.250001 -0.058779
C100  C     C_1   0.361393 0.861392 0.749999 -0.057997
C101  C     C_R   0.000000 0.499999 0.547304 -0.205549
C102  C     C_1   0.638609 0.138606 0.249999 -0.057678
C103  C     C_1   0.138607 0.361392 0.750000 -0.058904
C104  C     C_1   0.861391 0.638606 0.250001 -0.058810
C105  C     C_1   0.638607 0.861392 0.250001 -0.059536
C106  C     C_1   0.361392 0.138607 0.750000 -0.059659
C107  C     C_1   0.861393 0.361392 0.249999 -0.058414
C108  C     C_1   0.138608 0.638607 0.750000 -0.058749
C109  C     C_1   0.361393 0.138608 0.250001 -0.059502
C110  C     C_1   0.638608 0.861393 0.750000 -0.059671
C111  C     C_1   0.138606 0.638608 0.249999 -0.058408
C112  C     C_R   0.500000 1.000000 0.189438 0.902842
C113  C     C_R   0.000001 0.500000 0.452678 -0.205487
C114  C     C_1   0.861392 0.361393 0.749999 -0.058748
C115  C     C_R   0.515276 0.043816 0.582653 0.603083
C116  C     C_R   0.479314 0.958464 0.417365 0.602574
C117  C     C_R   0.958557 0.520870 0.582634 0.602635
C118  C     C_R   0.043762 0.484570 0.417348 0.603042
C119  C     C_R   0.484719 0.956187 0.582653 0.603007
C120  C     C_R   0.520688 0.041534 0.417366 0.602680
C121  C     C_R   0.041443 0.479128 0.582634 0.602678
C122  C     C_R   0.956240 0.515431 0.417348 0.602908
C123  C     C_R   0.015459 0.543751 0.082653 0.602585
C124  C     C_R   0.999998 0.500000 0.047323 -0.205606
C125  C     C_R   0.979145 0.458547 0.917366 0.602410
C126  C     C_R   0.455465 0.986973 0.082664 0.602890
C127  C     C_R   0.542547 0.018514 0.917372 0.602483
C128  C     C_R   0.984537 0.456249 0.082653 0.602707
C129  C     C_R   0.020858 0.541449 0.917366 0.602339
C130  C     C_R   0.544537 0.013026 0.082664 0.602707
C131  C     C_R   0.457448 0.981492 0.917372 0.602562
C132  C     C_R   0.452994 0.997396 0.629495 -0.160765
C133  C     C_R   0.452992 0.002506 0.370505 -0.160442
C134  C     C_R   0.002674 0.546999 0.629495 -0.160465
C135  C     C_R   0.000000 0.499998 0.952696 -0.205657
C136  C     C_R   0.997545 0.547012 0.370506 -0.161025
C137  C     C_R   0.547003 0.002606 0.629495 -0.160920
C138  C     C_R   0.547010 0.997492 0.370505 -0.160792
C139  C     C_R   0.997327 0.453000 0.629495 -0.160412
C140  C     C_R   0.002458 0.452989 0.370506 -0.160983
C141  C     C_R   0.952985 0.497573 0.129495 -0.161352
C142  C     C_R   0.952997 0.502601 0.870504 -0.160644
C143  C     C_R   0.504630 0.046849 0.129501 -0.161132
C144  C     C_R   0.499737 0.047075 0.870513 -0.160643
C145  C     C_R   0.047013 0.502427 0.129495 -0.160988
C146  C     C_R   0.500000 0.000001 0.047333 -0.205585
C147  C     C_R   0.047005 0.497395 0.870504 -0.160482
C148  C     C_R   0.495373 0.953149 0.129502 -0.161374
C149  C     C_R   0.500259 0.952928 0.870513 -0.160797
C150  C     C_R   0.452761 0.997401 0.652734 0.591205
C151  C     C_R   0.452759 0.002500 0.347266 0.590858
C152  C     C_R   0.002666 0.547231 0.652734 0.590784
C153  C     C_R   0.997549 0.547246 0.347267 0.590821
C154  C     C_R   0.547237 0.002601 0.652734 0.591085
C155  C     C_R   0.547242 0.997499 0.347266 0.590452
C156  C     C_R   0.997334 0.452768 0.652734 0.590925
C157  C     C_R   0.499998 0.000004 0.952703 -0.205638
C158  C     C_R   0.002452 0.452755 0.347267 0.591046
C159  C     C_R   0.952752 0.497578 0.152734 0.590719
C160  C     C_R   0.952765 0.502593 0.847266 0.590761
C161  C     C_R   0.504618 0.047082 0.152741 0.590924
C162  C     C_R   0.499742 0.047308 0.847273 0.591030
C163  C     C_R   0.047247 0.502422 0.152734 0.591116
C164  C     C_R   0.047237 0.497405 0.847266 0.590896
C165  C     C_R   0.495384 0.952916 0.152741 0.590793
C166  C     C_R   0.500256 0.952694 0.847274 0.590905
C167  C     C_R   0.515765 0.044740 0.559202 -0.158361
C168  C     C_R   0.478712 0.957612 0.440816 -0.158185
C169  C     C_R   0.957706 0.521471 0.559183 -0.158190
C170  C     C_R   0.044684 0.484076 0.440799 -0.158391
C171  C     C_R   0.484231 0.955262 0.559202 -0.158317
C172  C     C_R   0.000000 0.500000 0.810563 0.902218
C173  C     C_R   0.521289 0.042387 0.440817 -0.158207
C174  C     C_R   0.042295 0.478527 0.559183 -0.158272
C175  C     C_R   0.955317 0.515924 0.440799 -0.158233
C176  C     C_R   0.015952 0.544672 0.059202 -0.158740
C177  C     C_R   0.978537 0.457700 0.940817 -0.158725
C178  C     C_R   0.454511 0.986549 0.059213 -0.158855
C179  C     C_R   0.543434 0.019061 0.940823 -0.158681
C180  C     C_R   0.984044 0.455327 0.059202 -0.158787
C181  C     C_R   0.021465 0.542297 0.940817 -0.158687
C182  C     C_R   0.545490 0.013453 0.059213 -0.158715
C183  C     C_R   1.000000 0.500000 0.189437 0.902151
C184  C     C_R   0.456562 0.980947 0.940823 -0.158731
C185  C     C_R   0.531103 0.089267 0.547379 0.722812
C186  C     C_R   0.457231 0.915700 0.452638 0.722774
C187  C     C_R   0.915886 0.543131 0.547360 0.722808
C188  C     C_R   0.089157 0.468581 0.452622 0.722828
C189  C     C_R   0.468893 0.910735 0.547379 0.722780
C190  C     C_R   0.542769 0.084299 0.452639 0.722776
C191  C     C_R   0.084114 0.456868 0.547361 0.722886
C192  C     C_R   0.910844 0.531419 0.452622 0.722670
C193  C     C_R   0.031477 0.589135 0.047379 0.722888
C194  C     C_R   0.000000 0.500000 0.310563 0.902131
C195  C     C_R   0.956879 0.415879 0.952639 0.723030
C196  C     C_R   0.409253 0.973527 0.047390 0.722947
C197  C     C_R   0.586410 0.038324 0.952646 0.722969
C198  C     C_R   0.968520 0.410864 0.047379 0.722913
C199  C     C_R   0.043122 0.584118 0.952639 0.722998
C200  C     C_R   0.590747 0.026476 0.047390 0.722824
C201  C     C_R   0.413585 0.961684 0.952645 0.723013
C202  C     C_R   0.499999 0.000001 0.664722 -0.337175
C203  C     C_R   0.500001 1.000000 0.335278 -0.337228
C204  C     C_R   0.000000 0.500000 0.664723 -0.337302
C205  C     C_R   0.000000 0.500000 0.689437 0.902294
C206  C     C_R   0.000000 0.500000 0.335278 -0.337111
C207  C     C_R   0.999999 0.500000 0.164722 -0.337071
C208  C     C_R   0.000001 0.499999 0.835277 -0.337299
C209  C     C_R   0.500001 1.000000 0.164727 -0.336761
C210  C     C_R   0.499999 0.000001 0.835283 -0.337405
C211  C     C_R   0.020158 0.543526 0.988172 0.013478
C212  C     C_R   0.982208 0.455451 0.011847 0.013545
C213  C     C_R   0.455407 0.982321 0.988180 0.013492
C214  C     C_R   0.545472 0.015277 0.011856 0.013584
C215  C     C_R   0.979841 0.456472 0.988172 0.013478
C216  C     C_R   0.500000 1.000000 0.310563 0.901969
C217  C     C_R   0.017790 0.544547 0.011847 0.013550
C218  C     C_R   0.544590 0.017687 0.988180 0.013496
C219  C     C_R   0.454526 0.984730 0.011856 0.013561
C220  C     C_R   0.519975 0.043612 0.488171 0.013871
C221  C     C_R   0.482395 0.955378 0.511847 0.013828
C222  C     C_R   0.955446 0.517771 0.488154 0.013834
C223  C     C_R   0.043531 0.479849 0.511829 0.013839
C224  C     C_R   0.480023 0.956389 0.488171 0.013861
C225  C     C_R   0.517602 0.044623 0.511847 0.013819
C226  C     C_R   0.044556 0.482229 0.488154 0.013808
C227  C     C_R   0.500000 0.000000 0.689437 0.902447
C228  C     C_R   0.956470 0.520151 0.511828 0.013857
C229  C     C_R   1.000000 0.499999 0.976427 0.087984
C230  C     C_R   0.999999 0.499999 0.023592 0.088037
C231  C     C_R   0.499998 0.000004 0.976435 0.088005
C232  C     C_R   0.499999 0.000003 0.023601 0.088059
C233  C     C_R   0.500000 0.000000 0.476427 0.088092
C234  C     C_R   0.499998 0.000001 0.523591 0.088171
C235  C     C_R   0.000001 0.500000 0.476409 0.088167
C236  C     C_R   0.000001 0.500000 0.523573 0.088104
C237  C     C_R   0.042566 0.584543 0.975747 -0.276792
C238  C     C_R   0.499998 0.000001 0.617767 0.082045
C239  C     C_R   0.967785 0.410994 0.024272 -0.276753
C240  C     C_R   0.413191 0.962265 0.975753 -0.276711
C241  C     C_R   0.590663 0.027206 0.024282 -0.276755
C242  C     C_R   0.957433 0.415455 0.975746 -0.276778
C243  C     C_R   0.032212 0.589005 0.024272 -0.276790
C244  C     C_R   0.586805 0.037743 0.975753 -0.276754
C245  C     C_R   0.409336 0.972800 0.024282 -0.276687
C246  C     C_R   0.542210 0.084723 0.475746 -0.276686
C247  C     C_R   0.468159 0.910861 0.524272 -0.276670
C248  C     C_R   0.910976 0.532160 0.475729 -0.276703
F1    F     F_    0.674355 0.250281 0.782583 -0.546808
F2    F     F_    0.322200 0.246834 0.783954 -0.549184
F3    F     F_    0.748756 0.326608 0.217833 -0.546298
F4    F     F_    0.250267 0.674369 0.782589 -0.547027
F5    F     F_    0.324487 0.249123 0.216937 -0.549615
F6    F     F_    0.675371 0.750736 0.783007 -0.549042
F7    F     F_    0.249360 0.675274 0.217032 -0.546469
F8    F     F_    0.749720 0.325646 0.782582 -0.546933
F9    F     F_    0.175270 0.749366 0.282964 -0.548198
F10   F     F_    0.825643 0.249722 0.717415 -0.548072
F11   F     F_    0.250882 0.175518 0.283068 -0.547829
F12   F     F_    0.324725 0.750640 0.217031 -0.546107
F13   F     F_    0.749267 0.824631 0.716995 -0.548590
F14   F     F_    0.826615 0.248752 0.282162 -0.548306
F15   F     F_    0.174371 0.750262 0.717409 -0.547977
F16   F     F_    0.753858 0.829222 0.280952 -0.547655
F17   F     F_    0.253162 0.177798 0.716048 -0.548694
F18   F     F_    0.177798 0.253163 0.716048 -0.547824
F19   F     F_    0.829222 0.753857 0.280952 -0.547133
F20   F     F_    0.249736 0.825628 0.717409 -0.547399
F21   F     F_    0.751250 0.173386 0.282163 -0.547329
F22   F     F_    0.824632 0.749267 0.716995 -0.547766
F23   F     F_    0.750736 0.675371 0.783008 -0.548773
F24   F     F_    0.175518 0.250883 0.283068 -0.547062
F25   F     F_    0.750277 0.174356 0.717415 -0.547307
F26   F     F_    0.250635 0.824731 0.282964 -0.547551
F27   F     F_    0.593798 0.005274 0.663356 -0.579897
F28   F     F_    0.593804 0.994849 0.336644 -0.580083
F29   F     F_    0.994511 0.406216 0.663357 -0.579758
F30   F     F_    0.004970 0.406185 0.336645 -0.579850
F31   F     F_    0.406201 0.994727 0.663356 -0.579818
F32   F     F_    0.406197 0.005151 0.336644 -0.579706
F33   F     F_    0.005490 0.593783 0.663357 -0.579828
F34   F     F_    0.249123 0.324487 0.216937 -0.549440
F35   F     F_    0.995031 0.593815 0.336645 -0.580067
F36   F     F_    0.093818 0.504909 0.163355 -0.579862
F37   F     F_    0.093793 0.494658 0.836643 -0.579747
F38   F     F_    0.490610 0.906532 0.163370 -0.580303
F39   F     F_    0.500563 0.906054 0.836655 -0.579724
F40   F     F_    0.906180 0.495091 0.163355 -0.580190
F41   F     F_    0.906208 0.505340 0.836643 -0.579871
F42   F     F_    0.509391 0.093467 0.163370 -0.580234
F43   F     F_    0.499436 0.093947 0.836654 -0.579622
F44   F     F_    0.545513 0.133676 0.557993 -0.571418
F45   F     F_    0.325632 0.749735 0.782589 -0.546715
F46   F     F_    0.435128 0.874577 0.442023 -0.571348
F47   F     F_    0.874860 0.565415 0.557975 -0.571320
F48   F     F_    0.133517 0.454020 0.442009 -0.571383
F49   F     F_    0.454483 0.866326 0.557993 -0.571465
F50   F     F_    0.564872 0.125423 0.442023 -0.571383
F51   F     F_    0.125141 0.434584 0.557976 -0.571169
F52   F     F_    0.866485 0.545981 0.442008 -0.571650
F53   F     F_    0.046074 0.633483 0.057994 -0.570619
F54   F     F_    0.934603 0.374848 0.942024 -0.570177
F55   F     F_    0.364162 0.961420 0.058005 -0.570628
F56   F     F_    0.673390 0.251243 0.217833 -0.546306
F57   F     F_    0.628634 0.058244 0.942030 -0.570335
F58   F     F_    0.953922 0.366516 0.057993 -0.570608
F59   F     F_    0.065398 0.625149 0.942024 -0.570205
F60   F     F_    0.635838 0.038582 0.058005 -0.570816
F61   F     F_    0.371362 0.941764 0.942029 -0.570280
F62   F     F_    0.246835 0.322199 0.783954 -0.548908
F63   F     F_    0.746137 0.670773 0.219052 -0.549167
F64   F     F_    0.670773 0.746138 0.219052 -0.549483
H1    H     H_    0.583531 0.004501 0.620532 0.207199
H2    H     H_    0.083522 0.495174 0.879461 0.207936
H3    H     H_    0.491879 0.916742 0.120537 0.206889
H4    H     H_    0.500630 0.916348 0.879472 0.207771
H5    H     H_    0.916450 0.495820 0.120532 0.207067
H6    H     H_    0.916480 0.504822 0.879462 0.207884
H7    H     H_    0.508124 0.083256 0.120537 0.206935
H8    H     H_    0.499366 0.083656 0.879471 0.207816
H9    H     H_    0.061284 0.617491 0.983391 0.192108
H10   H     H_    0.956665 0.374769 0.016627 0.191948
H11   H     H_    0.379236 0.945442 0.983397 0.192096
H12   H     H_    0.583531 0.995347 0.379463 0.207822
H13   H     H_    0.627451 0.036292 0.016639 0.191885
H14   H     H_    0.938714 0.382508 0.983391 0.192099
H15   H     H_    0.043333 0.625230 0.016627 0.191938
H16   H     H_    0.620760 0.054567 0.983397 0.192083
H17   H     H_    0.372547 0.963715 0.016639 0.191917
H18   H     H_    0.560789 0.117749 0.483391 0.191482
H19   H     H_    0.457191 0.874590 0.516626 0.191581
H20   H     H_    0.874745 0.543252 0.483376 0.191572
H21   H     H_    0.117488 0.438713 0.516606 0.191527
H22   H     H_    0.439209 0.882252 0.483391 0.191495
H23   H     H_    0.995050 0.416487 0.620538 0.207950
H24   H     H_    0.542807 0.125412 0.516627 0.191593
H25   H     H_    0.125257 0.456748 0.483377 0.191615
H26   H     H_    0.882513 0.561286 0.516606 0.191483
H27   H     H_    0.004234 0.416455 0.379468 0.207223
H28   H     H_    0.416466 0.995502 0.620532 0.207239
H29   H     H_    0.416471 0.004650 0.379463 0.207947
H30   H     H_    0.004950 0.583512 0.620538 0.207930
H31   H     H_    0.995768 0.583546 0.379468 0.207174
H32   H     H_    0.083548 0.504180 0.120532 0.207182
N1    N     N_R   0.499998 0.000001 0.593816 -0.346685
N2    N     N_R   0.500002 0.999999 0.406197 -0.346445
N3    N     N_R   0.000000 0.499999 0.593803 -0.346450
N4    N     N_R   0.000001 0.500000 0.406185 -0.346666
N5    N     N_R   0.999998 0.500000 0.093816 -0.346715
N6    N     N_R   0.000002 0.499998 0.906197 -0.346456
N7    N     N_R   0.500001 0.999999 0.093826 -0.346825
N8    N     N_R   0.499998 0.000003 0.906204 -0.346517
O1    O     O_3   0.500000 0.000000 0.750000 -0.544028
O2    O     O_R   0.500000 0.042590 0.200310 -0.578111
O3    O     O_R   0.042590 0.500000 0.799690 -0.577726
O4    O     O_R   0.957410 0.500000 0.200310 -0.577975
O5    O     O_R   0.000000 0.542590 0.299690 -0.577906
O6    O     O_R   1.000000 0.457410 0.700310 -0.577718
O7    O     O_R   0.457410 0.000000 0.299690 -0.577737
O8    O     O_R   0.542590 0.000000 0.700310 -0.577848
O9    O     O_R   0.000000 0.457410 0.299690 -0.577847
O10   O     O_R   0.000000 0.542590 0.700310 -0.577772
O11   O     O_R   0.542590 0.000000 0.299690 -0.577900
O12   O     O_3   0.500000 0.000000 0.250000 -0.544075
O13   O     O_R   0.457410 0.000000 0.700310 -0.577792
O14   O     O_R   0.560170 0.897070 0.762850 -0.610744
O15   O     O_R   0.439830 0.102930 0.237150 -0.612561
O16   O     O_R   0.102930 0.560170 0.762850 -0.611448
O17   O     O_R   0.897070 0.439830 0.237150 -0.609305
O18   O     O_R   0.439830 0.102930 0.762850 -0.610813
O19   O     O_R   0.560170 0.897070 0.237150 -0.612588
O20   O     O_R   0.897070 0.439830 0.762850 -0.611292
O21   O     O_R   0.102930 0.560170 0.237150 -0.609657
O22   O     O_R   0.560170 0.102930 0.237150 -0.609154
O23   O     O_3   0.000000 0.500000 0.750000 -0.544051
O24   O     O_R   0.439830 0.897070 0.762850 -0.610702
O25   O     O_R   0.102930 0.439830 0.237150 -0.612091
O26   O     O_R   0.897070 0.560170 0.762850 -0.610175
O27   O     O_R   0.439830 0.897070 0.237150 -0.608903
O28   O     O_R   0.560170 0.102930 0.762850 -0.610856
O29   O     O_R   0.897070 0.560170 0.237150 -0.611878
O30   O     O_R   0.102930 0.439830 0.762850 -0.610246
O31   O     O_R   0.060170 0.397070 0.262850 -0.609470
O32   O     O_R   0.939830 0.602930 0.737150 -0.611416
O33   O     O_R   0.602930 0.060170 0.262850 -0.611340
O34   O     O_3   1.000000 0.500000 0.250000 -0.544093
O35   O     O_R   0.397070 0.939830 0.737150 -0.610015
O36   O     O_R   0.939830 0.602930 0.262850 -0.609480
O37   O     O_R   0.060170 0.397070 0.737150 -0.611488
O38   O     O_R   0.397070 0.939830 0.262850 -0.611684
O39   O     O_R   0.602930 0.060170 0.737150 -0.609860
O40   O     O_R   0.060170 0.602930 0.737150 -0.610087
O41   O     O_R   0.939830 0.397070 0.262850 -0.611985
O42   O     O_R   0.602930 0.939830 0.737150 -0.611728
O43   O     O_R   0.397070 0.060170 0.262850 -0.609818
O44   O     O_R   0.939830 0.397070 0.737150 -0.610241
O45   O     O_R   0.500000 0.042590 0.799690 -0.577660
O46   O     O_R   0.060170 0.602930 0.262850 -0.611728
O47   O     O_R   0.397070 0.060170 0.737150 -0.611801
O48   O     O_R   0.602930 0.939830 0.262850 -0.609592
O49   O     O_2   0.529567 0.086412 0.594283 -0.428775
O50   O     O_2   0.459875 0.917945 0.405743 -0.428998
O51   O     O_2   0.918127 0.540493 0.594256 -0.428906
O52   O     O_2   0.086309 0.470132 0.405719 -0.428750
O53   O     O_2   0.470428 0.913591 0.594282 -0.428898
O54   O     O_2   0.540129 0.082052 0.405743 -0.428967
O55   O     O_2   0.081874 0.459505 0.594256 -0.428686
O56   O     O_R   0.500000 0.957410 0.200310 -0.578226
O57   O     O_2   0.913693 0.529869 0.405718 -0.429227
O58   O     O_2   0.029926 0.586287 0.094283 -0.428619
O59   O     O_2   0.959544 0.418106 0.905744 -0.428462
O60   O     O_2   0.412206 0.974848 0.094296 -0.428352
O61   O     O_2   0.584009 0.035847 0.905748 -0.428636
O62   O     O_2   0.970070 0.413713 0.094283 -0.428532
O63   O     O_2   0.040460 0.581890 0.905745 -0.428569
O64   O     O_2   0.587797 0.025149 0.094297 -0.428747
O65   O     O_2   0.415987 0.964159 0.905748 -0.428513
O66   O     O_R   0.957410 0.500000 0.799690 -0.577770
O67   O     O_R   0.042590 0.500000 0.200310 -0.577795
O68   O     O_R   0.500000 0.957410 0.799690 -0.577711
Zn1   Zn    Zn3+2 0.561090 0.000000 0.731040 1.074119
Zn2   Zn    Zn3+2 0.938910 0.500000 0.768960 1.074143
Zn3   Zn    Zn3+2 0.500000 0.061090 0.231040 1.074064
Zn4   Zn    Zn3+2 0.500000 0.938910 0.768960 1.074178
Zn5   Zn    Zn3+2 0.938910 0.500000 0.231040 1.074232
Zn6   Zn    Zn3+2 0.061090 0.500000 0.768960 1.074084
Zn7   Zn    Zn3+2 0.500000 0.938910 0.231040 1.074090
Zn8   Zn    Zn3+2 0.500000 0.061090 0.768960 1.074122
Zn9   Zn    Zn3+2 0.438910 1.000000 0.268960 1.074268
Zn10  Zn    Zn3+2 1.000000 0.561090 0.731040 1.074146
Zn11  Zn    Zn3+2 1.000000 0.438910 0.268960 1.074224
Zn12  Zn    Zn3+2 0.438910 0.000000 0.731040 1.074065
Zn13  Zn    Zn3+2 0.561090 1.000000 0.268960 1.074398
Zn14  Zn    Zn3+2 0.000000 0.438910 0.731040 1.074089
Zn15  Zn    Zn3+2 1.000000 0.561090 0.268960 1.074282
Zn16  Zn    Zn3+2 0.061090 0.500000 0.231040 1.074109

loop_
_geom_bond_atom_site_label_1
_geom_bond_atom_site_label_2
_ccdc_geom_bond_type
O26   Zn2   S    
O38   Zn9   S    
C138  H12   S    
C221  C234  A    
C153  F35   S    
C201  F61   S    
C133  C151  A    
C219  C232  A    
C136  H31   S    
C53   C69   A    
C123  C176  A    
C213  C219  A    
C223  C226  A    
C54   C65   A    
C24   C140  A    
O18   Zn8   S    
C53   F16   S    
C172  O66   A    
C164  F37   S    
C13   C139  A    
C44   C77   A    
C166  F39   S    
C137  H1    S    
C147  C164  A    
C248  H20   S    
C122  O57   S    
C189  C247  A    
C28   C40   A    
C167  C185  A    
C6    C188  A    
C132  C150  A    
C30   C38   A    
C60   C62   A    
C35   C145  A    
C39   C74   A    
C74   C92   S    
C143  H7    S    
C68   C149  A    
C144  H8    S    
C76   C94   S    
C46   N6    S    
C38   F45   S    
C211  C237  A    
C128  C180  A    
C228  C236  A    
C29   F5    S    
C91   C100  T    
C120  O54   S    
O2    Zn3   S    
C36   C71   A    
C33   C69   A    
C174  C191  A    
C117  O51   S    
C118  O52   S    
C11   O41   A    
C29   C64   A    
O1    Zn12  S    
C16   O21   A    
C116  O50   S    
C148  C165  A    
C9    O43   A    
C51   C71   A    
C245  H17   S    
C205  O10   A    
O31   Zn11  S    
C190  F50   S    
C67   C85   S    
C50   C53   A    
C59   C61   A    
C51   C52   A    
C2    C138  A    
C135  C177  A    
C162  F43   S    
O56   Zn7   S    
C19   C99   S    
C162  C210  A    
C94   C97   T    
C31   C37   A    
C37   F56   S    
C9    O15   A    
C41   F12   S    
O23   Zn2   S    
C224  C233  A    
C240  H11   S    
C21   C97   S    
C131  C184  A    
O46   Zn15  S    
C133  H29   S    
C128  O62   S    
C195  C242  A    
C10   O40   A    
C164  C208  A    
C49   C73   A    
C131  O65   S    
C45   C58   A    
C75   C93   S    
C119  N1    A    
C50   F19   S    
C177  C195  A    
C197  F57   S    
O4    Zn5   S    
C22   C96   S    
C79   C234  A    
C155  F28   S    
C112  O56   A    
C159  C207  A    
C113  C170  A    
C179  C197  A    
C112  C209  S    
C56   F13   S    
C50   C70   A    
C166  C210  A    
C41   C76   A    
C136  C153  A    
C47   F22   S    
C5    C225  A    
C126  C178  A    
C35   N5    S    
C212  C239  A    
C180  C198  A    
C17   O33   A    
C71   C88   S    
C28   C63   A    
C247  H19   S    
C81   C110  T    
O12   Zn7   S    
C116  C168  A    
C39   F34   S    
C79   C167  A    
C243  H15   S    
C143  C161  A    
C16   C111  S    
C119  C171  A    
C183  O4    A    
C16   O46   A    
C197  C244  A    
C183  C207  S    
C10   C108  S    
C17   C102  S    
O13   Zn12  S    
C43   F26   S    
C54   F15   S    
C32   C36   A    
C62   C80   S    
C157  C179  A    
C44   C59   A    
C4    C186  A    
C18   O24   A    
C21   O38   A    
O7    Zn9   S    
C84   C107  T    
C146  C178  A    
C15   O44   A    
C24   N4    S    
C132  C238  A    
C150  F31   S    
C140  C158  A    
O14   Zn4   S    
C141  C159  A    
C14   C105  S    
C42   F1    S    
C194  O9    A    
C59   F10   S    
C157  C184  A    
C218  C244  A    
C176  C193  A    
C115  O49   S    
C213  C231  A    
O21   Zn16  S    
C24   C136  A    
C52   F17   S    
O20   Zn2   S    
C48   C72   A    
C155  C203  A    
C70   C87   S    
C19   O31   A    
O25   Zn16  S    
C58   C64   A    
O40   Zn10  S    
C190  C246  A    
C168  C186  A    
C142  H6    S    
C82   C109  T    
C220  C233  A    
C214  C218  A    
C175  C192  A    
C15   O20   A    
C145  C163  A    
C178  C196  A    
O45   Zn8   S    
C125  O59   S    
C90   C233  A    
C45   C74   A    
C126  O60   S    
C119  O53   S    
C151  F32   S    
O5    Zn15  S    
C27   C62   A    
C8    C110  S    
C217  C230  A    
C160  C208  A    
O28   Zn8   S    
C212  C215  A    
C130  C182  A    
O12   Zn9   S    
C101  C236  A    
C183  O67   A    
C22   O28   A    
C121  N3    A    
C194  O5    A    
C205  O6    A    
C188  F48   S    
C52   C67   A    
C32   C67   A    
C20   O32   A    
C135  C229  A    
O43   Zn9   S    
C200  F60   S    
C85   C106  T    
C181  C199  A    
C187  F47   S    
C157  C231  A    
C149  H4    S    
C8    O42   A    
C49   F20   S    
C2    N2    S    
C216  O11   A    
C115  N1    A    
C215  C242  A    
C3    C223  A    
C184  C201  A    
C90   C168  A    
C140  H27   S    
C12   O47   A    
C124  C176  A    
C25   O37   A    
C127  O61   S    
C159  F40   S    
C192  C248  A    
C113  C175  A    
C23   O29   A    
C127  C179  A    
C47   C75   A    
C125  C177  A    
O12   Zn13  S    
C68   C144  A    
C30   C65   A    
C223  C236  A    
O23   Zn6   S    
C117  C169  A    
C20   C98   S    
C163  F36   S    
C42   C77   A    
C242  H14   S    
C170  C188  A    
O67   Zn16  S    
C135  C181  A    
C198  F58   S    
C92   C99   T    
C47   C56   A    
C1    O68   A    
C138  C155  A    
C192  F52   S    
C48   C55   A    
C25   O30   A    
C196  C245  A    
C55   F14   S    
C134  H30   S    
C5    C185  A    
C213  C240  A    
C214  C232  A    
C46   C142  A    
C78   C114  T    
C5    H24   S    
C26   C42   A    
C17   O22   A    
O42   Zn1   S    
C26   C61   A    
O41   Zn11  S    
C221  C224  A    
C45   F24   S    
C158  F30   S    
C195  F54   S    
C3    H21   S    
C173  C190  A    
C129  O63   S    
C83   C108  T    
C79   C171  A    
C220  C246  A    
O8    Zn1   S    
C222  C248  A    
O44   Zn14  S    
C101  C169  A    
O29   Zn5   S    
C34   C70   A    
C44   F25   S    
C125  N6    A    
O11   Zn13  S    
C193  C243  A    
C246  H18   S    
C122  N4    A    
C127  N8    A    
C211  C217  A    
C199  C237  A    
C130  N7    A    
C154  C202  A    
C23   O36   A    
C9    C109  S    
C11   O17   A    
C222  C235  A    
C2    C133  A    
C146  C182  A    
C116  N2    A    
C227  O13   A    
C203  C216  S    
O68   Zn4   S    
C7    H26   S    
C182  C200  A    
C57   N7    S    
C142  C160  A    
C161  C209  A    
C158  C206  A    
C128  N5    A    
C131  N8    A    
C191  F51   S    
C121  C174  A    
C222  C228  A    
C134  C152  A    
C227  O8    A    
C169  C187  A    
C244  H16   S    
O15   Zn3   S    
C150  C202  A    
C55   C66   A    
O24   Zn4   S    
C201  C240  A    
C120  N2    A    
C7    C187  A    
C43   C76   A    
C113  C235  A    
C211  C229  A    
C60   F9    S    
O32   Zn10  S    
C237  H9    S    
O1    Zn4   S    
C221  C247  A    
C40   C75   A    
C58   F11   S    
C26   F8    S    
C13   N3    S    
C123  N5    A    
C165  C209  A    
C6    C226  A    
C80   C111  T    
C163  C207  A    
C30   F4    S    
C137  C154  A    
C186  F46   S    
C14   O48   A    
C87   C104  T    
C34   F63   S    
C216  O7    A    
O9    Zn11  S    
C57   C148  A    
C152  C204  A    
C27   F7    S    
C200  C241  A    
C49   C54   A    
C15   C114  S    
C21   O27   A    
C31   C66   A    
C4    H22   S    
C8    O14   A    
C89   C102  T    
C13   C134  A    
O22   Zn3   S    
C95   C96   T    
C160  F41   S    
O3    Zn6   S    
C146  C232  A    
C90   C173  A    
O1    Zn8   S    
C63   C81   S    
C214  C241  A    
C28   F6    S    
C117  N3    A    
O23   Zn10  S    
O37   Zn14  S    
C65   C83   S    
C189  F49   S    
C7    C228  A    
C118  C170  A    
O34   Zn5   S    
C122  C175  A    
C51   F18   S    
C32   F2    S    
O35   Zn12  S    
C141  H5    S    
C171  C189  A    
C199  F59   S    
C137  C238  A    
C238  N1    S    
C19   O25   A    
C193  F53   S    
O66   Zn2   S    
O16   Zn6   S    
C23   C104  S    
C219  C245  A    
C145  H32   S    
C22   O39   A    
C101  C174  A    
C37   C72   A    
C185  F44   S    
C18   C100  S    
O47   Zn12  S    
C196  F55   S    
C194  C206  S    
C172  O3    A    
C36   F62   S    
C57   C143  A    
C239  H10   S    
C31   F3    S    
C172  C208  S    
C73   C91   S    
O19   Zn7   S    
O34   Zn15  S    
C25   C103  S    
O17   Zn5   S    
O36   Zn15  S    
C4    C224  A    
O33   Zn13  S    
C77   C95   S    
C226  C235  A    
C129  N6    A    
C123  O58   S    
C165  F38   S    
C217  C243  A    
C46   C147  A    
O30   Zn6   S    
C3    C191  A    
C212  C230  A    
C27   C41   A    
C61   C78   S    
C29   C39   A    
C33   C34   A    
O10   Zn10  S    
C56   C63   A    
C204  C205  S    
C64   C82   S    
C68   N8    S    
O34   Zn16  S    
C43   C60   A    
C35   C141  A    
O23   Zn14  S    
C48   F21   S    
C147  H2    S    
C11   C107  S    
O6    Zn14  S    
C86   C105  T    
C115  C167  A    
C156  C204  A    
C88   C103  T    
C152  F33   S    
C130  O64   S    
C40   F23   S    
C129  C181  A    
C126  N7    A    
C241  H13   S    
C144  C162  A    
C1    C210  S    
C215  C229  A    
O12   Zn3   S    
C149  C166  A    
C151  C203  A    
C10   O16   A    
C202  C227  S    
O34   Zn11  S    
C1    O45   A    
C20   O26   A    
C132  H28   S    
O39   Zn1   S    
C33   F64   S    
C161  F42   S    
C156  F29   S    
C6    H25   S    
C148  H3    S    
C12   C106  S    
C72   C89   S    
C18   O35   A    
C139  H23   S    
C139  C156  A    
O1    Zn1   S    
C220  C225  A    
C12   O18   A    
C118  N4    A    
C154  F27   S    
C124  C230  A    
C218  C231  A    
C124  C180  A    
C198  C239  A    
C66   C84   S    
C153  C206  A    
C121  O55   S    
C120  C173  A    
C112  O2    A    
O48   Zn13  S    
C225  C234  A    
C93   C98   T    
O27   Zn7   S    
C69   C86   S    
C14   O19   A    
C38   C73   A    
