data_mof_unit_16819.cif
_audit_creation_date              2012-12-10T17:29:23-0500
_audit_creation_method            fapswitch 2.2
_symmetry_space_group_name_H-M    P1
_symmetry_Int_Tables_number       1
_space_group_crystal_system       triclinic
_cell_length_a                    12.085858
_cell_length_b                    12.843144
_cell_length_c                    13.393399
_cell_angle_alpha                 86.664507
_cell_angle_beta                  110.20892
_cell_angle_gamma                 93.626451
_cell_volume                      1945.57636155

loop_
_atom_site_label
_atom_site_type_symbol
_atom_type_description
_atom_site_fract_x
_atom_site_fract_y
_atom_site_fract_z
_atom_type_partial_charge
C1    C     C_R   0.475796 0.299392 0.495070 0.892002
C2    C     C_R   0.594986 0.516369 0.818991 -0.139665
C3    C     C_R   0.548840 0.811721 0.528403 -0.293716
C4    C     C_R   0.562228 0.497222 0.706157 0.913615
C5    C     C_R   0.462682 0.186629 0.499733 -0.153368
C6    C     C_R   0.409183 0.038713 0.593963 -0.066735
C7    C     C_R   0.378132 0.134045 0.537996 -0.142222
C8    C     C_R   0.553189 0.132396 0.487900 -0.139101
C9    C     C_R   0.559726 0.027102 0.512824 0.051802
C10   C     C_R   0.483417 0.976877 0.562175 0.022270
C11   C     C_R   0.477867 0.867131 0.569998 -0.131463
C12   C     C_R   0.546814 0.517232 0.981408 -0.017766
C13   C     C_R   0.639835 0.865099 0.500533 0.673664
C14   C     C_R   0.643545 0.972375 0.490841 -0.239272
C15   C     C_R   0.021405 0.613682 0.412935 -0.187788
C16   C     C_R   0.525537 0.700235 0.509341 0.937194
C17   C     C_R   0.137965 0.598756 0.417478 -0.072131
C18   C     C_R   0.150132 0.448950 0.532410 0.734289
C19   C     C_R   0.033202 0.460071 0.529833 -0.042129
C20   C     C_R   0.965943 0.540458 0.466327 -0.132344
C21   C     C_R   0.843551 0.540938 0.453911 0.130445
C22   C     C_R   0.867786 0.408051 0.588930 0.058466
C23   C     C_R   0.518113 0.485952 0.875983 0.004966
C24   C     C_R   0.982288 0.392876 0.589747 -0.194284
C25   C     C_R   0.437079 0.501169 0.294898 0.861985
C26   C     C_R   0.330941 0.339469 0.058940 -0.145785
C27   C     C_R   0.403703 0.474883 0.185869 -0.029201
C28   C     C_R   0.697736 0.577981 0.867138 -0.232157
C29   C     C_R   0.721177 0.614685 0.968244 0.726756
C30   C     C_R   0.645167 0.586855 0.024193 -0.205572
C31   C     C_2   0.400846 0.025321 0.702997 0.978550
C32   C     C_2   0.251793 0.162408 0.499234 1.089833
C33   C     C_2   0.761396 0.580713 0.352635 0.952271
C34   C     C_R   0.474541 0.475475 0.038924 0.124603
C35   C     C_2   0.824592 0.341964 0.662077 0.979337
C36   C     C_2   0.964380 0.711286 0.361130 0.960611
C37   C     C_2   0.187467 0.666489 0.348930 1.053086
C38   C     C_2   0.303707 0.486729 0.774463 1.018784
C39   C     C_2   0.396899 0.810701 0.617959 1.046252
C40   C     C_R   0.400369 0.384977 0.001882 0.105876
C41   C     C_R   0.386214 0.350555 0.901318 -0.251422
C42   C     C_R   0.410688 0.426373 0.832199 -0.020813
C43   C     C_R   0.471419 0.521144 0.129019 -0.174491
C44   C     C_R   0.332858 0.384524 0.151345 -0.158971
F1    F     F_    0.722660 0.814490 0.478029 -0.578358
F2    F     F_    0.212234 0.366696 0.586362 -0.659482
F3    F     F_    0.817519 0.678748 0.011892 -0.605763
H1    H     H_    0.284041 0.346288 0.198582 0.178281
H2    H     H_    0.336254 0.075500 0.811273 0.347500
H3    H     H_    0.089313 0.138282 0.509682 0.355771
H4    H     H_    0.658774 0.697062 0.271228 0.318621
H5    H     H_    0.804703 0.325745 0.805601 0.345810
H6    H     H_    0.903471 0.801343 0.226825 0.369782
H7    H     H_    0.212101 0.687099 0.207589 0.345740
H8    H     H_    0.235427 0.621599 0.703104 0.327833
H9    H     H_    0.232208 0.791899 0.624151 0.349205
H10   H     H_    0.708628 0.012255 0.461395 0.188013
H11   H     H_    0.616655 0.171644 0.455914 0.185469
H12   H     H_    0.032700 0.331003 0.640395 0.221440
H13   H     H_    0.320770 0.288335 0.868544 0.204421
H14   H     H_    0.274390 0.270534 0.031380 0.162461
H15   H     H_    0.521990 0.592115 0.157395 0.130179
H16   H     H_    0.756442 0.602961 0.823940 0.206051
H17   H     H_    0.666912 0.618769 0.101301 0.195178
N1    N     N_R   0.798200 0.480260 0.519790 -0.186024
N2    N     N_R   0.201820 0.519740 0.480210 -0.192049
O1    O     O_R   0.579910 0.341070 0.505280 -0.627617
O2    O     O_R   0.331225 0.090096 0.734644 -0.742838
O3    O     O_2   0.214017 0.221120 0.421007 -0.607682
O4    O     O_R   0.172694 0.114097 0.544800 -0.714427
O5    O     O_2   0.746987 0.533078 0.272537 -0.654836
O6    O     O_R   0.704010 0.672741 0.346819 -0.693691
O7    O     O_2   0.788113 0.252429 0.639454 -0.634294
O8    O     O_R   0.835199 0.378875 0.761176 -0.767920
O9    O     O_2   0.937087 0.772952 0.413902 -0.518661
O10   O     O_R   0.943021 0.732762 0.252727 -0.721564
O11   O     O_2   0.224325 0.755314 0.374571 -0.603341
O12   O     O_R   0.388440 0.353740 0.492580 -0.555287
O13   O     O_R   0.178934 0.632897 0.249100 -0.736950
O14   O     O_2   0.205340 0.449661 0.766640 -0.633313
O15   O     O_R   0.314711 0.589241 0.737905 -0.741377
O16   O     O_2   0.436486 0.746508 0.690563 -0.564849
O17   O     O_R   0.277592 0.833553 0.583156 -0.752067
O18   O     O_R   0.643280 0.490550 0.663120 -0.613481
O19   O     O_R   0.451810 0.503220 0.650420 -0.574844
O20   O     O_R   0.611560 0.646260 0.507420 -0.535193
O21   O     O_R   0.420090 0.658930 0.494720 -0.627309
O22   O     O_R   0.548190 0.496780 0.349580 -0.618834
O23   O     O_R   0.356720 0.509450 0.336880 -0.598005
O24   O     O_2   0.462749 0.963767 0.768550 -0.608251
Zn1   Zn    Zn3+2 0.627850 0.491540 0.508480 1.030935
Zn2   Zn    Zn3+2 0.372150 0.508460 0.491520 1.059354

loop_
_geom_bond_atom_site_label_1
_geom_bond_atom_site_label_2
_ccdc_geom_bond_type
C35   O8    S    
H2    O2    S    
C30   H17   S    
C41   C42   A    
C19   C20   A    
C26   C44   A    
C22   C35   S    
C37   O13   S    
C12   C23   A    
C17   N2    A    
C23   C42   A    
C29   F3    S    
C1    C5    S    
C28   C29   A    
C26   H14   S    
C38   C42   S    
H5    O8    S    
O20   Zn1   S    
C21   C33   S    
N1    Zn1   S    
C18   C19   A    
C36   O10   S    
C33   O6    S    
C8    H11   S    
C27   C44   A    
C8    C9    A    
C16   O21   A    
O18   Zn1   S    
H8    O15   S    
C9    C10   A    
C3    C13   A    
C21   N1    A    
C6    C31   S    
O21   Zn2   S    
C16   O20   A    
C1    O12   A    
C31   O2    S    
C18   F2    S    
O19   Zn2   S    
C15   C20   A    
C39   O16   D    
C5    C7    A    
N2    Zn2   S    
C4    O19   A    
O12   Zn2   S    
C37   O11   D    
C25   O22   A    
C2    C4    S    
C9    C14   A    
C22   N1    A    
C29   C30   A    
C36   O9    D    
C4    O18   A    
O22   Zn1   S    
C31   O24   D    
O1    Zn1   S    
C17   C37   S    
O23   Zn2   S    
C11   C39   S    
C32   O3    D    
C40   C41   A    
C38   O15   S    
C22   C24   A    
H6    O10   S    
C25   C27   S    
H4    O6    S    
C12   C34   A    
C15   C36   S    
H9    O17   S    
H7    O13   S    
C15   C17   A    
C14   H10   S    
C35   O7    D    
C7    C32   S    
C12   C30   A    
C34   C43   A    
C41   H13   S    
C6    C10   A    
C5    C8    A    
C32   O4    S    
C6    C7    A    
C18   N2    A    
C25   O23   A    
C19   C24   A    
H3    O4    S    
C39   O17   S    
C13   F1    S    
C26   C40   A    
C38   O14   D    
C24   H12   S    
C1    O1    A    
C3    C11   A    
C10   C11   A    
C33   O5    D    
C28   H16   S    
C27   C43   A    
C20   C21   A    
C2    C23   A    
C34   C40   A    
C2    C28   A    
C13   C14   A    
C3    C16   S    
C44   H1    S    
C43   H15   S    
