data_mof_unit_18322.cif
_audit_creation_date              2012-12-10T20:30:10-0500
_audit_creation_method            fapswitch 2.2
_symmetry_space_group_name_H-M    P1
_symmetry_Int_Tables_number       1
_space_group_crystal_system       triclinic
_cell_length_a                    9.922583
_cell_length_b                    10.674022
_cell_length_c                    13.088653
_cell_angle_alpha                 91.389363
_cell_angle_beta                  70.296501
_cell_angle_gamma                 90.278579
_cell_volume                      1304.71194965

loop_
_atom_site_label
_atom_site_type_symbol
_atom_type_description
_atom_site_fract_x
_atom_site_fract_y
_atom_site_fract_z
_atom_type_partial_charge
C1    C     C_R   0.501553 0.739782 0.496628 0.878971
C2    C     C_R   0.445020 0.512984 0.979271 0.075803
C3    C     C_R   0.453005 0.459149 0.878486 0.042174
C4    C     C_R   0.547529 0.475729 0.026062 0.053440
C5    C     C_R   0.647326 0.377086 0.977057 0.111082
C6    C     C_R   0.643280 0.314659 0.881444 0.046716
C7    C     C_R   0.545360 0.357248 0.834188 -0.208475
C8    C     C_R   0.549650 0.530990 0.123343 -0.261722
C9    C     C_R   0.733650 0.388514 0.130321 -0.195300
C10   C     C_R   0.369689 0.509879 0.821441 -0.083930
C11   C     C_R   0.387844 0.935427 0.477280 0.087881
C12   C     C_R   0.420293 0.499353 0.703856 0.878853
C13   C     C_R   0.508676 0.870787 0.479427 -0.120127
C14   C     C_R   0.638169 0.934750 0.461556 -0.196155
C15   C     C_R   0.638055 0.064292 0.462460 -0.229184
C16   C     C_R   0.508162 0.128278 0.482287 -0.054774
C17   C     C_R   0.386969 0.063052 0.481842 -0.012979
C18   C     C_3   0.234602 0.070540 0.555747 0.126348
C19   C     C_3   0.234019 0.928120 0.548129 0.140061
C20   C     C_R   0.902598 0.586167 0.561335 0.258605
C21   C     C_R   0.954507 0.420786 0.434565 -0.150865
C22   C     C_R   0.099153 0.422040 0.430861 0.172213
C23   C     C_R   0.501210 0.260176 0.497387 0.914159
C24   C     C_R   0.044320 0.585464 0.561851 0.299541
C25   C     C_3   0.997329 0.602215 0.681968 -0.533721
C26   C     C_3   0.844302 0.602758 0.681953 -0.499448
C27   C     C_R   0.579877 0.498814 0.296080 0.851475
C28   C     C_R   0.744895 0.339919 0.028285 -0.195305
C29   C     C_R   0.630209 0.479315 0.179553 -0.045809
C30   C     C_R   0.258371 0.593897 0.872721 -0.192083
C31   C     C_R   0.238676 0.637064 0.977418 -0.127453
C32   C     C_R   0.333863 0.601464 0.028930 -0.182637
H1    H     H_    0.798125 0.348656 0.173789 0.149465
H2    H     H_    0.736713 0.113266 0.454996 0.171933
H3    H     H_    0.163805 0.117719 0.518321 0.152620
H4    H     H_    0.217583 0.879823 0.625741 0.148930
H5    H     H_    0.918785 0.353820 0.385924 0.161606
H6    H     H_    0.022908 0.519698 0.722481 0.221973
H7    H     H_    0.031172 0.694098 0.706793 0.214211
H8    H     H_    0.781914 0.520540 0.722776 0.228108
H9    H     H_    0.789701 0.694728 0.707360 0.213498
H10   H     H_    0.824374 0.267690 0.993987 0.150830
H11   H     H_    0.480439 0.607811 0.163149 0.144538
H12   H     H_    0.192944 0.632417 0.829432 0.149246
H13   H     H_    0.314900 0.643704 0.107989 0.139757
H14   H     H_    0.154141 0.703789 0.016651 0.155392
H15   H     H_    0.538778 0.310628 0.761974 0.168853
H16   H     H_    0.736636 0.885986 0.454190 0.193315
N1    N     N_R   0.856940 0.500860 0.500710 -0.135219
N2    N     N_R   0.142580 0.500820 0.500710 -0.132169
O1    O     O_R   0.385310 0.683210 0.499990 -0.589398
O2    O     O_R   0.614650 0.683240 0.500000 -0.612103
O3    O     O_R   0.328390 0.499940 0.653610 -0.597854
O4    O     O_R   0.557730 0.499980 0.653620 -0.618361
O5    O     O_R   0.385350 0.316760 0.500000 -0.615878
O6    O     O_R   0.614690 0.316790 0.500010 -0.645336
O7    O     O_R   0.442270 0.500020 0.346380 -0.625441
O8    O     O_R   0.671610 0.500060 0.346390 -0.614283
Zn1   Zn    Zn3+2 0.346870 0.499980 0.499990 0.970338
Zn2   Zn    Zn3+2 0.653130 0.500020 0.500010 0.938486
Cl1   Cl    Cl    0.215856 0.127907 0.689585 -0.681048
Cl2   Cl    Cl    0.125084 0.871265 0.472966 -0.694836
C33   C     C_3   0.197472 0.330564 0.349742 -0.394686
C34   C     C_3   0.237133 0.373199 0.231916 -0.326927
C35   C     C_3   0.121947 0.347902 0.180521 -0.852281
H17   H     H_    0.077976 0.251899 0.198169 0.256236
H18   H     H_    0.034532 0.418156 0.209895 0.257412
H19   H     H_    0.169429 0.356339 0.091079 0.266921
H20   H     H_    0.261667 0.474633 0.228641 0.239006
H21   H     H_    0.335537 0.321933 0.182119 0.221458
H22   H     H_    0.297735 0.317132 0.364546 0.231838
H23   H     H_    0.147322 0.236240 0.358396 0.180067
C36   C     C_3   0.741873 0.202877 0.832313 -0.411299
C37   C     C_3   0.720674 0.136184 0.733139 -0.370702
C38   C     C_3   0.818054 0.021638 0.696678 -0.787810
H24   H     H_    0.931750 0.049980 0.674238 0.298672
H25   H     H_    0.793567 0.952589 0.762597 0.253562
H26   H     H_    0.801313 0.976154 0.624748 0.262375
H27   H     H_    0.608022 0.104084 0.753972 0.243364
H28   H     H_    0.745897 0.201611 0.664378 0.234246
H29   H     H_    0.854637 0.235583 0.808189 0.229657
H30   H     H_    0.724822 0.132165 0.896447 0.210362

loop_
_geom_bond_atom_site_label_1
_geom_bond_atom_site_label_2
_ccdc_geom_bond_type
O5    Zn1   S    
C27   C29   S    
C36   C37   S    
C8    H11   S    
C4    C8    A    
C21   N1    A    
O3    Zn1   S    
C23   O6    A    
O4    Zn2   S    
C11   C19   S    
N1    Zn2   S    
N2    Zn1   S    
C3    C7    A    
C19   H4    S    
C5    C6    A    
O7    Zn1   S    
C19   Cl2   S    
O8    Zn2   S    
C15   C16   A    
C2    C32   A    
C18   C19   S    
C32   H13   S    
O2    Zn2   S    
C22   C33   S    
C20   C24   A    
C16   C17   A    
C35   H18   S    
C31   H14   S    
C34   H21   S    
C18   H3    S    
C15   H2    S    
C12   O3    A    
C9    C29   A    
C22   N2    A    
C37   H28   S    
C13   C14   A    
C9    H1    S    
C30   H12   S    
C36   H29   S    
C1    O2    A    
C24   N2    A    
C37   C38   S    
C24   C25   S    
C27   O7    A    
C14   H16   S    
C25   C26   S    
O6    Zn2   S    
C7    H15   S    
C2    C4    A    
C38   H24   S    
C20   N1    A    
C25   H6    S    
C5    C28   A    
C38   H25   S    
C10   C30   A    
C31   C32   A    
C35   H19   S    
C17   C18   S    
C21   H5    S    
C34   H20   S    
C1    O1    A    
C10   C12   S    
C33   H22   S    
C16   C23   S    
C37   H27   S    
O1    Zn1   S    
C8    C29   A    
C36   H30   S    
C6    C36   S    
C11   C17   A    
C4    C5    A    
C27   O8    A    
C18   Cl1   S    
C23   O5    A    
C6    C7    A    
C34   C35   S    
C2    C3    A    
C3    C10   A    
C25   H7    S    
C11   C13   A    
C26   H8    S    
C30   C31   A    
C20   C26   S    
C28   H10   S    
C38   H26   S    
C33   C34   S    
C1    C13   S    
C33   H23   S    
C26   H9    S    
C35   H17   S    
C14   C15   A    
C21   C22   A    
C12   O4    A    
C9    C28   A    
