data_mof_unit_59150.cif
_audit_creation_date              2012-12-11T16:18:06-0500
_audit_creation_method            fapswitch 2.2
_symmetry_space_group_name_H-M    P1
_symmetry_Int_Tables_number       1
_space_group_crystal_system       triclinic
_cell_length_a                    14.036365
_cell_length_b                    14.042107
_cell_length_c                    30.118688
_cell_angle_alpha                 97.222548
_cell_angle_beta                  96.888468
_cell_angle_gamma                 61.414163
_cell_volume                      5159.20526675

loop_
_atom_site_label
_atom_site_type_symbol
_atom_type_description
_atom_site_fract_x
_atom_site_fract_y
_atom_site_fract_z
_atom_type_partial_charge
C1    C     C_R   0.386199 0.710661 0.442224 0.568819
C2    C     C_R   0.771983 0.275062 0.374728 -0.130801
C3    C     C_3   0.807292 0.100961 0.790227 -0.430265
C4    C     C_3   0.536175 0.260840 0.290133 -0.266610
C5    C     C_3   0.581135 0.147589 0.306474 -0.433262
C6    C     C_R   0.800403 0.254492 0.330419 -0.119843
C7    C     C_R   0.398820 0.380666 0.426664 0.541910
C8    C     C_R   0.823668 0.326471 0.311665 0.044921
C9    C     C_R   0.826646 0.414423 0.337970 -0.107255
C10   C     C_R   0.798562 0.435095 0.382282 -0.127654
C11   C     C_R   0.837097 0.398145 0.159982 -0.167425
C12   C     C_R   0.858588 0.392540 0.115340 0.201857
C13   C     C_R   0.865994 0.213101 0.102844 0.036163
C14   C     C_R   0.844779 0.220247 0.148239 0.244636
C15   C     C_R   0.407312 0.297976 0.221584 -0.125133
C16   C     C_R   0.837571 0.310478 0.177023 -0.022046
C17   C     C_1   0.834360 0.313880 0.224559 -0.029534
C18   C     C_1   0.831656 0.317844 0.264397 -0.017749
C19   C     C_R   0.709947 0.405654 0.442325 0.542684
C20   C     C_R   0.885549 0.294785 0.087835 0.033164
C21   C     C_R   0.367142 0.770384 0.402361 0.041422
C22   C     C_R   0.455935 0.774614 0.387016 -0.167470
C23   C     C_R   0.450239 0.807866 0.344549 0.012186
C24   C     C_R   0.353117 0.838468 0.317361 0.015486
C25   C     C_R   0.261507 0.843863 0.333741 -0.115535
C26   C     C_R   0.421934 0.299310 0.268303 0.000713
C27   C     C_R   0.267204 0.810315 0.376366 0.234455
C28   C     C_R   0.231092 0.984851 0.172622 0.246747
C29   C     C_R   0.213362 0.005711 0.126997 0.223165
C30   C     C_R   0.372871 0.830854 0.109314 -0.054938
C31   C     C_R   0.389566 0.711782 0.568229 0.540161
C32   C     C_R   0.392905 0.814322 0.155157 -0.169006
C33   C     C_R   0.322516 0.890552 0.186219 0.026995
C34   C     C_1   0.339682 0.870031 0.232403 0.038300
C35   C     C_1   0.347599 0.856117 0.271301 0.000151
C36   C     C_R   0.281681 0.926688 0.095359 0.056079
C37   C     C_R   0.330445 0.336482 0.293734 0.033172
C38   C     C_R   0.363144 0.365808 0.592159 0.023794
C39   C     C_R   0.376678 0.263317 0.602080 0.026062
C40   C     C_R   0.354484 0.252930 0.645846 0.053667
C41   C     C_R   0.319245 0.344980 0.677395 0.036976
C42   C     C_R   0.298831 0.445670 0.665491 -0.139009
C43   C     C_R   0.401268 0.382687 0.551847 0.531043
C44   C     C_R   0.320146 0.456127 0.623448 -0.147115
C45   C     C_R   0.217868 0.398555 0.832072 -0.136694
C46   C     C_R   0.209828 0.385274 0.876233 -0.138447
C47   C     C_R   0.393050 0.234636 0.877771 -0.113463
C48   C     C_R   0.304246 0.331956 0.199818 -0.012182
C49   C     C_R   0.401816 0.246836 0.833314 0.030321
C50   C     C_R   0.311593 0.327376 0.810079 0.044590
C51   C     C_1   0.311065 0.333735 0.763095 -0.040387
C52   C     C_1   0.312919 0.337838 0.723783 -0.037603
C53   C     C_R   0.295625 0.300104 0.898751 0.003043
C54   C     C_1   0.763882 0.375904 0.612173 0.001706
C55   C     C_R   0.712976 0.407900 0.568527 0.545792
C56   C     C_R   0.897768 0.359790 0.722630 0.256792
C57   C     C_R   0.915878 0.345069 0.768856 -0.120178
C58   C     C_R   0.789537 0.270351 0.762887 0.026987
C59   C     C_1   0.296382 0.320078 0.151617 -0.058316
C60   C     C_R   0.771157 0.285935 0.716836 -0.151574
C61   C     C_R   0.824267 0.330649 0.696826 0.061833
C62   C     C_R   0.861538 0.301931 0.789134 0.017553
C63   C     C_1   0.882964 0.290343 0.836793 -0.057154
C64   C     C_1   0.795938 0.353291 0.650310 0.009697
C65   C     C_1   0.908627 0.280895 0.876295 -0.019573
C66   C     C_1   0.375492 0.759263 0.613478 -0.018316
C67   C     C_1   0.365037 0.361366 0.381417 -0.019510
C68   C     C_R   0.376498 0.725698 0.726689 -0.104741
C69   C     C_R   0.364561 0.746364 0.772855 -0.106012
C70   C     C_1   0.345291 0.348617 0.341876 -0.066606
C71   C     C_R   0.316243 0.935140 0.767067 -0.110257
C72   C     C_R   0.328324 0.914442 0.720870 -0.110278
C73   C     C_R   0.357778 0.809762 0.700568 0.039920
C74   C     C_R   0.333889 0.851260 0.793098 0.037054
C75   C     C_1   0.314845 0.875347 0.840032 -0.060813
C76   C     C_1   0.366583 0.787219 0.652900 -0.061179
C77   C     C_1   0.293835 0.903595 0.878646 -0.015040
C78   C     C_R   0.948197 0.273794 0.047767 0.593333
C79   C     C_R   0.225146 0.369969 0.271945 0.263158
C80   C     C_R   0.274906 0.270067 0.065526 0.552711
C81   C     C_1   0.288436 0.302448 0.111643 -0.006244
C82   C     C_R   0.259819 0.955325 0.048964 0.582597
C83   C     C_R   0.952776 0.268774 0.921936 0.536092
C84   C     C_R   0.276559 0.265892 0.939509 0.535749
C85   C     C_R   0.261589 0.950921 0.922823 0.539977
C86   C     C_R   0.212307 0.367051 0.224644 0.078557
C87   C     C_3   0.864718 0.119355 0.071418 -0.226994
C88   C     C_3   0.777060 0.160679 0.032926 -0.450491
C89   C     C_3   0.449340 0.746433 0.076294 -0.277720
C90   C     C_3   0.398415 0.679809 0.050031 -0.433636
C91   C     C_3   0.099863 0.403554 0.201065 -0.230242
C92   C     C_R   0.766288 0.368280 0.400440 0.020134
C93   C     C_3   0.049318 0.522402 0.190893 -0.413143
C94   C     C_3   0.549854 0.804543 0.328228 -0.267488
C95   C     C_3   0.536147 0.918966 0.327535 -0.431553
C96   C     C_3   0.410628 0.169007 0.565823 -0.278880
C97   C     C_3   0.319668 0.189835 0.528960 -0.429159
C98   C     C_3   0.505072 0.168319 0.811003 -0.283479
C99   C     C_3   0.504400 0.061155 0.794969 -0.438550
C100  C     C_3   0.369416 0.145780 0.659741 -0.272817
C101  C     C_3   0.488569 0.070564 0.673286 -0.448779
C102  C     C_3   0.731494 0.220664 0.782979 -0.272262
Cr1   Cr    Cr6+3 0.581000 0.584320 0.508140 1.021257
Cr2   Cr    Cr6+3 0.339110 0.576430 0.496080 1.055822
Cr3   Cr    Cr6+3 0.579910 0.339270 0.495810 1.013370
Cr4   Cr    Cr6+3 0.082090 0.079210 0.982490 1.022542
Cr5   Cr    Cr6+3 0.082460 0.324610 0.994920 1.055597
Cr6   Cr    Cr6+3 0.323630 0.087860 0.996130 1.028638
H1    H     H_    0.798425 0.186026 0.310087 0.109100
H2    H     H_    0.477189 0.268663 0.201842 0.125313
H3    H     H_    0.971946 0.368051 0.789188 0.098724
H4    H     H_    0.714517 0.263858 0.696440 0.110094
H5    H     H_    0.399027 0.644442 0.711240 0.105905
H6    H     H_    0.377686 0.681160 0.792569 0.109741
H7    H     H_    0.291574 0.016838 0.782403 0.112536
H8    H     H_    0.313368 0.980006 0.701004 0.104735
H9    H     H_    0.824902 0.469594 0.182158 0.105622
H10   H     H_    0.844802 0.470365 0.323544 0.124613
H11   H     H_    0.795302 0.507295 0.401264 0.129969
H12   H     H_    0.186738 0.869817 0.312466 0.115987
H13   H     H_    0.747674 0.222078 0.387771 0.130624
H14   H     H_    0.153061 0.397116 0.327648 0.332862
H15   H     H_    0.807806 0.157149 0.193855 0.329379
H16   H     H_    0.695770 0.210360 0.046503 0.157466
H17   H     H_    0.791734 0.210765 0.011693 0.153978
H18   H     H_    0.776892 0.090407 0.011464 0.133372
H19   H     H_    0.945661 0.064405 0.058670 0.193303
H20   H     H_    0.846774 0.065496 0.088967 0.201755
H21   H     H_    0.119777 0.161615 0.137148 0.315044
H22   H     H_    0.086903 0.093695 0.189610 0.343385
H23   H     H_    0.532325 0.746495 0.407196 0.134277
H24   H     H_    0.115221 0.842298 0.369795 0.317927
H25   H     H_    0.377338 0.638559 0.073391 0.159769
H26   H     H_    0.323896 0.732508 0.029819 0.155408
H27   H     H_    0.457361 0.616924 0.026925 0.143466
H28   H     H_    0.471558 0.786367 0.052768 0.154255
H29   H     H_    0.526427 0.689638 0.094098 0.153465
H30   H     H_    0.044870 0.574603 0.222344 0.174026
H31   H     H_    0.098194 0.532763 0.167336 0.159784
H32   H     H_    0.965727 0.549240 0.175329 0.138967
H33   H     H_    0.103602 0.352121 0.169447 0.143670
H34   H     H_    0.462259 0.741111 0.166678 0.118819
H35   H     H_    0.045180 0.394082 0.221884 0.198169
H36   H     H_    0.467103 0.967024 0.303862 0.169691
H37   H     H_    0.521549 0.961677 0.361631 0.156736
H38   H     H_    0.611418 0.913624 0.316571 0.133806
H39   H     H_    0.623366 0.757927 0.350381 0.135903
H40   H     H_    0.565710 0.761793 0.294158 0.143793
H41   H     H_    0.245316 0.201683 0.543513 0.160765
H42   H     H_    0.300336 0.262835 0.511624 0.156933
H43   H     H_    0.345569 0.118754 0.503751 0.142411
H44   H     H_    0.485452 0.154457 0.551117 0.172916
H45   H     H_    0.133776 0.436998 0.891589 0.135708
H46   H     H_    0.432714 0.090442 0.578800 0.138127
H47   H     H_    0.498363 0.022259 0.823683 0.159121
H48   H     H_    0.434520 0.075662 0.770157 0.156507
H49   H     H_    0.580839 0.004864 0.778715 0.139051
H50   H     H_    0.515428 0.203214 0.782021 0.143072
H51   H     H_    0.576586 0.152469 0.835086 0.133849
H52   H     H_    0.540649 0.050478 0.645027 0.151931
H53   H     H_    0.517886 0.110278 0.701810 0.155425
H54   H     H_    0.496824 0.993808 0.683806 0.142749
H55   H     H_    0.320864 0.159442 0.688619 0.147001
H56   H     H_    0.148751 0.461023 0.814339 0.110847
H57   H     H_    0.337040 0.105213 0.632854 0.140217
H58   H     H_    0.998631 0.418871 0.725038 0.317259
H59   H     H_    0.838750 0.054910 0.757872 0.158935
H60   H     H_    0.876848 0.091836 0.814382 0.167311
H61   H     H_    0.762060 0.065698 0.803874 0.130762
H62   H     H_    0.698897 0.266238 0.815271 0.145964
H63   H     H_    0.660811 0.226254 0.760270 0.128904
H64   H     H_    0.530474 0.147866 0.332133 0.164244
H65   H     H_    0.583240 0.088567 0.277850 0.155364
H66   H     H_    0.665111 0.120635 0.321746 0.130404
H67   H     H_    0.271272 0.515927 0.689720 0.117895
H68   H     H_    0.592050 0.257241 0.265968 0.136754
H69   H     H_    0.536987 0.319216 0.318548 0.158949
H70   H     H_    0.829348 0.543927 0.120984 0.310201
H71   H     H_    0.308940 0.534811 0.616393 0.141145
H72   H     H_    0.460221 0.169041 0.894889 0.130965
O1    O     O_R   0.688580 0.499770 0.460490 -0.519355
O2    O     O_R   0.346150 0.177650 0.050510 -0.504093
O3    O     O_R   0.314200 0.996600 0.036060 -0.495172
O4    O     O_R   0.480400 0.672610 0.462660 -0.526717
O5    O     O_R   0.168690 0.969990 0.933130 -0.512003
O6    O     O_R   0.991920 0.175870 0.937430 -0.503829
O7    O     O_R   0.974010 0.342590 0.941330 -0.511484
O8    O     O_R   0.182630 0.317940 0.955040 -0.505433
O9    O     O_R   0.347320 0.174720 0.953250 -0.521443
O10   O     O_R   0.315290 0.993890 0.945900 -0.498677
O11   O     O_3   0.162730 0.163890 0.991180 -0.241665
O12   O     O_R   0.348600 0.476260 0.536540 -0.504268
O13   O     O_R   0.315310 0.685650 0.451800 -0.435466
O14   O     O_R   0.346220 0.474990 0.446280 -0.485879
O15   O     O_R   0.492270 0.312460 0.441630 -0.517392
O16   O     O_R   0.669740 0.350480 0.455640 -0.500309
O17   O     O_R   0.691150 0.501150 0.557860 -0.495762
O18   O     O_R   0.482790 0.673890 0.552920 -0.494202
O19   O     O_R   0.317880 0.687030 0.549170 -0.509265
O20   O     O_3   0.133016 0.407847 0.295382 -0.720412
O21   O     O_3   0.835292 0.136313 0.163522 -0.720906
O22   O     O_3   0.133191 0.103982 0.112431 -0.704478
O23   O     O_R   0.494840 0.313840 0.539010 -0.520397
O24   O     O_3   0.160603 0.053875 0.204454 -0.699540
O25   O     O_3   0.177895 0.812270 0.392263 -0.672358
O26   O     O_3   0.949492 0.403523 0.702274 -0.693385
O27   O     O_3   0.857549 0.480331 0.098602 -0.679860
O28   O     O_R   0.672120 0.351750 0.545910 -0.496988
O29   O     O_3   0.500010 0.500010 0.500010 -0.250709
O30   O     O_R   0.167510 0.972920 0.030390 -0.495017
O31   O     O_R   0.990840 0.178580 0.027590 -0.497390
O32   O     O_R   0.972840 0.345510 0.038590 -0.435575
O33   O     O_R   0.181550 0.320660 0.045200 -0.486838

loop_
_geom_bond_atom_site_label_1
_geom_bond_atom_site_label_2
_ccdc_geom_bond_type
C102  H62   S    
Cr3   O16   S    
C87   C88   S    
C63   C65   T    
C41   C42   A    
C58   C62   A    
C56   C61   A    
C22   H23   S    
C31   C66   S    
C5    H66   S    
C95   H37   S    
C4    H69   S    
C88   H16   S    
C83   O7    A    
Cr1   O29   S    
C87   H19   S    
C3    H59   S    
C57   C62   A    
C47   C49   A    
C57   H3    S    
C45   C46   A    
C1    C21   S    
C55   O28   A    
C37   C79   A    
C29   C36   A    
C62   C63   S    
C12   C20   A    
Cr3   O28   S    
C53   C84   S    
C60   H4    S    
Cr2   O29   S    
C101  H54   S    
C45   H56   S    
C86   C91   S    
C38   C39   A    
C90   H26   S    
C65   C83   S    
Cr4   O31   S    
C58   C60   A    
C96   H44   S    
C14   O21   S    
Cr5   O7    S    
C102  H63   S    
Cr3   O29   S    
C56   C57   A    
C17   C18   T    
C34   C35   T    
Cr1   O17   S    
C88   H18   S    
C10   H11   S    
C13   C14   A    
C49   C98   S    
C68   C69   A    
Cr6   O2    S    
C96   H46   S    
C98   H50   S    
C101  H52   S    
C36   C82   S    
C16   C17   S    
Cr2   O12   S    
C99   H47   S    
Cr2   O13   S    
C97   H42   S    
C83   O6    A    
C58   C102  S    
C80   O2    A    
C9    C10   A    
C41   C52   S    
C32   H34   S    
Cr6   O3    S    
C68   H5    S    
C47   C53   A    
C21   C27   A    
C10   C92   A    
C95   H36   S    
C89   H28   S    
C37   C70   S    
H70   O27   S    
C94   H40   S    
C9    H10   S    
C15   H2    S    
Cr6   O10   S    
C2    C6    A    
C95   H38   S    
C42   C44   A    
Cr4   O11   S    
C30   C89   S    
C44   H71   S    
C31   O19   A    
C87   H20   S    
C1    O4    A    
C3    H60   S    
C50   C51   S    
C91   H35   S    
C85   O5    A    
C69   H6    S    
C24   C35   S    
C74   C75   S    
C93   H30   S    
Cr1   O4    S    
C28   O24   S    
C12   O27   S    
C84   O9    A    
C24   C25   A    
Cr4   O6    S    
C72   C73   A    
C39   C40   A    
C90   H25   S    
H15   O21   S    
C8    C9    A    
C15   C26   A    
C6    C8    A    
Cr5   O32   S    
C85   O10   A    
C82   O3    A    
C8    C18   S    
C51   C52   T    
C100  H57   S    
C27   O25   S    
Cr1   O18   S    
C61   C64   S    
C1    O13   A    
C38   C44   A    
C47   H72   S    
C93   H31   S    
C91   C93   S    
C11   C16   A    
Cr5   O33   S    
C23   C24   A    
C66   C76   T    
C96   C97   S    
C13   C87   S    
C33   C34   S    
C97   H43   S    
C71   H7    S    
C69   C74   A    
Cr6   O11   S    
C7    O14   A    
C2    C92   A    
C19   O1    A    
C75   C77   T    
C91   H33   S    
H21   O22   S    
C3    C102  S    
C40   C41   A    
C28   C33   A    
C98   C99   S    
C89   H29   S    
C99   H49   S    
C19   C92   S    
C43   O23   A    
C73   C76   S    
C48   C86   A    
Cr6   O9    S    
C84   O8    A    
C5    H65   S    
C7    O15   A    
C11   H9    S    
C25   H12   S    
C78   O32   A    
H22   O24   S    
C48   C59   S    
C2    H13   S    
C94   H39   S    
Cr3   O15   S    
C46   H45   S    
C54   C55   S    
C28   C29   A    
C97   H41   S    
C79   O20   S    
C13   C20   A    
Cr1   O1    S    
Cr2   O19   S    
C15   C48   A    
C3    H61   S    
C59   C81   T    
Cr4   O5    S    
C29   O22   S    
C80   C81   S    
C40   C100  S    
C71   C74   A    
C4    C26   S    
C11   C12   A    
C26   C37   A    
C80   O33   A    
C30   C36   A    
C25   C27   A    
C72   H8    S    
C19   O16   A    
C23   C94   S    
C20   C78   S    
C42   H67   S    
C67   C70   T    
H14   O20   S    
C32   C33   A    
C101  H53   S    
C68   C73   A    
C38   C43   S    
C93   H32   S    
C30   C32   A    
C90   H27   S    
C55   O17   A    
C54   C64   T    
C45   C50   A    
C77   C85   S    
C4    C5    S    
Cr5   O8    S    
C46   C53   A    
C100  C101  S    
C6    H1    S    
C5    H64   S    
C100  H55   S    
C14   C16   A    
C79   C86   A    
C94   C95   S    
C39   C96   S    
C88   H17   S    
Cr3   O23   S    
C7    C67   S    
C99   H48   S    
H24   O25   S    
C56   O26   S    
C98   H51   S    
C49   C50   A    
C4    H68   S    
Cr5   O11   S    
Cr2   O14   S    
C22   C23   A    
C60   C61   A    
C43   O12   A    
H58   O26   S    
C71   C72   A    
C89   C90   S    
C21   C22   A    
C78   O31   A    
C31   O18   A    
C82   O30   A    
Cr4   O30   S    
