data_mof_unit_43484.cif
_audit_creation_date              2012-12-10T17:50:13-0500
_audit_creation_method            fapswitch 2.2
_symmetry_space_group_name_H-M    P1
_symmetry_Int_Tables_number       1
_space_group_crystal_system       triclinic
_cell_length_a                    10.619681
_cell_length_b                    14.732084
_cell_length_c                    14.757063
_cell_angle_alpha                 65.000611
_cell_angle_beta                  103.592701
_cell_angle_gamma                 103.107205
_cell_volume                      2012.43567578

loop_
_atom_site_label
_atom_site_type_symbol
_atom_type_description
_atom_site_fract_x
_atom_site_fract_y
_atom_site_fract_z
_atom_type_partial_charge
C1    C     C_R   0.479100 0.119674 0.312365 0.793691
C2    C     C_R   0.522991 0.880303 0.687654 0.794346
C3    C     C_R   0.493625 0.291814 0.179011 -0.253564
C4    C     C_R   0.526880 0.708279 0.821118 -0.259968
C5    C     C_R   0.508338 0.360908 0.080082 0.089735
C6    C     C_R   0.545391 0.639940 0.922571 0.089058
C7    C     C_R   0.494993 0.321720 0.004988 0.164076
C8    C     C_R   0.572940 0.679354 0.998857 0.166189
C9    C     C_R   0.534203 0.467481 0.053692 0.063870
C10   C     C_R   0.533073 0.533610 0.950094 0.064186
C11   C     C_R   0.521987 0.491361 0.877820 -0.223276
C12   C     C_R   0.564053 0.510084 0.127555 -0.223935
C13   C     C_R   0.504147 0.387449 0.905193 -0.231144
C14   C     C_R   0.584254 0.614006 0.100344 -0.231075
C15   C     C_R   0.720051 0.287018 0.666480 -0.371871
C16   C     C_R   0.279420 0.712728 0.333956 -0.369609
C17   C     C_R   0.686187 0.204703 0.637623 0.379427
C18   C     C_R   0.313864 0.795337 0.362350 0.378952
C19   C     C_R   0.517482 0.284667 0.509812 -0.045630
C20   C     C_R   0.482094 0.715117 0.490548 -0.044533
C21   C     C_R   0.548295 0.371212 0.535272 -0.024579
C22   C     C_R   0.450767 0.628312 0.465509 -0.025004
C23   C     C_R   0.259395 0.000106 0.499932 0.786162
C24   C     C_R   0.740598 0.999905 0.500050 0.785989
C25   C     C_R   0.651390 0.369813 0.616233 0.140850
C26   C     C_R   0.347564 0.629661 0.384628 0.140343
C27   C     C_R   0.480931 0.458076 0.484417 0.084007
C28   C     C_R   0.517801 0.541280 0.516630 0.086841
C29   C     C_R   0.620024 0.534454 0.598941 -0.242767
C30   C     C_R   0.378339 0.464716 0.402385 -0.238927
C31   C     C_R   0.685419 0.450669 0.647174 -0.193868
C32   C     C_R   0.312960 0.548508 0.354142 -0.186580
C33   C     C_3   0.009251 0.923058 0.476887 -0.129298
C34   C     C_3   0.990722 0.076965 0.523070 -0.128289
C35   C     C_3   0.931608 0.011552 0.407692 -0.170115
C36   C     C_3   0.068362 0.988472 0.592266 -0.169928
C37   C     C_3   0.877634 0.000153 0.500058 0.021375
C38   C     C_3   0.122345 0.999869 0.499902 0.020789
C39   C     C_3   0.953041 0.911768 0.569282 -0.170438
C40   C     C_3   0.046933 0.088255 0.430676 -0.170543
C41   C     C_R   0.476453 0.187339 0.205211 -0.052414
C42   C     C_R   0.541093 0.812635 0.795191 -0.051645
C43   C     C_R   0.473305 0.216788 0.030657 -0.204825
C44   C     C_R   0.588060 0.784078 0.972820 -0.205251
C45   C     C_R   0.465335 0.149904 0.130434 -0.198004
C46   C     C_R   0.573033 0.850428 0.871544 -0.195168
Cu1   Cu    Cu3+1 0.465750 0.918270 0.475680 0.952982
Cu2   Cu    Cu3+1 0.534250 0.081730 0.524320 0.953167
H1    H     H_    0.872491 0.020937 0.332280 0.129963
H2    H     H_    0.127460 0.979096 0.667680 0.130101
H3    H     H_    0.560645 0.721419 0.549645 0.131157
H4    H     H_    0.439031 0.278396 0.450646 0.131252
H5    H     H_    0.799609 0.285825 0.728249 0.139670
H6    H     H_    0.199843 0.713908 0.272205 0.139371
H7    H     H_    0.652156 0.592837 0.628440 0.128099
H8    H     H_    0.345815 0.406150 0.373157 0.130019
H9    H     H_    0.019311 0.859928 0.457975 0.138760
H10   H     H_    0.980662 0.140102 0.541971 0.138807
H11   H     H_    0.911366 0.839626 0.625856 0.127419
H12   H     H_    0.088592 0.160403 0.374104 0.126667
H13   H     H_    0.496576 0.358370 0.847466 0.150919
H14   H     H_    0.606993 0.643354 0.159371 0.147041
H15   H     H_    0.497419 0.681772 0.760579 0.151958
H16   H     H_    0.493678 0.317368 0.237365 0.146818
H17   H     H_    0.584612 0.930923 0.853136 0.152045
H18   H     H_    0.452012 0.069245 0.149155 0.152844
H19   H     H_    0.464081 0.186490 0.973664 0.131855
H20   H     H_    0.610505 0.814589 0.030918 0.130981
H21   H     H_    0.530781 0.536564 0.799487 0.142821
H22   H     H_    0.576496 0.465377 0.207778 0.146650
H23   H     H_    0.763658 0.449097 0.709860 0.143442
H24   H     H_    0.234398 0.549918 0.291700 0.142315
N1    N     N_R   0.585750 0.204560 0.560800 -0.170474
N2    N     N_R   0.414250 0.795440 0.439200 -0.170646
O1    O     O_R   0.454850 0.022100 0.338110 -0.559985
O2    O     O_R   0.545150 0.977900 0.661890 -0.559999
O3    O     O_R   0.512700 0.160150 0.379180 -0.595613
O4    O     O_R   0.487300 0.839850 0.620820 -0.596218
O5    O     O_R   0.287930 0.931000 0.479440 -0.559399
O6    O     O_R   0.712070 0.069000 0.520560 -0.559619
O7    O     O_R   0.345780 0.069050 0.520520 -0.590831
O8    O     O_R   0.654220 0.930950 0.479480 -0.591306
N3    N     N_3   0.243900 0.880078 0.310269 -0.529576
H25   H     H_    0.145035 0.854235 0.317044 0.184434
H26   H     H_    0.251734 0.908684 0.233489 0.185595
N4    N     N_3   0.756831 0.120316 0.689204 -0.529645
H27   H     H_    0.855450 0.146602 0.681749 0.185495
H28   H     H_    0.749975 0.091727 0.766161 0.183026

loop_
_geom_bond_atom_site_label_1
_geom_bond_atom_site_label_2
_ccdc_geom_bond_type
C25   C31   A    
C38   C40   S    
C26   C32   A    
C40   H12   S    
C34   C37   S    
C1    O3    A    
Cu2   O2    S    
Cu1   O5    S    
C36   H2    S    
C32   H24   S    
C3    H16   S    
C4    H15   S    
C33   C39   S    
C34   C40   S    
C15   H5    S    
C28   C29   A    
C19   C21   A    
C20   H3    S    
N4    H28   S    
C15   C25   A    
C14   H14   S    
Cu2   O7    S    
C42   C46   A    
Cu1   O8    S    
C24   O8    A    
C12   H22   S    
C19   H4    S    
C24   O6    A    
N3    H25   S    
C35   H1    S    
C33   H9    S    
C7    C43   A    
C9    C10   A    
C31   H23   S    
C21   C27   A    
C18   N2    A    
C22   C28   A    
C27   C30   A    
C17   N1    A    
C44   C46   A    
C24   C37   S    
C16   C26   A    
C37   C39   S    
C17   N4    S    
C1    O1    A    
C19   N1    A    
C46   H17   S    
C4    C6    A    
C5    C7    A    
N4    H27   S    
C6    C8    A    
C29   H7    S    
C30   H8    S    
Cu2   O3    S    
C43   H19   S    
C5    C9    A    
C2    O4    A    
Cu1   Cu2   S    
C39   H11   S    
C18   N3    S    
C20   N2    A    
C43   C45   A    
C1    C41   S    
N3    H26   S    
C12   C14   A    
C44   H20   S    
C45   H18   S    
C2    O2    A    
C15   C17   A    
C21   C25   A    
C3    C41   A    
C8    C14   A    
C23   O7    A    
C35   C37   S    
Cu2   N1    S    
C36   C39   S    
C8    C44   A    
Cu1   N2    S    
C20   C22   A    
C3    C5    A    
C6    C10   A    
C11   H21   S    
C23   C38   S    
C33   C38   S    
Cu2   O6    S    
C36   C38   S    
C35   C40   S    
Cu1   O1    S    
C29   C31   A    
C30   C32   A    
C11   C13   A    
C4    C42   A    
C2    C42   S    
C33   C35   S    
C34   C36   S    
C9    C12   A    
C16   H6    S    
C10   C11   A    
C7    C13   A    
C13   H13   S    
C16   C18   A    
C22   C26   A    
C27   C28   A    
C34   H10   S    
C41   C45   A    
Cu1   O4    S    
C23   O5    A    
