data_mof_unit_45133.cif
_audit_creation_date              2012-12-10T17:36:48-0500
_audit_creation_method            fapswitch 2.2
_symmetry_space_group_name_H-M    P1
_symmetry_Int_Tables_number       1
_space_group_crystal_system       triclinic
_cell_length_a                    10.644228
_cell_length_b                    12.437036
_cell_length_c                    13.412401
_cell_angle_alpha                 117.282069
_cell_angle_beta                  74.595594
_cell_angle_gamma                 100.995484
_cell_volume                      1516.427098

loop_
_atom_site_label
_atom_site_type_symbol
_atom_type_description
_atom_site_fract_x
_atom_site_fract_y
_atom_site_fract_z
_atom_type_partial_charge
C1    C     C_R   0.505709 0.854693 0.288106 0.857455
C2    C     C_3   0.018170 0.054333 0.603665 0.269991
C3    C     C_3   0.925506 0.939489 0.556145 -0.199721
C4    C     C_3   0.878053 0.999226 0.495903 -0.224364
C5    C     C_R   0.427738 0.266223 0.034634 -0.136774
C6    C     C_R   0.458015 0.228140 0.836099 -0.090286
C7    C     C_R   0.544609 0.811834 0.083301 -0.152993
C8    C     C_R   0.559813 0.731873 0.967718 0.331326
C9    C     C_R   0.530184 0.607881 0.934616 -0.145869
C10   C     C_R   0.474779 0.561674 0.016626 0.058070
C11   C     C_R   0.453971 0.643100 0.134631 0.092980
C12   C     C_R   0.740279 0.000045 0.499356 0.922128
C13   C     C_R   0.448585 0.434858 0.984285 0.054980
C14   C     C_R   0.424036 0.390344 0.067875 0.109266
C15   C     C_R   0.388117 0.469880 0.182458 -0.187318
C16   C     C_R   0.392628 0.593493 0.213988 -0.110380
C17   C     C_R   0.440346 0.350698 0.872318 0.184332
C18   C     C_R   0.453227 0.186547 0.918396 -0.155063
C19   C     C_R   0.497247 0.769284 0.168023 -0.137434
C20   C     C_R   0.671126 0.315375 0.294705 -0.261303
C21   C     C_R   0.323383 0.761916 0.651759 0.359562
C22   C     C_R   0.272001 0.660320 0.673202 0.189096
C23   C     C_R   0.478165 0.145185 0.713423 0.843207
C24   C     C_R   0.322161 0.548368 0.601071 0.207555
C25   C     C_R   0.438325 0.540728 0.518537 -0.148384
C26   C     C_R   0.484899 0.643808 0.492116 0.102245
C27   C     C_R   0.508249 0.432613 0.458245 0.039392
C28   C     C_R   0.596184 0.414888 0.354612 0.034074
C29   C     C_R   0.619674 0.501824 0.315155 -0.231634
C30   C     C_R   0.584238 0.618812 0.387778 0.309042
C31   C     C_R   0.500398 0.343334 0.498276 0.072862
C32   C     C_R   0.662584 0.233747 0.339442 0.457958
C33   C     C_R   0.260285 0.999497 0.499074 0.896504
C34   C     C_3   0.983792 0.943639 0.387804 0.279104
C35   C     C_3   0.032935 0.884480 0.447675 0.214241
C36   C     C_3   0.124341 0.998548 0.496383 -0.241778
C37   C     C_3   0.075892 0.057890 0.436693 0.249225
C38   C     C_3   0.968686 0.114771 0.544668 -0.216595
Cu1   Cu    Cu3+1 0.529830 0.098270 0.475420 1.056042
Cu2   Cu    Cu3+1 0.470170 0.901730 0.524580 1.045179
H1    H     H_    0.413535 0.231639 0.098096 0.178754
N1    N     N_R   0.575030 0.246270 0.438190 -0.233645
N2    N     N_R   0.425760 0.754330 0.561190 -0.245371
O1    O     O_R   0.537510 0.972500 0.318130 -0.556486
O2    O     O_R   0.487140 0.806530 0.359650 -0.590205
O3    O     O_R   0.708330 0.082950 0.479220 -0.550866
O4    O     O_R   0.657960 0.916980 0.520740 -0.547585
O5    O     O_R   0.512860 0.193470 0.640350 -0.575738
O6    O     O_R   0.462490 0.027500 0.681870 -0.557662
O7    O     O_R   0.342040 0.083020 0.479260 -0.548350
O8    O     O_R   0.291670 0.917050 0.520780 -0.545886
Br1   Br    Br    0.074159 0.717143 0.379239 -0.401378
Br2   Br    Br    0.336895 0.390025 0.797681 -0.409880
H2    H     H_    0.574978 0.907015 0.106444 0.204196
H3    H     H_    0.554841 0.548151 0.844299 0.185524
Br3   Br    Br    0.629517 0.791457 0.853872 -0.435013
H4    H     H_    0.347649 0.646983 0.301414 0.204643
Br4   Br    Br    0.780293 0.108110 0.258452 -0.353370
H5    H     H_    0.685112 0.481991 0.232236 0.204882
H6    H     H_    0.741158 0.304084 0.215934 0.191983
H7    H     H_    0.438133 0.350892 0.577619 0.204833
Br5   Br    Br    0.229556 0.905173 0.744403 -0.310838
Br6   Br    Br    0.972587 0.869701 0.227236 -0.250828
Br7   Br    Br    0.204565 0.406580 0.592290 -0.362731
Br8   Br    Br    0.126246 0.671863 0.799221 -0.232102
Br9   Br    Br    0.716137 0.714439 0.328805 -0.417471
Br10  Br    Br    0.182094 0.137368 0.343371 -0.359478
H8    H     H_    0.940689 0.209417 0.584574 0.225483
Br11  Br    Br    0.042203 0.137445 0.760395 -0.321702
H9    H     H_    0.862423 0.890859 0.605604 0.227833
H10   H     H_    0.462553 0.091901 0.893391 0.204642
H11   H     H_    0.353045 0.436332 0.247502 0.177895

loop_
_geom_bond_atom_site_label_1
_geom_bond_atom_site_label_2
_ccdc_geom_bond_type
Cu2   O4    S    
C31   N1    A    
C34   C37   S    
C31   H7    S    
C35   C36   S    
C32   Br4   S    
C8    Br3   S    
C7    C8    A    
C15   H11   S    
C11   C19   A    
C37   C38   S    
C28   C29   A    
C23   O6    A    
C15   C16   A    
C33   C36   S    
C34   C35   S    
C21   N2    A    
Cu2   N2    S    
C29   H5    S    
C8    C9    A    
C9    H3    S    
C20   H6    S    
C2    Br11  S    
C9    C10   A    
C24   Br7   S    
C21   C22   A    
C12   O4    A    
C26   N2    A    
Cu1   N1    S    
Cu2   O2    S    
C6    C18   A    
C4    C34   S    
C1    C19   S    
C27   C31   A    
C3    H9    S    
C24   C25   A    
C12   O3    A    
Cu1   Cu2   S    
C5    C18   A    
C20   C28   A    
C25   C26   A    
C22   Br8   S    
C29   C30   A    
C11   C16   A    
C2    C38   S    
C1    O1    A    
C3    C35   S    
C5    C14   A    
C21   Br5   S    
C30   Br9   S    
Cu1   O3    S    
C4    C38   S    
C26   C30   A    
C7    C19   A    
C25   C27   A    
C22   C24   A    
C4    C12   S    
C3    C4    S    
C17   Br2   S    
C27   C28   A    
C20   C32   A    
C2    C36   S    
C18   H10   S    
C6    C17   A    
C5    H1    S    
C36   C37   S    
C23   O5    A    
C38   H8    S    
C10   C13   A    
Cu1   O1    S    
C33   O8    A    
Cu2   O8    S    
C13   C17   A    
C2    C3    S    
C33   O7    A    
C1    O2    A    
C6    C23   S    
C37   Br10  S    
C34   Br6   S    
C16   H4    S    
C10   C11   A    
Cu1   O7    S    
C35   Br1   S    
C32   N1    A    
C14   C15   A    
C7    H2    S    
C13   C14   A    
Cu2   O6    S    
Cu1   O5    S    
