data_mof_unit_21145.cif
_audit_creation_date              2012-12-10T16:48:11-0500
_audit_creation_method            fapswitch 2.2
_symmetry_space_group_name_H-M    P1
_symmetry_Int_Tables_number       1
_space_group_crystal_system       triclinic
_cell_length_a                    15.792972
_cell_length_b                    8.707055
_cell_length_c                    7.616976
_cell_angle_alpha                 103.749083
_cell_angle_beta                  95.569351
_cell_angle_gamma                 94.887943
_cell_volume                      1006.2265112

loop_
_atom_site_label
_atom_site_type_symbol
_atom_type_description
_atom_site_fract_x
_atom_site_fract_y
_atom_site_fract_z
_atom_type_partial_charge
C1    C     C_R   0.497443 0.199879 0.452678 0.852622
C2    C     C_R   0.502557 0.800121 0.547323 0.852644
C3    C     C_R   0.340211 0.499488 0.499727 0.815617
C4    C     C_R   0.659789 0.500511 0.500273 0.815633
C5    C     C_2   0.496089 0.030930 0.427519 -0.299934
C6    C     C_2   0.503910 0.969070 0.572481 -0.299935
C7    C     C_3   0.965862 0.358137 0.516412 -0.160092
C8    C     C_3   0.034138 0.641861 0.483587 -0.160087
C9    C     C_3   0.015960 0.384704 0.359213 -0.159319
C10   C     C_3   0.984039 0.615294 0.640787 -0.159300
C11   C     C_1   0.250328 0.499374 0.499436 -0.081095
C12   C     C_1   0.749671 0.500625 0.500564 -0.081054
C13   C     C_3   0.034280 0.473144 0.656930 -0.141418
C14   C     C_3   0.965720 0.526854 0.343069 -0.141431
C15   C     C_3   0.082791 0.499707 0.499731 0.177807
C16   C     C_3   0.917209 0.500291 0.500268 0.177800
C17   C     C_1   0.174582 0.499434 0.499475 -0.048631
C18   C     C_1   0.825418 0.500564 0.500524 -0.048628
Cu1   Cu    Cu3+1 0.509330 0.517380 0.684380 1.149726
Cu2   Cu    Cu3+1 0.490670 0.482620 0.315620 1.149698
H1    H     H_    0.030561 0.290157 0.243693 0.136053
H2    H     H_    0.969439 0.709841 0.756307 0.136062
H3    H     H_    0.936361 0.241764 0.529873 0.139881
H4    H     H_    0.063639 0.758235 0.470126 0.139888
H5    H     H_    0.936106 0.548838 0.214301 0.147685
H6    H     H_    0.063893 0.451161 0.785699 0.147679
H7    H     H_    0.488600 0.957244 0.288857 0.203768
H8    H     H_    0.511399 0.042756 0.711143 0.203765
N1    N     N_2   0.476600 0.456420 0.038510 0.087084
N2    N     N_2   0.523400 0.543580 0.961490 0.087090
O1    O     O_R   0.506070 0.286130 0.619780 -0.558402
O2    O     O_R   0.493930 0.713870 0.380220 -0.558387
O3    O     O_R   0.490300 0.256770 0.308360 -0.556012
O4    O     O_R   0.509700 0.743230 0.691640 -0.556012
O5    O     O_R   0.386960 0.514660 0.655680 -0.522327
O6    O     O_R   0.613040 0.485340 0.344320 -0.522347
O7    O     O_R   0.371190 0.485310 0.344260 -0.539311
O8    O     O_R   0.628810 0.514690 0.655740 -0.539237
S1    S     S_3+6 0.375387 0.361431 0.942392 0.130577
O9    O     O_2   0.313675 0.483863 0.942991 -0.307923
O10   O     O_2   0.372729 0.257021 0.754517 -0.305191
O11   O     O_3   0.341605 0.240432 0.069845 -0.507708
H9    H     H_    0.279744 0.210654 0.027549 0.346506
S2    S     S_3+6 0.624612 0.638570 0.057608 0.130560
O12   O     O_2   0.627269 0.742980 0.245482 -0.305291
O13   O     O_2   0.686327 0.516142 0.057011 -0.307854
O14   O     O_3   0.658395 0.759567 0.930155 -0.507726
H10   H     H_    0.720217 0.789612 0.972718 0.346508

loop_
_geom_bond_atom_site_label_1
_geom_bond_atom_site_label_2
_ccdc_geom_bond_type
C7    C13   S    
C9    C14   S    
C4    O6    A    
C15   C17   S    
N1    N2    D    
Cu1   O8    S    
C4    C12   S    
Cu1   O1    S    
O14   H10   S    
C7    H3    S    
S2    O14   S    
C3    O5    A    
N2    S2    S    
C2    O4    A    
C9    C15   S    
C1    O3    A    
C10   C16   S    
S1    O10   D    
Cu1   O5    S    
C10   H2    S    
Cu2   O7    S    
C9    H1    S    
C2    C6    S    
C1    C5    S    
Cu2   O3    S    
C16   C18   S    
C7    C16   S    
C8    H4    S    
S2    O13   D    
C8    C15   S    
Cu2   N1    S    
C13   C15   S    
C14   H5    S    
C5    C6    D    
C14   C16   S    
C13   H6    S    
C3    C11   S    
O11   H9    S    
S1    O9    D    
Cu2   O6    S    
C1    O1    A    
S2    O12   D    
C3    O7    A    
C2    O2    A    
Cu2   O2    S    
C12   C18   T    
N1    S1    S    
C7    C9    S    
S1    O11   S    
C11   C17   T    
C8    C14   S    
C5    H7    S    
Cu1   N2    S    
Cu1   O4    S    
C8    C10   S    
C6    H8    S    
Cu1   Cu2   S    
C4    O8    A    
C10   C13   S    
