data_mof_unit_58200.cif
_audit_creation_date              2012-12-10T17:49:34-0500
_audit_creation_method            fapswitch 2.2
_symmetry_space_group_name_H-M    P1
_symmetry_Int_Tables_number       1
_space_group_crystal_system       triclinic
_cell_length_a                    14.685893
_cell_length_b                    14.699739
_cell_length_c                    15.857458
_cell_angle_alpha                 76.766583
_cell_angle_beta                  102.351775
_cell_angle_gamma                 115.107834
_cell_volume                      2990.91307364

loop_
_atom_site_label
_atom_site_type_symbol
_atom_type_description
_atom_site_fract_x
_atom_site_fract_y
_atom_site_fract_z
_atom_type_partial_charge
C1    C     C_R   0.879920 0.311804 0.513351 0.844925
C2    C     C_3   0.912888 0.400806 0.053658 -0.565558
C3    C     C_3   0.000601 0.497763 0.083778 0.025616
C4    C     C_3   0.102618 0.498766 0.070177 -0.451691
C5    C     C_3   0.102481 0.502579 0.971054 0.250455
C6    C     C_1   0.000660 0.497795 0.175899 0.045319
C7    C     C_1   0.997066 0.497753 0.824696 0.131281
C8    C     C_1   0.997549 0.498615 0.749061 -0.088013
C9    C     C_R   0.811698 0.202772 0.522980 -0.293471
C10   C     C_R   0.188215 0.794619 0.490571 -0.073931
C11   C     C_R   0.785457 0.024381 0.558575 -0.213922
C12   C     C_R   0.999202 0.499564 0.659583 0.812761
C13   C     C_R   0.850912 0.126704 0.548798 0.546679
C14   C     C_R   0.705561 0.173788 0.507571 0.392718
C15   C     C_R   0.640761 0.071901 0.533640 -0.119622
C16   C     C_R   0.680471 0.996170 0.550217 -0.131922
C17   C     C_R   0.536445 0.042944 0.538794 -0.037023
C18   C     C_R   0.469004 0.940924 0.532588 -0.097975
C19   C     C_R   0.510124 0.866738 0.544667 -0.221669
C20   C     C_R   0.614438 0.893683 0.557079 0.653470
C21   C     C_R   0.497824 0.110394 0.555332 0.508985
C22   C     C_R   0.393493 0.084427 0.543360 -0.341930
C23   C     C_R   0.119878 0.687792 0.487144 0.794654
C24   C     C_R   0.325786 0.989095 0.523220 0.084132
C25   C     C_R   0.362927 0.916139 0.518222 0.105763
C26   C     C_R   0.220903 0.964261 0.511665 -0.163350
C27   C     C_R   0.152397 0.867043 0.496554 -0.201261
C28   C     C_R   0.292592 0.821002 0.497896 -0.190316
C29   C     C_R   0.716774 0.670312 0.357256 -0.356422
C30   C     C_R   0.797875 0.639149 0.377352 0.649525
C31   C     C_R   0.717510 0.513864 0.492894 0.046539
C32   C     C_R   0.636969 0.547200 0.479270 0.000092
C33   C     C_R   0.637718 0.626024 0.408504 0.003757
C34   C     C_R   0.000243 0.499574 0.340516 0.807281
C35   C     C_R   0.554906 0.504375 0.531025 -0.095271
C36   C     C_R   0.469062 0.531625 0.502386 -0.070098
C37   C     C_R   0.478758 0.617526 0.437041 0.670376
C38   C     C_R   0.560941 0.662369 0.390359 -0.224991
C39   C     C_R   0.556997 0.440378 0.612496 0.627076
C40   C     C_R   0.473395 0.396222 0.657935 -0.148556
C41   C     C_R   0.383361 0.409834 0.623230 -0.204017
C42   C     C_R   0.379032 0.476005 0.543814 -0.155456
C43   C     C_R   0.296606 0.356536 0.666211 0.269099
C44   C     C_R   0.209752 0.376816 0.633786 0.664484
C45   C     C_3   0.906346 0.404235 0.954172 0.450655
C46   C     C_R   0.282329 0.477982 0.506534 0.558297
C47   C     C_3   0.985279 0.593888 0.928318 0.226809
C48   C     C_3   0.985075 0.592850 0.026661 0.399447
C49   C     C_1   0.000634 0.498451 0.251278 -0.160815
C50   C     C_3   0.997754 0.497292 0.917111 -0.071026
Cu1   Cu    Cu3+1 0.081750 0.475690 0.522550 1.055632
Cu2   Cu    Cu3+1 0.918250 0.524310 0.477450 1.002265
H1    H     H_    0.839525 0.395160 0.067951 0.159678
H2    H     H_    0.924313 0.331693 0.090904 0.221665
H3    H     H_    0.166441 0.567177 0.092845 0.212940
H4    H     H_    0.317450 0.765727 0.487352 0.200316
H5    H     H_    0.071887 0.847785 0.492118 0.151955
H6    H     H_    0.365493 0.138351 0.552690 0.154616
H7    H     H_    0.817368 0.967307 0.574015 0.225115
H8    H     H_    0.834589 0.412395 0.921470 0.175695
H9    H     H_    0.463528 0.786442 0.549858 0.196327
H10   H     H_    0.191941 0.019155 0.516814 0.141428
H11   H     H_    0.564932 0.727135 0.339809 0.168780
H12   H     H_    0.479499 0.350395 0.721195 0.193612
H13   H     H_    0.715673 0.729313 0.302283 0.148917
H14   H     H_    0.719403 0.449796 0.541071 0.233646
H15   H     H_    0.048786 0.663533 0.903098 0.155102
H16   H     H_    0.911263 0.591133 0.035831 0.149709
H17   H     H_    0.157597 0.580878 0.949889 0.127361
H18   H     H_    0.116347 0.433063 0.112132 0.164403
N1    N     N_R   0.795410 0.560790 0.443550 -0.246380
N2    N     N_R   0.204590 0.439170 0.556520 -0.319452
O1    O     O_R   0.977910 0.338120 0.529720 -0.491586
O2    O     O_R   0.839850 0.379180 0.491640 -0.565753
O3    O     O_R   0.069060 0.479460 0.639610 -0.521768
O4    O     O_R   0.931000 0.520530 0.601530 -0.574096
O5    O     O_R   0.160150 0.620820 0.508360 -0.560609
O6    O     O_R   0.022090 0.661880 0.470280 -0.572139
O7    O     O_R   0.069000 0.479470 0.398470 -0.566503
O8    O     O_R   0.930940 0.520540 0.360390 -0.543420
F1    F     F_    0.898548 0.313279 0.936156 -0.689956
F2    F     F_    0.650382 0.819335 0.572129 -0.659160
F3    F     F_    0.952332 0.150432 0.561747 -0.643481
O9    O     O_3   0.665342 0.244617 0.464344 -0.549835
C51   C     C_3   0.628357 0.230009 0.376177 0.065235
H19   H     H_    0.555102 0.239442 0.359461 0.166098
H20   H     H_    0.612157 0.152556 0.363440 0.125034
C52   C     C_3   0.703081 0.310816 0.316160 -0.324951
H21   H     H_    0.717101 0.387717 0.327794 0.249132
H22   H     H_    0.776281 0.301313 0.331174 0.195977
C53   C     C_3   0.662418 0.302718 0.220069 -0.913791
H23   H     H_    0.650115 0.227277 0.206310 0.259609
H24   H     H_    0.718246 0.362777 0.178688 0.258962
H25   H     H_    0.589748 0.313270 0.202930 0.259748
O10   O     O_3   0.559460 0.200523 0.587201 -0.573193
C54   C     C_3   0.603497 0.180380 0.674409 0.118596
H26   H     H_    0.665522 0.252877 0.690635 0.226094
H27   H     H_    0.639751 0.125495 0.682770 0.120265
C55   C     C_3   0.525993 0.143029 0.738955 -0.419844
H28   H     H_    0.483082 0.192411 0.724571 0.232427
H29   H     H_    0.471353 0.064179 0.731482 0.211740
C56   C     C_3   0.577808 0.143895 0.833218 -0.819075
H30   H     H_    0.621366 0.094782 0.848889 0.264354
H31   H     H_    0.519663 0.114420 0.878270 0.247442
H32   H     H_    0.630022 0.222658 0.843494 0.278663
O11   O     O_3   0.262605 0.507229 0.417590 -0.523649
C57   C     C_3   0.221689 0.420418 0.374841 0.097518
H33   H     H_    0.174715 0.437285 0.313411 0.177849
H34   H     H_    0.169894 0.350990 0.413363 0.125506
C58   C     C_3   0.304903 0.398571 0.349748 -0.415889
H35   H     H_    0.357461 0.468965 0.313596 0.239402
H36   H     H_    0.348621 0.372944 0.409394 0.211679
C59   C     C_3   0.259467 0.315177 0.292443 -0.904529
H37   H     H_    0.209249 0.243028 0.328476 0.258482
H38   H     H_    0.321268 0.302083 0.274046 0.262959
H39   H     H_    0.214875 0.337898 0.231875 0.249915
F4    F     F_    0.128581 0.330024 0.678410 -0.598031
O12   O     O_3   0.875914 0.679520 0.326123 -0.580809
C60   C     C_3   0.922046 0.787232 0.315680 0.034956
H40   H     H_    0.004594 0.809296 0.337366 0.180099
H41   H     H_    0.895473 0.822017 0.355935 0.120124
C61   C     C_3   0.908134 0.831638 0.218940 -0.330609
H42   H     H_    0.940001 0.800141 0.180650 0.255237
H43   H     H_    0.826132 0.809773 0.194515 0.213726
C62   C     C_3   0.961497 0.947443 0.204403 -0.896887
H44   H     H_    0.929617 0.980817 0.240833 0.254012
H45   H     H_    0.950255 0.977218 0.133709 0.269468
H46   H     H_    0.044205 0.971178 0.226561 0.261410
F5    F     F_    0.414843 0.665823 0.423413 -0.655345
F6    F     F_    0.642426 0.427840 0.654520 -0.686095
O13   O     O_3   0.297049 0.286792 0.741290 -0.571940
C63   C     C_3   0.260030 0.189527 0.716653 0.069354
H47   H     H_    0.305222 0.189146 0.668526 0.109456
H48   H     H_    0.178891 0.166046 0.687324 0.201984
C64   C     C_3   0.268118 0.112165 0.797459 -0.319283
H49   H     H_    0.348200 0.136353 0.828983 0.222055
H50   H     H_    0.220762 0.109002 0.845029 0.243998
C65   C     C_3   0.232814 0.006389 0.773577 -0.887737
H51   H     H_    0.151950 0.979555 0.744073 0.273964
H52   H     H_    0.240601 0.952137 0.833363 0.269052
H53   H     H_    0.279593 0.007662 0.726411 0.247993
F7    F     F_    0.896211 0.598718 0.880123 -0.648216
F8    F     F_    0.060843 0.681307 0.052948 -0.665378
O14   O     O_3   0.144507 0.440387 0.950000 -0.587241
C66   C     C_3   0.101373 0.335659 0.983978 0.203289
H54   H     H_    0.059078 0.293289 0.928574 0.220182
H55   H     H_    0.048251 0.315558 0.031651 0.169668
C67   C     C_3   0.186722 0.300349 0.027674 -0.397108
H56   H     H_    0.234768 0.310244 0.978057 0.255315
H57   H     H_    0.235071 0.347882 0.078516 0.224977
C68   C     C_3   0.145052 0.188930 0.070061 -0.909208
H58   H     H_    0.099471 0.178061 0.121919 0.257291
H59   H     H_    0.208952 0.165621 0.100255 0.267870
H60   H     H_    0.096864 0.139763 0.020297 0.273727

loop_
_geom_bond_atom_site_label_1
_geom_bond_atom_site_label_2
_ccdc_geom_bond_type
C10   C27   A    
C31   H14   S    
C45   H8    S    
C20   F2    S    
C64   C65   S    
C41   C43   A    
C41   C42   A    
C36   C42   A    
O10   C54   S    
C67   C68   S    
C14   O9    S    
C9    C14   A    
C3    C6    S    
C4    H18   S    
C30   N1    A    
C28   H4    S    
C7    C8    T    
C51   H19   S    
C25   C28   A    
C47   F7    S    
C26   C27   A    
C29   C30   A    
C1    O2    A    
C45   C50   S    
C36   C37   A    
C24   C26   A    
C38   H11   S    
Cu2   O2    S    
C19   H9    S    
C11   H7    S    
C51   C52   S    
O11   C57   S    
C15   C16   A    
C54   C55   S    
C29   C33   A    
C3    C48   S    
C56   H32   S    
C15   C17   A    
C18   C19   A    
C42   C46   A    
C68   H60   S    
C9    C13   A    
C58   H35   S    
C5    H17   S    
C34   O8    A    
O12   C60   S    
C35   C36   A    
C63   H47   S    
C54   H27   S    
C62   H46   S    
C57   H33   S    
C8    C12   S    
C46   N2    A    
C16   C20   A    
C47   C48   S    
C59   H39   S    
C31   N1    A    
C6    C49   T    
C21   C22   A    
C57   H34   S    
C18   C25   A    
Cu2   O6    S    
C47   H15   S    
C66   H55   S    
C66   H54   S    
C47   C50   S    
C58   H36   S    
C51   H20   S    
C2    C45   S    
Cu1   Cu2   S    
C32   C35   A    
C64   H49   S    
C1    C9    S    
O9    C51   S    
C27   H5    S    
C53   H23   S    
O14   C66   S    
C5    O14   S    
C21   O10   S    
C65   H53   S    
C23   O5    A    
C48   F8    S    
C35   C39   A    
C43   C44   A    
Cu1   O5    S    
C37   C38   A    
C34   O7    A    
C53   H24   S    
C11   C16   A    
C55   H28   S    
C52   C53   S    
C68   H58   S    
C54   H26   S    
C17   C18   A    
C24   C25   A    
C56   H31   S    
C58   C59   S    
C60   H41   S    
C65   H52   S    
C29   H13   S    
C40   C41   A    
C55   H29   S    
C52   H22   S    
C12   O4    A    
C4    H3    S    
C2    H2    S    
C62   H44   S    
C57   C58   S    
C22   C24   A    
C5    C50   S    
Cu1   N2    S    
C61   H43   S    
O13   C63   S    
C39   C40   A    
C66   C67   S    
Cu1   O3    S    
C59   H37   S    
C60   C61   S    
C10   C28   A    
C64   H50   S    
C34   C49   S    
C31   C32   A    
C45   F1    S    
Cu1   O1    S    
C7    C50   S    
C67   H57   S    
C4    C5    S    
Cu2   O4    S    
C2    H1    S    
C22   H6    S    
C60   H40   S    
C39   F6    S    
C10   C23   S    
C30   O12   S    
C13   F3    S    
C33   C38   A    
C40   H12   S    
C48   H16   S    
C1    O1    A    
C32   C33   A    
C19   C20   A    
C43   O13   S    
C2    C3    S    
C26   H10   S    
Cu2   N1    S    
C53   H25   S    
C11   C13   A    
C44   F4    S    
C61   C62   S    
C63   C64   S    
C46   O11   S    
C37   F5    S    
C44   N2    A    
C67   H56   S    
C68   H59   S    
C23   O6    A    
C56   H30   S    
Cu1   O7    S    
C65   H51   S    
C55   C56   S    
C52   H21   S    
C63   H48   S    
C12   O3    A    
C62   H45   S    
C14   C15   A    
C61   H42   S    
Cu2   O8    S    
C3    C4    S    
C59   H38   S    
C17   C21   A    
