data_mof_unit_16210.cif
_audit_creation_date              2012-12-10T16:50:54-0500
_audit_creation_method            fapswitch 2.2
_symmetry_space_group_name_H-M    P1
_symmetry_Int_Tables_number       1
_space_group_crystal_system       triclinic
_cell_length_a                    7.932096
_cell_length_b                    8.537822
_cell_length_c                    10.588053
_cell_angle_alpha                 92.400553
_cell_angle_beta                  84.210904
_cell_angle_gamma                 93.717824
_cell_volume                      711.443197497

loop_
_atom_site_label
_atom_site_type_symbol
_atom_type_description
_atom_site_fract_x
_atom_site_fract_y
_atom_site_fract_z
_atom_type_partial_charge
C1    C     C_R   0.545190 0.794031 0.496885 0.970552
C2    C     C_R   0.941781 0.385803 0.017631 0.546982
C3    C     C_R   0.035842 0.505703 0.080873 -0.251071
C4    C     C_R   0.964156 0.494293 0.919128 -0.251070
C5    C     C_R   0.179239 0.457729 0.131212 -0.133225
C6    C     C_R   0.820759 0.542267 0.868790 -0.133237
C7    C     C_R   0.342103 0.488424 0.070473 0.123283
C8    C     C_R   0.657895 0.511571 0.929528 0.123282
C9    C     C_R   0.359254 0.562287 0.954741 -0.028646
C10   C     C_R   0.640744 0.437707 0.045259 -0.028643
C11   C     C_R   0.488366 0.449059 0.123441 -0.189752
C12   C     C_R   0.454809 0.205969 0.503115 0.970547
C13   C     C_R   0.511632 0.550936 0.876560 -0.189745
C14   C     C_1   0.256279 0.783154 0.844576 0.307400
C15   C     C_1   0.743722 0.216844 0.155426 0.307384
C16   C     C_1   0.999165 0.307664 0.433397 0.372564
C17   C     C_1   0.000782 0.692315 0.566694 0.372456
C18   C     C_2   0.568589 0.958025 0.496251 -0.334062
C19   C     C_2   0.431409 0.041974 0.503748 -0.334064
C20   C     C_R   0.504072 0.522139 0.739742 0.870563
C21   C     C_R   0.495928 0.477859 0.260258 0.870557
C22   C     C_R   0.224059 0.648240 0.924064 -0.073588
C23   C     C_R   0.775940 0.351756 0.075937 -0.073578
C24   C     C_R   0.058218 0.614193 0.982370 0.546985
F1    F     F_    0.976785 0.749565 0.011298 -0.633312
F2    F     F_    0.023213 0.250432 0.988703 -0.633314
H1    H     H_    0.038087 0.446509 0.835113 0.178178
H2    H     H_    0.961911 0.553487 0.164888 0.178184
H3    H     H_    0.159504 0.377983 0.208537 0.170751
H4    H     H_    0.840493 0.622016 0.791467 0.170764
H5    H     H_    0.698265 0.009094 0.489824 0.200192
H6    H     H_    0.301732 0.990905 0.510174 0.200189
N1    N     N_2   0.950330 0.457950 0.466250 -0.162916
N2    N     N_2   0.049670 0.542050 0.533750 -0.162896
N3    N     N_1   0.281869 0.891490 0.781805 -0.168352
N4    N     N_1   0.718135 0.108508 0.218197 -0.168362
N5    N     N_1   0.036447 0.181175 0.405088 -0.223290
N6    N     N_1   0.963449 0.818784 0.595099 -0.223254
O1    O     O_R   0.389250 0.738570 0.508280 -0.623224
O2    O     O_R   0.610750 0.261430 0.491720 -0.623235
O3    O     O_R   0.678390 0.711630 0.486650 -0.619822
O4    O     O_R   0.321610 0.288370 0.513350 -0.619827
O5    O     O_R   0.355430 0.513480 0.694040 -0.626454
O6    O     O_R   0.644570 0.486520 0.305960 -0.626451
O7    O     O_R   0.644570 0.486540 0.672410 -0.628771
O8    O     O_R   0.355430 0.513460 0.327590 -0.628760
Zn1   Zn    Zn3+2 0.306940 0.517990 0.514440 0.956055
Zn2   Zn    Zn3+2 0.693060 0.482010 0.485560 0.956053

loop_
_geom_bond_atom_site_label_1
_geom_bond_atom_site_label_2
_ccdc_geom_bond_type
C12   O2    A    
C2    C4    A    
C8    C13   A    
N2    Zn1   S    
C16   N1    S    
C21   O6    A    
C5    C7    A    
C20   O7    A    
C16   N5    T    
C17   N6    T    
C14   C22   S    
C15   C23   S    
C2    C3    A    
C3    C24   A    
C2    F2    S    
C20   O5    A    
C7    C11   A    
C1    C18   S    
C19   H6    S    
C12   C19   S    
C4    C6    A    
C3    H2    S    
C6    H4    S    
O3    Zn2   S    
N1    N2    D    
C5    H3    S    
O4    Zn1   S    
C4    C24   A    
C22   C24   A    
C9    C22   A    
C10   C11   A    
C1    O1    A    
C12   O4    A    
C15   N4    T    
C2    C23   A    
C4    H1    S    
C24   F1    S    
O1    Zn1   S    
C21   O8    A    
C17   N2    S    
O7    Zn2   S    
C1    O3    A    
C14   N3    T    
C7    C9    A    
N1    Zn2   S    
C9    C13   A    
O2    Zn2   S    
C18   C19   D    
C10   C23   A    
C6    C8    A    
C18   H5    S    
C13   C20   S    
O8    Zn1   S    
O5    Zn1   S    
C11   C21   S    
C8    C10   A    
O6    Zn2   S    
C3    C5    A    
