data_mof_unit_57024.cif
_audit_creation_date              2012-12-10T18:18:28-0500
_audit_creation_method            fapswitch 2.2
_symmetry_space_group_name_H-M    P1
_symmetry_Int_Tables_number       1
_space_group_crystal_system       triclinic
_cell_length_a                    14.02539
_cell_length_b                    14.945186
_cell_length_c                    15.38165
_cell_angle_alpha                 89.96463
_cell_angle_beta                  68.629977
_cell_angle_gamma                 90.351068
_cell_volume                      3002.43563021

loop_
_atom_site_label
_atom_site_type_symbol
_atom_type_description
_atom_site_fract_x
_atom_site_fract_y
_atom_site_fract_z
_atom_type_partial_charge
C1    C     C_R   0.499164 0.672796 0.502923 0.889659
C2    C     C_R   0.499149 0.767965 0.506215 -0.072770
C3    C     C_R   0.504128 0.186086 0.412514 0.119399
C4    C     C_R   0.498163 0.814036 0.586079 0.117460
C5    C     C_R   0.507388 0.091665 0.414138 0.055850
C6    C     C_R   0.500824 0.908469 0.582451 0.057408
C7    C     C_R   0.505047 0.046907 0.496627 0.005639
C8    C     C_R   0.504129 0.953167 0.499653 0.005935
C9    C     C_R   0.503491 0.096015 0.576088 0.064673
C10   C     C_R   0.505819 0.904025 0.420187 0.064240
C11   C     C_R   0.513027 0.041294 0.335345 -0.224067
C12   C     C_R   0.501070 0.327231 0.496613 0.897904
C13   C     C_R   0.500567 0.958864 0.659589 -0.225248
C14   C     C_R   0.511661 0.947904 0.336708 0.157554
C15   C     C_R   0.502059 0.052156 0.658207 0.159485
C16   C     C_R   0.436595 0.502263 0.676330 0.873016
C17   C     C_R   0.563477 0.502427 0.323672 0.881490
C18   C     C_R   0.178262 0.444321 0.559456 -0.068114
C19   C     C_R   0.821597 0.555931 0.440909 -0.070869
C20   C     C_R   0.226028 0.554681 0.440147 -0.036526
C21   C     C_R   0.774352 0.444282 0.558803 -0.038321
C22   C     C_R   0.126243 0.555512 0.438631 -0.002158
C23   C     C_R   0.383101 0.591033 0.100353 -0.262429
C24   C     C_R   0.874292 0.443016 0.559913 -0.008375
C25   C     C_R   0.050678 0.499041 0.499802 0.042039
C26   C     C_R   0.949777 0.499705 0.499015 0.041143
C27   C     C_R   0.076292 0.441878 0.561415 -0.004010
C28   C     C_R   0.924143 0.556850 0.437435 0.000151
C29   C     C_R   0.101319 0.611288 0.376827 -0.256701
C30   C     C_R   0.899686 0.385946 0.620398 -0.242783
C31   C     C_R   0.001527 0.612587 0.374935 0.172035
C32   C     C_R   0.999551 0.384275 0.622024 0.186758
C33   C     C_R   0.399079 0.522023 0.776231 -0.061536
C34   C     C_R   0.624194 0.583934 0.895211 -0.267432
C35   C     C_R   0.602111 0.519110 0.223013 -0.059262
C36   C     C_R   0.265191 0.571683 0.918876 0.008396
C37   C     C_R   0.741526 0.546114 0.074957 0.018420
C38   C     C_R   0.296217 0.541319 0.826564 -0.297354
C39   C     C_R   0.706704 0.526793 0.170703 -0.302777
C40   C     C_R   0.471298 0.533643 0.817728 -0.270656
C41   C     C_R   0.531279 0.534373 0.180959 -0.272798
C42   C     C_R   0.443850 0.564959 0.908715 0.060776
C43   C     C_R   0.561858 0.559526 0.087526 0.063746
C44   C     C_R   0.338705 0.578822 0.962416 0.139913
C45   C     C_R   0.310502 0.594869 0.058362 -0.184593
C46   C     C_R   0.668421 0.562101 0.032113 0.137488
C47   C     C_R   0.518937 0.575167 0.949238 0.087147
C48   C     C_R   0.487632 0.575881 0.046928 0.086780
C49   C     C_3   0.981226 0.673274 0.304753 -0.423503
C50   C     C_3   0.973129 0.619828 0.223094 -0.815734
C51   C     C_3   0.020766 0.320061 0.688959 -0.467263
C52   C     C_3   0.019409 0.368216 0.776856 -0.777512
C53   C     C_2   0.156844 0.598433 0.964194 0.326212
C54   C     C_2   0.854332 0.546750 0.024973 0.347799
C55   C     C_3   0.505775 0.238277 0.326237 -0.440703
C56   C     C_R   0.697274 0.581044 0.936503 -0.187933
C57   C     C_3   0.615035 0.250822 0.256567 -0.860684
C58   C     C_3   0.490766 0.762414 0.674437 -0.448984
C59   C     C_3   0.381783 0.763534 0.746715 -0.817357
C60   C     C_3   0.516388 0.894119 0.250382 -0.401753
C61   C     C_3   0.524275 0.947486 0.163006 -0.883572
C62   C     C_3   0.501543 0.105803 0.743323 -0.405794
C63   C     C_3   0.500933 0.052296 0.828457 -0.886108
C64   C     C_R   0.503142 0.188654 0.571716 -0.312980
C65   C     C_R   0.502334 0.811340 0.425830 -0.311933
C66   C     C_R   0.502043 0.232055 0.492783 -0.076168
H1    H     H_    0.231673 0.604482 0.103261 0.189603
H2    H     H_    0.549574 0.514962 0.778901 0.165376
H3    H     H_    0.761531 0.515495 0.204170 0.150172
H4    H     H_    0.240731 0.536300 0.792757 0.160969
H5    H     H_    0.355823 0.602274 0.174775 0.142259
H6    H     H_    0.651275 0.596024 0.820786 0.155147
H7    H     H_    0.502202 0.229378 0.630217 0.136204
H8    H     H_    0.503247 0.770556 0.367371 0.137392
H9    H     H_    0.519099 0.074660 0.271789 0.179936
H10   H     H_    0.498606 0.925569 0.721978 0.182068
H11   H     H_    0.045425 0.583245 0.187112 0.271183
H12   H     H_    0.775900 0.591544 0.891485 0.210175
H13   H     H_    0.909441 0.570541 0.246714 0.228962
H14   H     H_    0.959011 0.666227 0.172772 0.275054
H15   H     H_    0.910695 0.712798 0.339001 0.196249
H16   H     H_    0.044349 0.722938 0.275953 0.219598
H17   H     H_    0.076996 0.423144 0.759602 0.251682
H18   H     H_    0.942240 0.396442 0.814233 0.299265
H19   H     H_    0.036930 0.320003 0.823833 0.242754
H20   H     H_    0.961664 0.266175 0.710487 0.211245
H21   H     H_    0.094834 0.285526 0.654497 0.200881
H22   H     H_    0.098060 0.563955 0.946513 0.108617
H23   H     H_    0.201953 0.402384 0.604969 0.147658
H24   H     H_    0.903747 0.563437 0.062976 0.080380
H25   H     H_    0.652374 0.185298 0.233284 0.261429
H26   H     H_    0.613767 0.288156 0.194551 0.255519
H27   H     H_    0.660845 0.289924 0.289083 0.265129
H28   H     H_    0.456688 0.205929 0.292681 0.199018
H29   H     H_    0.471525 0.305426 0.344060 0.225300
H30   H     H_    0.380577 0.731483 0.812198 0.266197
H31   H     H_    0.352800 0.832767 0.763067 0.259412
H32   H     H_    0.329807 0.725602 0.720050 0.264499
H33   H     H_    0.513001 0.691492 0.660438 0.222910
H34   H     H_    0.797264 0.599313 0.396942 0.149021
H35   H     H_    0.546242 0.788843 0.704343 0.199053
H36   H     H_    0.456053 0.990579 0.177079 0.258583
H37   H     H_    0.595375 0.988695 0.138540 0.259813
H38   H     H_    0.527356 0.900391 0.106224 0.259338
H39   H     H_    0.584093 0.849517 0.230554 0.211015
H40   H     H_    0.446342 0.851725 0.268932 0.208466
H41   H     H_    0.430674 0.010254 0.856489 0.263062
H42   H     H_    0.570331 0.010014 0.810162 0.259136
H43   H     H_    0.501335 0.099295 0.884226 0.255728
H44   H     H_    0.570689 0.149572 0.721717 0.207358
H45   H     H_    0.285037 0.597690 0.393512 0.126698
H46   H     H_    0.432595 0.148996 0.766934 0.208802
H47   H     H_    0.715515 0.400809 0.604932 0.131410
H48   H     H_    0.160412 0.653641 0.329101 0.137573
H49   H     H_    0.841031 0.342505 0.667054 0.141281
H50   H     H_    0.451309 0.523789 0.221865 0.163116
N1    N     N_R   0.249980 0.499930 0.499960 -0.103776
N2    N     N_R   0.750020 0.500070 0.500040 -0.104674
O1    O     O_R   0.419720 0.632140 0.499980 -0.610794
O2    O     O_2   0.893863 0.523605 0.943743 -0.618192
O3    O     O_R   0.580280 0.367860 0.500020 -0.611090
O4    O     O_R   0.580270 0.632160 0.499970 -0.629373
O5    O     O_R   0.419730 0.367840 0.500030 -0.629609
O6    O     O_R   0.373870 0.499980 0.632250 -0.613313
O7    O     O_R   0.626130 0.500020 0.367750 -0.615127
O8    O     O_R   0.534420 0.500000 0.632240 -0.630562
O9    O     O_R   0.465580 0.500000 0.367760 -0.630431
O10   O     O_2   0.133037 0.662937 0.016088 -0.592650
Zn1   Zn    Zn3+2 0.392800 0.499980 0.500010 0.934202
Zn2   Zn    Zn3+2 0.607200 0.500020 0.499990 0.931942

loop_
_geom_bond_atom_site_label_1
_geom_bond_atom_site_label_2
_ccdc_geom_bond_type
C29   H48   S    
C38   H4    S    
C34   C56   A    
C23   C45   A    
C57   H26   S    
C54   O2    D    
C9    C64   A    
C2    C4    A    
O3    Zn2   S    
C2    C65   A    
C50   H13   S    
C7    C8    A    
C62   C63   S    
C52   H19   S    
C22   C29   A    
C24   C26   A    
C54   H24   S    
C8    C10   A    
C11   C14   A    
O8    Zn2   S    
C56   H12   S    
C1    C2    S    
C1    O1    A    
C49   H15   S    
C52   H18   S    
C1    O4    A    
C36   C53   S    
C3    C55   S    
O7    Zn2   S    
C12   O3    A    
C19   N2    A    
C21   H47   S    
C45   H1    S    
C64   H7    S    
N1    Zn1   S    
C43   C48   A    
C37   C46   A    
C40   C42   A    
C57   H27   S    
O5    Zn1   S    
C41   C43   A    
C42   C44   A    
C31   C49   S    
C55   H28   S    
C51   H20   S    
C20   N1    A    
C30   H49   S    
C33   C40   A    
C58   H33   S    
C51   C52   S    
C23   H5    S    
C61   H38   S    
C4    C6    A    
C10   C14   A    
C51   H21   S    
C5    C7    A    
C17   O9    A    
C6    C8    A    
C25   C26   A    
C12   C66   S    
C22   C25   A    
C65   H8    S    
C60   C61   S    
C64   C66   A    
C49   H16   S    
C63   H43   S    
C52   H17   S    
C35   C39   A    
O9    Zn1   S    
C32   C51   S    
C21   N2    A    
N2    Zn2   S    
C53   O10   D    
C16   C33   S    
C20   H45   S    
C47   C48   A    
C62   H44   S    
C13   H10   S    
C39   H3    S    
C58   H35   S    
C19   C28   A    
C18   N1    A    
C37   C54   S    
C55   H29   S    
C20   C22   A    
C13   C15   A    
C59   H31   S    
C36   C44   A    
C3    C66   A    
C59   H30   S    
C41   H50   S    
C63   H41   S    
C50   H11   S    
C34   H6    S    
C60   H40   S    
C44   C45   A    
C10   C65   A    
C7    C9    A    
C23   C48   A    
C57   H25   S    
C61   H37   S    
C27   C32   A    
C9    C15   A    
C18   H23   S    
C28   C31   A    
C18   C27   A    
C3    C5    A    
C50   H14   S    
C19   H34   S    
C5    C11   A    
C25   C27   A    
C14   C60   S    
C46   C56   A    
C26   C28   A    
C33   C38   A    
C55   C57   S    
C61   H36   S    
C58   C59   S    
C29   C31   A    
C11   H9    S    
C6    C13   A    
C30   C32   A    
C17   O7    A    
C12   O5    A    
C36   C38   A    
O1    Zn1   S    
C15   C62   S    
O6    Zn1   S    
C53   H22   S    
C42   C47   A    
C16   O6    A    
C35   C41   A    
C43   C46   A    
C24   C30   A    
C62   H46   S    
C37   C39   A    
C49   C50   S    
C40   H2    S    
C21   C24   A    
C4    C58   S    
C59   H32   S    
C34   C47   A    
C17   C35   S    
C63   H42   S    
C16   O8    A    
O4    Zn2   S    
C60   H39   S    
