data_mof_unit_57209.cif
_audit_creation_date              2012-12-10T21:42:30-0500
_audit_creation_method            fapswitch 2.2
_symmetry_space_group_name_H-M    P1
_symmetry_Int_Tables_number       1
_space_group_crystal_system       triclinic
_cell_length_a                    10.638661
_cell_length_b                    16.216328
_cell_length_c                    16.657266
_cell_angle_alpha                 89.81989
_cell_angle_beta                  91.512548
_cell_angle_gamma                 92.713908
_cell_volume                      2869.48334733

loop_
_atom_site_label
_atom_site_type_symbol
_atom_type_description
_atom_site_fract_x
_atom_site_fract_y
_atom_site_fract_z
_atom_type_partial_charge
C1    C     C_R   0.497946 0.490568 0.652830 0.945918
C2    C     C_R   0.499240 0.510071 0.346524 0.977159
C3    C     C_R   0.127940 0.499261 0.503827 -0.045072
C4    C     C_R   0.872037 0.500242 0.497344 -0.038995
C5    C     C_R   0.059062 0.443776 0.552875 0.053317
C6    C     C_R   0.940983 0.557655 0.450618 0.058580
C7    C     C_R   0.488798 0.490797 0.738819 -0.183145
C8    C     C_R   0.482023 0.517656 0.259795 -0.134726
C9    C     C_R   0.401584 0.542350 0.770331 -0.226304
C10   C     C_R   0.439129 0.450047 0.213335 -0.152202
C11   C     C_R   0.413552 0.569693 0.849009 0.421484
C12   C     C_R   0.405730 0.460792 0.132764 0.315528
C13   C     C_R   0.510636 0.538494 0.899090 0.088914
C14   C     C_R   0.423550 0.539284 0.097322 0.111437
C15   C     C_R   0.598348 0.485748 0.866888 0.397985
C16   C     C_R   0.465634 0.607931 0.144140 0.365895
C17   C     C_R   0.586154 0.461651 0.786699 -0.266117
C18   C     C_R   0.494000 0.596205 0.224931 -0.345659
C19   C     C_R   0.455334 0.760870 0.451027 -0.092044
C20   C     C_R   0.565122 0.240522 0.538860 -0.083456
C21   C     C_R   0.462516 0.848408 0.450467 -0.248271
C22   C     C_R   0.566143 0.153045 0.536760 -0.247299
C23   C     C_R   0.739656 0.500215 0.498083 0.932065
C24   C     C_R   0.260413 0.499678 0.503153 0.894537
C25   C     C_R   0.534150 0.892021 0.510626 0.247253
C26   C     C_R   0.482517 0.108014 0.484028 0.245332
C27   C     C_R   0.595380 0.846317 0.568378 -0.314135
C28   C     C_R   0.401381 0.152200 0.436569 -0.278926
C29   C     C_R   0.585747 0.759846 0.568976 0.530942
C30   C     C_R   0.402166 0.238489 0.438556 0.506557
C31   C     C_R   0.793156 0.667708 0.272147 -0.187714
C32   C     C_R   0.185036 0.367824 0.754571 -0.193982
C33   C     C_R   0.846526 0.604844 0.318020 0.428160
C34   C     C_R   0.123101 0.416754 0.697680 0.415881
C35   C     C_R   0.881713 0.620468 0.399255 -0.040680
C36   C     C_R   0.118608 0.392541 0.615925 -0.065614
C37   C     C_R   0.862138 0.698093 0.432711 -0.136134
C38   C     C_R   0.170109 0.317939 0.594143 -0.134245
C39   C     C_R   0.806977 0.759370 0.386698 -0.150973
C40   C     C_R   0.231963 0.270286 0.651290 -0.125362
C41   C     C_R   0.773037 0.744309 0.306476 -0.146931
C42   C     C_R   0.240242 0.295535 0.731281 -0.134632
C43   C     C_R   0.069928 0.555909 0.453756 -0.122749
C44   C     C_R   0.929947 0.442986 0.546783 -0.111860
H1    H     H_    0.731349 0.792214 0.270756 0.218580
H2    H     H_    0.288320 0.258548 0.775546 0.193349
H3    H     H_    0.629798 0.274370 0.579289 0.169294
H4    H     H_    0.401328 0.728180 0.404182 0.160842
H5    H     H_    0.631370 0.121624 0.575779 0.185963
H6    H     H_    0.413376 0.881063 0.403362 0.183053
H7    H     H_    0.766267 0.657595 0.209718 0.218679
H8    H     H_    0.190680 0.385354 0.817240 0.218353
H9    H     H_    0.790995 0.818710 0.413192 0.164383
H10   H     H_    0.273603 0.213753 0.633465 0.158823
H11   H     H_    0.125226 0.598556 0.416903 0.161679
H12   H     H_    0.874465 0.400587 0.583762 0.169688
H13   H     H_    0.429001 0.389383 0.239927 0.251636
H14   H     H_    0.331305 0.567621 0.730349 0.225500
N1    N     N_2   0.517056 0.551526 0.982736 -0.045417
N2    N     N_2   0.412016 0.544820 0.013581 -0.041765
N3    N     N_R   0.515300 0.716920 0.509720 -0.146695
N4    N     N_R   0.484700 0.283080 0.490280 -0.154449
N5    N     N_2   0.547789 0.980388 0.517789 -0.143065
N6    N     N_2   0.472792 0.019696 0.475577 -0.141341
O1    O     O_R   0.494530 0.422540 0.612660 -0.641052
O2    O     O_R   0.505470 0.577460 0.387340 -0.657093
O3    O     O_R   0.504350 0.561840 0.618900 -0.536159
O4    O     O_R   0.495650 0.438160 0.381100 -0.551558
O5    O     O_R   0.678330 0.430350 0.496870 -0.622588
O6    O     O_R   0.321670 0.569650 0.503130 -0.629004
O7    O     O_R   0.688150 0.569660 0.503110 -0.586204
O8    O     O_R   0.311850 0.430340 0.496890 -0.580747
Zn1   Zn    Zn3+2 0.493440 0.406980 0.495830 1.030793
Zn2   Zn    Zn3+2 0.506560 0.593020 0.504170 1.030611
H15   H     H_    0.656369 0.424799 0.760144 0.225282
H16   H     H_    0.524038 0.649032 0.261247 0.202723
H17   H     H_    0.648370 0.879720 0.615243 0.226952
H18   H     H_    0.336634 0.118105 0.396056 0.215465
S1    S     S_3+6 0.658567 0.714548 0.654759 0.053636
O9    O     O_2   0.558774 0.692313 0.714209 -0.271263
O10   O     O_2   0.729571 0.639908 0.635438 -0.292069
O11   O     O_3   0.761646 0.783459 0.698679 -0.546563
H19   H     H_    0.790706 0.756207 0.748679 0.413151
S2    S     S_3+6 0.292158 0.277933 0.367180 0.026361
O12   O     O_2   0.280782 0.369251 0.362627 -0.296980
O13   O     O_2   0.327464 0.247758 0.285975 -0.257038
O14   O     O_3   0.149597 0.234853 0.387599 -0.585263
H20   H     H_    0.094307 0.250161 0.341683 0.407770
S3    S     S_3+6 0.869146 0.508258 0.272744 0.031637
O15   O     O_2   0.796925 0.441643 0.317448 -0.319959
O16   O     O_2   0.824240 0.508293 0.186396 -0.229843
O17   O     O_3   0.023258 0.489332 0.277317 -0.539720
H21   H     H_    0.027825 0.431111 0.260260 0.411806
S4    S     S_3+6 0.049365 0.505865 0.730665 0.038771
O18   O     O_2   0.083790 0.523108 0.817254 -0.236067
O19   O     O_2   0.089406 0.578988 0.680206 -0.281458
O20   O     O_3   0.892427 0.490017 0.721381 -0.551955
H22   H     H_    0.857258 0.538828 0.746580 0.417704
H23   H     H_    0.888642 0.710763 0.494867 0.197286
H24   H     H_    0.163996 0.297405 0.532454 0.217848
S5    S     S_3+6 0.343941 0.374437 0.077207 0.107741
O21   O     O_2   0.451033 0.325256 0.050027 -0.172643
O22   O     O_2   0.261407 0.320571 0.129583 -0.218044
O23   O     O_3   0.259213 0.403442 0.996100 -0.524431
H25   H     H_    0.187174 0.431820 0.017984 0.385161
S6    S     S_3+6 0.321947 0.653397 0.876264 0.148921
O24   O     O_2   0.408322 0.721773 0.908958 -0.170751
O25   O     O_2   0.251679 0.685395 0.804020 -0.220727
O26   O     O_3   0.216923 0.623681 0.945627 -0.483096
H26   H     H_    0.163893 0.671665 0.952167 0.412150
S7    S     S_3+6 0.728437 0.453501 0.925298 0.107211
O27   O     O_2   0.810113 0.528339 0.948268 -0.229700
O28   O     O_2   0.683014 0.411333 0.000288 -0.198737
O29   O     O_3   0.813046 0.388077 0.873038 -0.517354
H27   H     H_    0.894235 0.385578 0.903235 0.406836
S8    S     S_3+6 0.477237 0.709414 0.105275 0.097453
O30   O     O_2   0.576179 0.715195 0.042561 -0.176385
O31   O     O_2   0.352546 0.730496 0.068245 -0.223254
O32   O     O_3   0.516792 0.778253 0.178070 -0.555757
H28   H     H_    0.439605 0.782864 0.209436 0.353384

loop_
_geom_bond_atom_site_label_1
_geom_bond_atom_site_label_2
_ccdc_geom_bond_type
O14   H20   S    
S5    O21   D    
C27   C29   A    
C23   O5    A    
S7    O27   D    
S2    O14   S    
O29   H27   S    
C24   O6    A    
C39   C41   A    
C6    C35   S    
C3    C43   A    
C35   C37   A    
S2    O13   D    
C2    O4    A    
C30   N4    A    
C25   N5    S    
S6    O24   D    
O2    Zn2   S    
C5    C36   S    
O1    Zn1   S    
S8    O30   D    
C15   C17   A    
C9    H14   S    
C42   H2    S    
C26   N6    S    
C32   H8    S    
C33   C35   A    
C7    C17   A    
O6    Zn2   S    
C1    O1    A    
C31   C33   A    
N4    Zn1   S    
O5    Zn1   S    
S3    O16   D    
C28   H18   S    
C34   C36   A    
C40   C42   A    
N1    N2    D    
S5    O22   D    
C30   S2    S    
C3    C24   S    
C16   S8    S    
O23   H25   S    
O20   H22   S    
C32   C42   A    
C29   N3    A    
C15   S7    S    
C10   H13   S    
S2    O12   D    
C4    C6    A    
C31   H7    S    
S1    O10   D    
C4    C23   S    
C19   H4    S    
C4    C44   A    
S4    O20   S    
C27   H17   S    
O4    Zn1   S    
C8    C18   A    
S1    O9    D    
C32   C34   A    
C33   S3    S    
O7    Zn2   S    
C44   H12   S    
C29   S1    S    
C11   S6    S    
S7    O28   D    
O3    Zn2   S    
S3    O17   S    
S4    O19   D    
C9    C11   A    
C10   C12   A    
C22   H5    S    
C43   H11   S    
C5    C44   A    
C20   C22   A    
S5    O23   S    
C40   H10   S    
C6    C43   A    
C13   C15   A    
C14   C16   A    
C37   H23   S    
C24   O8    A    
C7    C9    A    
C21   C25   A    
C18   H16   S    
C31   C41   A    
C19   C21   A    
C1    C7    S    
C16   C18   A    
C2    C8    S    
C34   S4    S    
C12   C14   A    
O8    Zn1   S    
C3    C5    A    
S1    O11   S    
O32   H28   S    
C2    O2    A    
C13   N1    S    
N3    Zn2   S    
C25   C27   A    
C14   N2    S    
C26   C28   A    
S8    O32   S    
C36   C38   A    
C12   S5    S    
C37   C39   A    
O26   H26   S    
C38   C40   A    
C11   C13   A    
C38   H24   S    
C39   H9    S    
S6    O25   D    
C19   N3    A    
C28   C30   A    
O17   H21   S    
C1    O3    A    
S8    O31   D    
S7    O29   S    
C21   H6    S    
C20   N4    A    
S4    O18   D    
C20   H3    S    
N5    N6    D    
C23   O7    A    
C8    C10   A    
O11   H19   S    
C22   C26   A    
C17   H15   S    
C41   H1    S    
S3    O15   D    
S6    O26   S    
