data_mof_unit_42497.cif
_audit_creation_date              2012-12-11T16:24:00-0500
_audit_creation_method            fapswitch 2.2
_symmetry_space_group_name_H-M    P1
_symmetry_Int_Tables_number       1
_space_group_crystal_system       triclinic
_cell_length_a                    14.752804
_cell_length_b                    14.772498
_cell_length_c                    33.268086
_cell_angle_alpha                 96.205864
_cell_angle_beta                  96.288537
_cell_angle_gamma                 61.214461
_cell_volume                      6303.37338482

loop_
_atom_site_label
_atom_site_type_symbol
_atom_type_description
_atom_site_fract_x
_atom_site_fract_y
_atom_site_fract_z
_atom_type_partial_charge
C1    C     C_R   0.390990 0.699472 0.446096 0.547465
C2    C     C_R   0.329550 0.347262 0.308780 0.041524
C3    C     C_R   0.411600 0.264753 0.328367 -0.107846
C4    C     C_R   0.431666 0.273907 0.370122 -0.123906
C5    C     C_R   0.393935 0.253212 0.165885 -0.107757
C6    C     C_R   0.384987 0.234871 0.124023 -0.123212
C7    C     C_R   0.209515 0.377732 0.121860 -0.124909
C8    C     C_R   0.218667 0.395759 0.163760 -0.107563
C9    C     C_R   0.309674 0.331432 0.185849 0.041329
C10   C     C_1   0.314105 0.339808 0.229149 -0.014852
C11   C     C_1   0.319394 0.343818 0.265491 -0.014934
C12   C     C_R   0.405826 0.386279 0.434011 0.540907
C13   C     C_R   0.291248 0.294495 0.101815 0.019837
C14   C     C_R   0.756502 0.372954 0.410171 0.025609
C15   C     C_R   0.790273 0.434331 0.393775 -0.127763
C16   C     C_R   0.819556 0.413584 0.354069 -0.118215
C17   C     C_R   0.815845 0.330959 0.330117 0.035108
C18   C     C_R   0.791632 0.263749 0.347742 -0.119997
C19   C     C_R   0.762099 0.284631 0.387503 -0.125857
C20   C     C_R   0.834760 0.312011 0.204739 0.347369
C21   C     C_R   0.827211 0.321544 0.286238 0.347519
C22   C     C_R   0.835946 0.390440 0.142377 -0.119031
C23   C     C_R   0.700769 0.409912 0.447533 0.555578
C24   C     C_R   0.865978 0.379237 0.103170 -0.123907
C25   C     C_R   0.908580 0.198390 0.098980 -0.129848
C26   C     C_R   0.878425 0.209646 0.138284 -0.119073
C27   C     C_R   0.846606 0.304586 0.160967 0.033771
C28   C     C_R   0.907281 0.281957 0.081890 0.024378
C29   C     C_R   0.370947 0.754164 0.409042 0.022783
C30   C     C_R   0.277015 0.783381 0.385705 -0.127206
C31   C     C_R   0.266894 0.811290 0.346179 -0.118367
C32   C     C_R   0.350396 0.810770 0.329344 0.034736
C33   C     C_R   0.440816 0.791006 0.353927 -0.119007
C34   C     C_R   0.393532 0.701320 0.561284 0.543972
C35   C     C_R   0.451049 0.762850 0.393498 -0.129577
C36   C     C_R   0.343416 0.828813 0.204346 0.348111
C37   C     C_R   0.346251 0.821420 0.285597 0.348260
C38   C     C_R   0.258499 0.832071 0.135155 -0.118324
C39   C     C_R   0.238835 0.862573 0.095616 -0.128086
C40   C     C_R   0.381439 0.902272 0.104999 -0.128581
C41   C     C_R   0.401177 0.871639 0.144603 -0.119325
C42   C     C_R   0.336634 0.841052 0.160605 0.035017
C43   C     C_R   0.296886 0.902715 0.080871 0.023155
C44   C     C_R   0.371456 0.369399 0.585099 0.020002
C45   C     C_R   0.407336 0.388943 0.549014 0.541792
C46   C     C_R   0.285354 0.449105 0.604123 -0.128980
C47   C     C_R   0.266196 0.439727 0.643175 -0.118554
C48   C     C_R   0.332921 0.350576 0.663756 0.033460
C49   C     C_R   0.413242 0.267346 0.643278 -0.114344
C50   C     C_R   0.432261 0.276607 0.604272 -0.122011
C51   C     C_R   0.318638 0.347117 0.788427 0.346386
C52   C     C_R   0.325220 0.347592 0.707300 0.345784
C53   C     C_R   0.218954 0.403151 0.850569 -0.117498
C54   C     C_R   0.207789 0.383781 0.889350 -0.128703
C55   C     C_R   0.386241 0.247694 0.892775 -0.116296
C56   C     C_R   0.702452 0.413282 0.562446 0.572021
C57   C     C_R   0.397334 0.266958 0.854079 -0.106992
C58   C     C_R   0.312386 0.341484 0.831886 0.030099
C59   C     C_R   0.289940 0.302499 0.909939 0.017006
C60   C     C_R   0.754197 0.382986 0.603181 0.001198
C61   C     C_R   0.741861 0.463501 0.632630 -0.145086
C62   C     C_R   0.766169 0.444586 0.673445 -0.114593
C63   C     C_R   0.803581 0.344937 0.685740 0.011738
C64   C     C_R   0.822438 0.262565 0.656937 -0.108075
C65   C     C_R   0.799842 0.279881 0.615377 0.045489
C66   C     C_R   0.914577 0.207753 0.820960 -0.116351
C67   C     C_R   0.369950 0.366141 0.392580 0.020098
C68   C     C_R   0.942085 0.196533 0.862143 -0.148178
C69   C     C_R   0.838791 0.383014 0.875997 0.042989
C70   C     C_R   0.813057 0.392892 0.834133 -0.106090
C71   C     C_R   0.852670 0.305960 0.806819 0.011147
C72   C     C_1   0.834360 0.317822 0.764031 -0.007631
C73   C     C_1   0.820782 0.328609 0.728199 -0.007658
C74   C     C_R   0.908459 0.283549 0.889999 -0.001481
C75   C     C_R   0.376770 0.754405 0.602141 0.021219
C76   C     C_R   0.281886 0.788764 0.619479 -0.117317
C77   C     C_R   0.273118 0.817047 0.660831 -0.114656
C78   C     C_R   0.283042 0.445682 0.372969 -0.124737
C79   C     C_R   0.358777 0.811631 0.685237 0.036849
C80   C     C_R   0.451522 0.783861 0.667892 -0.102696
C81   C     C_R   0.460451 0.755804 0.626488 -0.132481
C82   C     C_R   0.408599 0.870301 0.834958 0.064881
C83   C     C_R   0.383959 0.900608 0.875603 -0.127220
C84   C     C_R   0.226024 0.887274 0.861814 -0.133207
C85   C     C_R   0.248886 0.857942 0.821461 -0.141940
C86   C     C_R   0.337632 0.852442 0.807526 0.018524
C87   C     C_1   0.347823 0.837777 0.764510 0.040758
C88   C     C_1   0.353484 0.826782 0.728370 0.016667
C89   C     C_R   0.263286 0.436333 0.331185 -0.108155
C90   C     C_R   0.291409 0.912438 0.888961 -0.006777
C91   C     C_R   0.963447 0.264300 0.045519 0.556617
C92   C     C_R   0.272735 0.259516 0.060030 0.542306
C93   C     C_R   0.259243 0.959695 0.043774 0.546688
C94   C     C_R   0.961233 0.267902 0.931068 0.574214
C95   C     C_R   0.270892 0.263939 0.945371 0.543410
C96   C     C_R   0.256196 0.964845 0.928976 0.545366
Cr1   Cr    Cr6+3 0.576280 0.580550 0.506370 1.019238
Cr2   Cr    Cr6+3 0.346780 0.572400 0.496520 1.017032
Cr3   Cr    Cr6+3 0.576960 0.347070 0.497150 1.063554
Cr4   Cr    Cr6+3 0.087320 0.083240 0.984860 1.025446
Cr5   Cr    Cr6+3 0.087720 0.316210 0.996740 1.046799
Cr6   Cr    Cr6+3 0.317350 0.090340 0.995890 1.026423
H1    H     H_    0.449291 0.170341 0.109473 0.131979
H2    H     H_    0.737216 0.235428 0.399469 0.134099
H3    H     H_    0.862713 0.445379 0.090519 0.138853
H4    H     H_    0.789300 0.198719 0.330145 0.135437
H5    H     H_    0.939547 0.122551 0.083159 0.133450
H6    H     H_    0.886255 0.142401 0.151676 0.138114
H7    H     H_    0.213473 0.778549 0.397020 0.133703
H8    H     H_    0.524166 0.741478 0.410898 0.131330
H9    H     H_    0.174003 0.860737 0.077523 0.133332
H10   H     H_    0.464828 0.203368 0.182879 0.118878
H11   H     H_    0.195375 0.828255 0.328218 0.137760
H12   H     H_    0.506016 0.791276 0.341934 0.136764
H13   H     H_    0.208791 0.806695 0.146378 0.136561
H14   H     H_    0.428026 0.932177 0.094334 0.132352
H15   H     H_    0.462863 0.878088 0.163349 0.135798
H16   H     H_    0.236680 0.521366 0.589974 0.132764
H17   H     H_    0.498488 0.213377 0.590194 0.147096
H18   H     H_    0.132753 0.427740 0.901944 0.143215
H19   H     H_    0.202898 0.504690 0.658025 0.136808
H20   H     H_    0.464740 0.196762 0.658071 0.143167
H21   H     H_    0.463032 0.195381 0.311122 0.118521
H22   H     H_    0.152480 0.462018 0.834373 0.143587
H23   H     H_    0.451362 0.185461 0.908152 0.149505
H24   H     H_    0.471041 0.219599 0.840801 0.151785
H25   H     H_    0.995380 0.119703 0.871821 0.139680
H26   H     H_    0.945191 0.140059 0.799969 0.122993
H27   H     H_    0.854909 0.184922 0.666987 0.153958
H28   H     H_    0.707364 0.542954 0.624485 0.134939
H29   H     H_    0.499035 0.211307 0.384332 0.131272
H30   H     H_    0.752302 0.508603 0.695591 0.129294
H31   H     H_    0.435463 0.918489 0.896643 0.164569
H32   H     H_    0.518191 0.779599 0.686626 0.136897
H33   H     H_    0.534669 0.729354 0.614121 0.125193
H34   H     H_    0.216088 0.788537 0.601581 0.135712
H35   H     H_    0.194513 0.843929 0.800588 0.121093
H36   H     H_    0.154132 0.895736 0.871144 0.138796
H37   H     H_    0.200911 0.838778 0.674062 0.115487
H38   H     H_    0.153231 0.456707 0.179092 0.118968
H39   H     H_    0.136291 0.424940 0.105630 0.131654
H40   H     H_    0.199426 0.500420 0.316149 0.117613
H41   H     H_    0.788005 0.502207 0.410695 0.132783
N1    N     N_R   0.829098 0.395522 0.228066 -0.228995
N2    N     N_R   0.243815 0.423138 0.727073 -0.230398
N3    N     N_R   0.403386 0.272348 0.728916 -0.224664
N4    N     N_R   0.400003 0.271934 0.768623 -0.221331
N5    N     N_R   0.825064 0.400340 0.267966 -0.228660
N6    N     N_R   0.832611 0.237942 0.262945 -0.229295
N7    N     N_R   0.837068 0.232933 0.222966 -0.229228
N8    N     N_R   0.267144 0.821827 0.220892 -0.229155
N9    N     N_R   0.268720 0.817848 0.260674 -0.228912
N10   N     N_R   0.422877 0.828058 0.269090 -0.229516
N11   N     N_R   0.421115 0.832389 0.229242 -0.229375
N12   N     N_R   0.240244 0.422508 0.766847 -0.229648
O1    O     O_R   0.679450 0.499830 0.463150 -0.519614
O2    O     O_R   0.356040 0.477400 0.534170 -0.504096
O3    O     O_R   0.495910 0.323070 0.537100 -0.510697
O4    O     O_R   0.663920 0.359620 0.542290 -0.458601
O5    O     O_3   0.500010 0.500010 0.500010 -0.249086
O6    O     O_R   0.170070 0.978950 0.027680 -0.518061
O7    O     O_R   0.001760 0.175230 0.026640 -0.501491
O8    O     O_R   0.984760 0.333570 0.037150 -0.507847
O9    O     O_R   0.183410 0.309240 0.041890 -0.503506
O10   O     O_R   0.340240 0.172500 0.045430 -0.518148
O11   O     O_R   0.309670 0.000990 0.032050 -0.500939
O12   O     O_R   0.480650 0.664000 0.464630 -0.501923
O13   O     O_R   0.168330 0.982130 0.939200 -0.518540
O14   O     O_R   0.000140 0.178170 0.944610 -0.507244
O15   O     O_R   0.983010 0.336750 0.948660 -0.474906
O16   O     O_R   0.181800 0.312190 0.959860 -0.504458
O17   O     O_R   0.338500 0.175680 0.956950 -0.512940
O18   O     O_R   0.308050 0.003930 0.950020 -0.498617
O19   O     O_3   0.164130 0.163270 0.992500 -0.248598
O20   O     O_R   0.323930 0.675950 0.455370 -0.517640
O21   O     O_R   0.354700 0.475360 0.451930 -0.502840
O22   O     O_R   0.494470 0.320860 0.448390 -0.519063
O23   O     O_R   0.662580 0.357570 0.460050 -0.491083
O24   O     O_R   0.680900 0.502040 0.551870 -0.525317
O25   O     O_R   0.481990 0.666040 0.546870 -0.504342
O26   O     O_R   0.325370 0.678160 0.544080 -0.516445
H42   H     H_    0.840027 0.465513 0.341554 0.136158
H43   H     H_    0.809513 0.465221 0.158817 0.138741
C97   C     C_2   0.826819 0.188887 0.586025 0.577650
O27   O     O_2   0.850951 0.190006 0.552134 -0.510460
O28   O     O_R   0.828460 0.099940 0.597714 -0.714130
H44   H     H_    0.849087 0.042729 0.575314 0.338060
H45   H     H_    0.762558 0.468407 0.822620 0.165837
C98   C     C_2   0.790217 0.477126 0.903779 0.581533
O29   O     O_2   0.776351 0.470081 0.938633 -0.501553
O30   O     O_R   0.756515 0.574761 0.889551 -0.695848
H46   H     H_    0.723382 0.632957 0.911040 0.348125
C99   C     C_2   0.506623 0.860970 0.822084 0.587357
O31   O     O_2   0.551795 0.901770 0.843294 -0.521829
O32   O     O_R   0.548905 0.804101 0.786273 -0.699725
H47   H     H_    0.615691 0.803506 0.781152 0.342756
H48   H     H_    0.234084 0.517695 0.389400 0.130012

loop_
_geom_bond_atom_site_label_1
_geom_bond_atom_site_label_2
_ccdc_geom_bond_type
C7    C13   A    
C66   C68   A    
C87   C88   T    
C52   N2    A    
C38   H13   S    
Cr3   O4    S    
C41   C42   A    
C20   N1    A    
C55   C59   A    
C34   O25   A    
N1    N5    A    
C40   H14   S    
C18   H4    S    
C76   H34   S    
C36   N11   A    
C7    C8    A    
C31   C32   A    
C85   C86   A    
C25   C28   A    
C51   N12   A    
C33   H12   S    
C22   H43   S    
C59   C95   S    
C38   C42   A    
C56   O4    A    
C54   H18   S    
C94   O14   A    
C5    C6    A    
C16   H42   S    
Cr1   O24   S    
C1    O12   A    
C68   C74   A    
C89   H40   S    
C80   H32   S    
C97   O27   D    
C46   H16   S    
C34   O26   A    
C18   C19   A    
Cr1   O1    S    
C98   O30   S    
C74   C94   S    
C82   C99   S    
C43   C93   S    
C36   C42   S    
C92   O10   A    
C40   C43   A    
C55   H23   S    
C53   C54   A    
C3    H21   S    
C16   C17   A    
C23   O23   A    
C47   C48   A    
N8    N9    A    
C96   O13   A    
C91   O7    A    
C70   C71   A    
C78   H48   S    
C51   N4    A    
C9    C10   S    
C61   C62   A    
C99   O31   D    
C70   H45   S    
C34   C75   S    
C12   O21   A    
C92   O9    A    
C39   H9    S    
C12   O22   A    
C84   H36   S    
Cr6   O11   S    
C23   O1    A    
C91   O8    A    
Cr5   O19   S    
C98   O29   D    
C67   C78   A    
C84   C90   A    
C2    C11   S    
C79   C88   S    
C44   C46   A    
C81   H33   S    
C4    H29   S    
C54   C59   A    
C77   C79   A    
C78   C89   A    
Cr6   O17   S    
C12   C67   S    
C32   C37   S    
C96   O18   A    
C30   H7    S    
O30   H46   S    
C21   N5    A    
C62   H30   S    
Cr5   O8    S    
C45   O2    A    
C76   C77   A    
Cr3   O23   S    
C69   C98   S    
C57   H24   S    
C86   C87   S    
C8    C9    A    
Cr1   O25   S    
C39   C43   A    
O32   H47   S    
C63   C73   S    
C99   O32   S    
C25   C26   A    
Cr1   O12   S    
C17   C21   S    
C50   H17   S    
C60   C61   A    
Cr6   O18   S    
C14   C23   S    
C2    C89   A    
C75   C76   A    
Cr1   O5    S    
C5    C9    A    
C29   C30   A    
C37   N10   A    
Cr2   O21   S    
C19   H2    S    
C66   C71   A    
Cr2   O2    S    
C93   O6    A    
C30   C31   A    
C62   C63   A    
C1    C29   S    
C17   C18   A    
C26   C27   A    
Cr5   O15   S    
C51   C58   S    
C6    H1    S    
C84   C85   A    
C90   C96   S    
C68   H25   S    
Cr4   O6    S    
C35   H8    S    
C61   H28   S    
C15   H41   S    
C40   C41   A    
C5    H10   S    
Cr2   O5    S    
C93   O11   A    
C49   C50   A    
Cr6   O10   S    
C21   N6    A    
C22   C27   A    
C55   C57   A    
C13   C92   S    
Cr4   O19   S    
C56   O24   A    
C22   C24   A    
C37   N9    A    
C26   H6    S    
C3    C4    A    
C85   H35   S    
C7    H39   S    
C44   C45   S    
C25   H5    S    
N3    N4    A    
C95   O17   A    
C44   C50   A    
C83   C90   A    
C46   C47   A    
C1    O20   A    
C52   N3    A    
Cr4   O14   S    
C14   C15   A    
C14   C19   A    
C66   H26   S    
Cr5   O9    S    
C75   C81   A    
C45   O3    A    
C24   C28   A    
C80   C81   A    
C53   H22   S    
C60   C65   A    
C4    C67   A    
C53   C58   A    
C36   N8    A    
Cr3   O22   S    
C20   C27   S    
Cr6   O19   S    
C29   C35   A    
C97   O28   S    
C8    H38   S    
Cr4   O13   S    
C64   C65   A    
Cr2   O26   S    
C2    C3    A    
N10   N11   A    
C71   C72   S    
C82   C86   A    
N6    N7    A    
C32   C33   A    
C6    C13   A    
Cr2   O20   S    
C57   C58   A    
C38   C39   A    
C72   C73   T    
C48   C49   A    
C49   H20   S    
C63   C64   A    
C33   C35   A    
C20   N7    A    
Cr5   O16   S    
C28   C91   S    
C69   C70   A    
C83   H31   S    
C47   H19   S    
C10   C11   T    
C79   C80   A    
N2    N12   A    
C56   C60   S    
C48   C52   S    
C64   H27   S    
C82   C83   A    
Cr3   O3    S    
C69   C74   A    
Cr4   O7    S    
C24   H3    S    
C41   H15   S    
O28   H44   S    
Cr3   O5    S    
C95   O16   A    
C31   H11   S    
C77   H37   S    
C94   O15   A    
C15   C16   A    
C65   C97   S    
