data_mof_unit_55287.cif
_audit_creation_date              2012-10-26T19:17:04-0400
_audit_creation_method            fapswitch 2.2
_symmetry_space_group_name_H-M    P1
_symmetry_Int_Tables_number       1
_space_group_crystal_system       triclinic
_cell_length_a                    15.103119
_cell_length_b                    15.940338
_cell_length_c                    17.084654
_cell_angle_alpha                 94.389294
_cell_angle_beta                  92.366662
_cell_angle_gamma                 91.251944
_cell_volume                      4096.25739343

loop_
_atom_site_label
_atom_site_type_symbol
_atom_type_description
_atom_site_fract_x
_atom_site_fract_y
_atom_site_fract_z
_atom_type_partial_charge
C1    C     C_R   0.499912 0.491328 0.348633 0.534060
C2    C     C_R   0.561082 0.467212 0.860686 0.252061
C3    C     C_R   0.514826 0.485408 0.097462 0.172609
C4    C     C_R   0.529184 0.539134 0.902280 0.149305
C5    C     C_R   0.457454 0.429495 0.130815 0.249165
C6    C     C_R   0.485005 0.600419 0.862323 0.237000
C7    C     C_R   0.452580 0.430177 0.212928 -0.043811
C8    C     C_R   0.464939 0.586897 0.780856 -0.047600
C9    C     C_R   0.446464 0.756301 0.471517 0.061908
C10   C     C_R   0.551528 0.245116 0.532653 0.052408
C11   C     C_R   0.447631 0.845640 0.478373 0.209519
C12   C     C_R   0.496844 0.509166 0.651444 0.587042
C13   C     C_R   0.547103 0.156255 0.533416 0.216551
C14   C     C_R   0.523378 0.890124 0.512166 0.149378
C15   C     C_R   0.489724 0.108858 0.479100 0.148318
C16   C     C_R   0.329469 0.501004 0.500737 0.534575
C17   C     C_R   0.670822 0.498792 0.500755 0.636489
C18   C     C_R   0.589494 0.843948 0.547990 0.183697
C19   C     C_R   0.433309 0.152927 0.430482 0.171496
C20   C     C_R   0.577326 0.755745 0.553550 0.366038
C21   C     C_R   0.426490 0.242607 0.442893 0.388044
C22   C     C_R   0.815513 0.485344 0.573159 0.000940
C23   C     C_R   0.040964 0.487561 0.359032 0.284222
C24   C     C_R   0.183410 0.515217 0.433721 0.000953
C25   C     C_R   0.767535 0.494553 0.501899 0.001074
C26   C     C_R   0.233156 0.503002 0.502854 -0.045896
C27   C     C_R   0.810866 0.492554 0.430551 -0.009348
C28   C     C_R   0.191991 0.491014 0.573619 -0.000799
C29   C     C_R   0.904111 0.487199 0.430775 -0.037998
C30   C     C_R   0.098129 0.491348 0.575384 -0.035058
C31   C     C_R   0.953665 0.491603 0.503222 -0.069639
C32   C     C_R   0.047547 0.495288 0.503516 -0.075472
C33   C     C_R   0.909511 0.489649 0.574917 -0.042442
C34   C     C_R   0.960846 0.492629 0.646365 0.251115
C35   C     C_R   0.090611 0.501608 0.431472 0.007025
C36   C     C_R   0.949064 0.472889 0.360176 0.234324
C37   C     C_R   0.052873 0.485208 0.645998 0.260068
C38   C     C_2   0.767293 0.462351 0.643009 0.258672
C39   C     C_2   0.230022 0.545444 0.366009 0.298335
C40   C     C_3   0.562649 0.114879 0.657377 0.026475
C41   C     C_3   0.626063 0.077305 0.715847 -0.326282
C42   C     C_3   0.320540 0.911588 0.509404 0.040711
C43   C     C_3   0.241558 0.957178 0.476485 -0.339647
C44   C     C_3   0.734886 0.873535 0.531672 0.011533
C45   C     C_R   0.503592 0.490640 0.262043 -0.114666
C46   C     C_3   0.815501 0.924212 0.566427 -0.363020
C47   C     C_3   0.429158 0.104437 0.302281 0.009301
C48   C     C_3   0.372940 0.056687 0.236891 -0.342924
C49   C     C_3   0.624832 0.741870 0.680693 0.006823
C50   C     C_3   0.677670 0.687631 0.734039 -0.353687
C51   C     C_3   0.277922 0.244292 0.397850 0.015108
C52   C     C_3   0.204112 0.307326 0.400519 -0.376001
C53   C     C_2   0.758494 0.497539 0.355753 0.231177
C54   C     C_2   0.249145 0.482957 0.645381 0.240811
C55   C     C_3   0.902829 0.351032 0.291415 0.011756
C56   C     C_R   0.495975 0.513427 0.738760 -0.127884
C57   C     C_3   0.853484 0.314403 0.216741 -0.363462
C58   C     C_3   0.093438 0.394348 0.736697 0.014736
C59   C     C_3   0.146635 0.386443 0.813234 -0.365876
C60   C     C_3   0.057217 0.523428 0.231158 0.042147
C61   C     C_3   0.122786 0.518290 0.165725 -0.373240
C62   C     C_3   0.924355 0.585478 0.746899 0.017736
C63   C     C_3   0.874619 0.594756 0.822611 -0.387155
C64   C     C_2   0.548099 0.363320 0.745304 0.271696
C65   C     C_2   0.607849 0.620293 0.275267 0.264906
C66   C     C_3   0.700633 0.435191 0.899421 0.025111
C67   C     C_R   0.558055 0.550882 0.227536 -0.009727
C68   C     C_3   0.757050 0.370777 0.938084 -0.350197
C69   C     C_3   0.710366 0.556025 0.111242 0.016834
C70   C     C_3   0.777778 0.612109 0.075142 -0.366651
C71   C     C_3   0.325518 0.412450 0.061895 0.020925
C72   C     C_3   0.267309 0.351149 0.008767 -0.350898
C73   C     C_3   0.521321 0.730683 0.919153 0.026382
C74   C     C_3   0.487280 0.805644 0.968499 -0.333285
C75   C     C_2   0.387962 0.372450 0.246212 0.278689
C76   C     C_2   0.405648 0.645862 0.740972 0.257656
C77   C     C_2   0.626632 0.289651 0.577455 0.312792
C78   C     C_R   0.537056 0.450162 0.780860 -0.000381
C79   C     C_2   0.375009 0.712014 0.421706 0.337594
C80   C     C_R   0.567338 0.544353 0.145710 0.262677
Cu1   Cu    Cu3+1 0.495660 0.415220 0.496180 1.049405
Cu2   Cu    Cu3+1 0.504340 0.584780 0.503820 0.993232
H1    H     H_    0.791503 0.412538 0.677477 0.174133
H2    H     H_    0.204742 0.915552 0.430547 0.188473
H3    H     H_    0.196328 0.974997 0.524275 0.078260
H4    H     H_    0.264437 0.015107 0.450407 0.190231
H5    H     H_    0.718300 0.895102 0.472369 0.149680
H6    H     H_    0.752457 0.805904 0.525768 0.155694
H7    H     H_    0.834494 0.903331 0.625230 0.148938
H8    H     H_    0.872029 0.914820 0.527401 0.098242
H9    H     H_    0.800261 0.992214 0.572432 0.192875
H10   H     H_    0.492747 0.071071 0.309456 0.152087
H11   H     H_    0.443220 0.169021 0.284371 0.185608
H12   H     H_    0.291605 0.517822 0.348083 0.049767
H13   H     H_    0.309543 0.089286 0.227390 0.161185
H14   H     H_    0.409185 0.053569 0.181516 0.114642
H15   H     H_    0.358373 0.991629 0.252754 0.184030
H16   H     H_    0.554209 0.739597 0.696816 0.147171
H17   H     H_    0.651263 0.807195 0.693121 0.163737
H18   H     H_    0.745568 0.679855 0.712699 0.177426
H19   H     H_    0.682322 0.717858 0.794854 0.052303
H20   H     H_    0.644445 0.625335 0.735453 0.198192
H21   H     H_    0.267599 0.202420 0.446306 0.129995
H22   H     H_    0.270378 0.207272 0.340106 0.194326
H23   H     H_    0.546616 0.179272 0.681656 0.140796
H24   H     H_    0.214478 0.354571 0.357161 0.174023
H25   H     H_    0.139287 0.274329 0.386145 0.096352
H26   H     H_    0.202198 0.338527 0.460577 0.166478
H27   H     H_    0.778484 0.542052 0.314471 0.114883
H28   H     H_    0.247550 0.530040 0.694555 0.139510
H29   H     H_    0.867781 0.329513 0.342707 0.157059
H30   H     H_    0.971375 0.326508 0.292025 0.149413
H31   H     H_    0.887550 0.333936 0.164428 0.143639
H32   H     H_    0.851624 0.244625 0.215260 0.102277
H33   H     H_    0.784471 0.337127 0.214818 0.187730
H34   H     H_    0.500604 0.075406 0.651345 0.121481
H35   H     H_    0.122078 0.351723 0.690033 0.143704
H36   H     H_    0.023827 0.373616 0.745090 0.164889
H37   H     H_    0.118777 0.427443 0.861181 0.156011
H38   H     H_    0.143799 0.320208 0.829117 0.091912
H39   H     H_    0.216961 0.405499 0.806698 0.179916
H40   H     H_    0.053877 0.590183 0.255292 0.167724
H41   H     H_    0.991789 0.503414 0.203446 0.172310
H42   H     H_    0.124060 0.452765 0.138582 0.140760
H43   H     H_    0.102452 0.560551 0.119821 0.095562
H44   H     H_    0.190425 0.537533 0.189065 0.184531
H45   H     H_    0.595152 0.076160 0.773623 0.096312
H46   H     H_    0.892111 0.625255 0.703614 0.123450
H47   H     H_    0.993895 0.608588 0.759966 0.171130
H48   H     H_    0.906248 0.556791 0.867420 0.155323
H49   H     H_    0.875666 0.661840 0.845636 0.091966
H50   H     H_    0.804678 0.572804 0.811356 0.153004
H51   H     H_    0.497000 0.333932 0.705258 0.109316
H52   H     H_    0.632732 0.612577 0.334436 0.133923
H53   H     H_    0.712498 0.497538 0.932466 0.105486
H54   H     H_    0.722534 0.439021 0.838243 0.169979
H55   H     H_    0.749556 0.308787 0.903791 0.187975
H56   H     H_    0.641711 0.011987 0.694597 0.191431
H57   H     H_    0.827858 0.391478 0.940194 0.083673
H58   H     H_    0.736228 0.363940 0.998886 0.149339
H59   H     H_    0.704726 0.494819 0.075301 0.133405
H60   H     H_    0.735468 0.544762 0.171643 0.137416
H61   H     H_    0.842022 0.579797 0.071039 0.082587
H62   H     H_    0.753955 0.626289 0.015325 0.142386
H63   H     H_    0.787957 0.672093 0.112295 0.177037
H64   H     H_    0.338142 0.469538 0.029813 0.145065
H65   H     H_    0.288592 0.430543 0.115446 0.120721
H66   H     H_    0.253132 0.293473 0.039210 0.179889
H67   H     H_    0.688423 0.115857 0.723324 0.186538
H68   H     H_    0.203665 0.380998 0.993860 0.077198
H69   H     H_    0.301304 0.333554 0.953616 0.165802
H70   H     H_    0.543404 0.753039 0.862759 0.134015
H71   H     H_    0.579228 0.705782 0.951794 0.142301
H72   H     H_    0.465775 0.785529 0.025733 0.180645
H73   H     H_    0.540769 0.854544 0.979541 0.091884
H74   H     H_    0.430244 0.832958 0.937070 0.178531
H75   H     H_    0.356519 0.391674 0.300141 0.128066
H76   H     H_    0.372940 0.626722 0.684609 0.113286
H77   H     H_    0.619259 0.350360 0.607370 0.169490
H78   H     H_    0.355486 0.954700 0.555608 0.121821
H79   H     H_    0.388199 0.656619 0.384524 0.143234
H80   H     H_    0.295273 0.855229 0.537102 0.155261
N1    N     N_2   0.516875 0.479709 0.014430 -0.151199
N2    N     N_2   0.532630 0.547607 0.985498 -0.166174
N3    N     N_R   0.510860 0.712130 0.509560 -0.308582
N4    N     N_R   0.489140 0.287870 0.490440 -0.297965
N5    N     N_2   0.533938 0.980406 0.516419 -0.149826
N6    N     N_2   0.483985 0.018115 0.471285 -0.148235
O1    O     O_R   0.495940 0.420530 0.382500 -0.445898
O2    O     O_2   0.202624 0.605617 0.333149 -0.481610
O3    O     O_3   0.603075 0.116621 0.584353 -0.481624
O4    O     O_3   0.376920 0.888279 0.447718 -0.487999
O5    O     O_3   0.663817 0.886559 0.581872 -0.568031
O6    O     O_3   0.382537 0.107230 0.372299 -0.579462
O7    O     O_3   0.634246 0.712693 0.601008 -0.500606
O8    O     O_3   0.361858 0.286784 0.403914 -0.522262
O9    O     O_2   0.696174 0.448855 0.337992 -0.524443
O10   O     O_2   0.297332 0.422915 0.650169 -0.528556
O11   O     O_3   0.904290 0.439652 0.292182 -0.588586
O12   O     O_R   0.504060 0.579470 0.617500 -0.476432
O13   O     O_3   0.097830 0.478968 0.717452 -0.568364
O14   O     O_3   0.084435 0.469630 0.289572 -0.560806
O15   O     O_3   0.922007 0.499931 0.718460 -0.575037
O16   O     O_2   0.612826 0.322545 0.761831 -0.507990
O17   O     O_2   0.621343 0.688187 0.248726 -0.478282
O18   O     O_3   0.610386 0.410074 0.899949 -0.482591
O19   O     O_3   0.627951 0.596163 0.112742 -0.492353
O20   O     O_3   0.405574 0.373309 0.081747 -0.485501
O21   O     O_3   0.452433 0.669297 0.905209 -0.489764
O22   O     O_2   0.368712 0.303225 0.213580 -0.480654
O23   O     O_R   0.503270 0.563720 0.388950 -0.565735
O24   O     O_2   0.391705 0.716303 0.770354 -0.496727
O25   O     O_2   0.699645 0.258326 0.581045 -0.484204
O26   O     O_2   0.299462 0.737674 0.420867 -0.463982
O27   O     O_R   0.496730 0.436280 0.611050 -0.520669
O28   O     O_R   0.366590 0.428400 0.496760 -0.431137
O29   O     O_R   0.633410 0.571600 0.503240 -0.449574
O30   O     O_R   0.373920 0.571590 0.503210 -0.540260
O31   O     O_R   0.626080 0.428410 0.496790 -0.495257
O32   O     O_2   0.700691 0.498529 0.662844 -0.560020

loop_
_geom_bond_atom_site_label_1
_geom_bond_atom_site_label_2
_ccdc_geom_bond_type
C59   H39   S    
C66   C68   S    
C59   H38   S    
C48   H13   S    
C38   H1    S    
C27   C29   A    
C34   C37   A    
C47   H10   S    
C41   H45   S    
C71   H65   S    
N1    N2    D    
C8    C76   S    
C71   O20   S    
C1    C45   S    
C8    C56   A    
Cu1   Cu2   S    
C57   H33   S    
C46   H7    S    
C15   C19   A    
C48   H15   S    
C29   C36   A    
C76   H76   S    
C70   H61   S    
C79   O26   D    
C61   H42   S    
C76   O24   D    
C42   H80   S    
C7    C45   A    
C19   C21   A    
C24   C26   A    
Cu2   O30   S    
C39   O2    D    
C9    C79   S    
Cu2   O23   S    
C11   C14   A    
C20   O7    S    
C41   H67   S    
C51   H21   S    
C22   C38   S    
C58   H36   S    
C24   C39   S    
C56   C78   A    
C74   H72   S    
C73   C74   S    
C63   H48   S    
C1    O1    A    
C49   C50   S    
C77   O25   D    
C70   H62   S    
C62   O15   S    
C47   C48   S    
C52   H25   S    
C65   C67   S    
C22   C25   A    
C45   C67   A    
Cu1   N4    S    
C4    N2    S    
C17   O29   A    
C61   H44   S    
Cu1   O1    S    
C30   C32   A    
C44   H5    S    
C69   O19   S    
C65   H52   S    
C3    N1    S    
C75   H75   S    
C49   H16   S    
C52   H24   S    
C11   O4    S    
C60   O14   S    
C43   H2    S    
C62   H47   S    
C6    O21   S    
C68   H55   S    
C69   C70   S    
C36   O11   S    
C55   O11   S    
C79   H79   S    
C3    C80   A    
C10   C77   S    
C44   C46   S    
C16   C26   S    
C65   O17   D    
C24   C35   A    
C51   C52   S    
C43   H3    S    
C32   C35   A    
C75   O22   D    
C44   O5    S    
Cu2   O29   S    
C4    C6    A    
N5    N6    D    
C5    C7    A    
C28   C54   S    
C7    C75   S    
C46   H9    S    
C51   H22   S    
C72   H66   S    
C58   H35   S    
C21   N4    A    
C54   O10   D    
C30   C37   A    
C60   C61   S    
C54   H28   S    
C60   H41   S    
C2    C4    A    
C2    O18   S    
C39   H12   S    
C55   C57   S    
C62   C63   S    
C16   O28   A    
Cu1   O27   S    
C31   C32   A    
C10   N4    A    
C72   H69   S    
C37   O13   S    
C31   C33   A    
C33   C34   A    
C47   H11   S    
C74   H74   S    
C34   O15   S    
C70   H63   S    
C57   H31   S    
C63   H50   S    
C60   H40   S    
C9    C11   A    
C41   H56   S    
C12   C56   S    
C42   O4    S    
C23   O14   S    
C66   H54   S    
C1    O23   A    
C40   C41   S    
C12   O12   A    
C77   H77   S    
C50   H20   S    
C63   H49   S    
C13   C15   A    
C73   H70   S    
C12   O27   A    
C38   O32   D    
C15   N6    S    
C68   H58   S    
C42   C43   S    
Cu2   O12   S    
C21   O8    S    
C49   O7    S    
C16   O30   A    
C2    C78   A    
C55   H30   S    
C53   H27   S    
C22   C33   A    
C64   H51   S    
C59   H37   S    
C48   H14   S    
C55   H29   S    
C43   H4    S    
C64   C78   S    
C14   C18   A    
C42   H78   S    
C67   C80   A    
C3    C5    A    
C10   C13   A    
C53   O9    D    
Cu1   O31   S    
C6    C8    A    
C27   C53   S    
C57   H32   S    
C46   H8    S    
C25   C27   A    
C26   C28   A    
C17   C25   S    
C9    N3    A    
C69   H60   S    
C19   O6    S    
C71   C72   S    
C29   C31   A    
C66   O18   S    
Cu1   O28   S    
C62   H46   S    
C49   H17   S    
C40   H34   S    
C72   H68   S    
C28   C30   A    
C80   O19   S    
C74   H73   S    
C17   O31   A    
C18   C20   A    
C51   O8    S    
C23   C35   A    
C58   C59   S    
C50   H18   S    
C47   O6    S    
C66   H53   S    
C64   O16   D    
C18   O5    S    
C13   O3    S    
C71   H64   S    
C52   H26   S    
C50   H19   S    
C23   C36   A    
C73   H71   S    
C68   H57   S    
C61   H43   S    
C5    O20   S    
C14   N5    S    
C44   H6    S    
C58   O13   S    
C69   H59   S    
C40   O3    S    
C73   O21   S    
C40   H23   S    
Cu2   N3    S    
C20   N3    A    
