data_mof_unit_37682.cif
_audit_creation_date              2012-12-10T17:00:47-0500
_audit_creation_method            fapswitch 2.2
_symmetry_space_group_name_H-M    P1
_symmetry_Int_Tables_number       1
_space_group_crystal_system       triclinic
_cell_length_a                    10.86745
_cell_length_b                    10.743725
_cell_length_c                    10.013349
_cell_angle_alpha                 89.826552
_cell_angle_beta                  104.978192
_cell_angle_gamma                 90.117105
_cell_volume                      1129.39942913

loop_
_atom_site_label
_atom_site_type_symbol
_atom_type_description
_atom_site_fract_x
_atom_site_fract_y
_atom_site_fract_z
_atom_type_partial_charge
C1    C     C_R   0.496465 0.262634 0.499042 0.932930
C2    C     C_2   0.124129 0.479031 0.405381 -0.397857
C3    C     C_2   0.063824 0.498688 0.503182 -0.197121
C4    C     C_2   0.879171 0.486930 0.594975 -0.243881
C5    C     C_2   0.936296 0.451843 0.495609 -0.011677
C6    C     C_2   0.485484 0.933097 0.383986 -0.173437
C7    C     C_R   0.871333 0.368402 0.379009 0.187889
C8    C     C_R   0.835848 0.412228 0.241793 -0.108299
C9    C     C_R   0.774062 0.333188 0.134554 -0.138407
C10   C     C_R   0.745454 0.210775 0.163513 -0.135795
C11   C     C_R   0.779009 0.167015 0.299705 -0.137229
C12   C     C_2   0.512367 0.868984 0.502382 -0.336431
C13   C     C_R   0.841273 0.245528 0.407227 -0.154684
C14   C     C_R   0.951498 0.527354 0.736246 0.119248
C15   C     C_R   0.921235 0.639272 0.792968 -0.119217
C16   C     C_R   0.986059 0.673768 0.927361 -0.168096
C17   C     C_R   0.081508 0.597168 0.006221 -0.106393
C18   C     C_R   0.112350 0.485845 0.950870 -0.136683
C19   C     C_R   0.047462 0.450693 0.816728 -0.157576
C20   C     C_2   0.491900 0.067098 0.384796 -0.170391
C21   C     C_2   0.482498 0.131221 0.495670 -0.332211
C22   C     C_2   0.564506 0.579291 0.942700 -0.147016
C23   C     C_2   0.556718 0.584751 0.090513 -0.130902
C24   C     C_R   0.259217 0.499111 0.441172 0.940640
C25   C     C_R   0.502377 0.737360 0.500383 0.927376
C26   C     C_R   0.741033 0.494403 0.558664 0.887306
H1    H     H_    0.437629 0.442757 0.880627 0.162978
H2    H     H_    0.625272 0.646704 0.909907 0.158071
H3    H     H_    0.855724 0.507502 0.218285 0.125044
H4    H     H_    0.747876 0.366980 0.029053 0.148496
H5    H     H_    0.697120 0.149878 0.080452 0.120981
H6    H     H_    0.756655 0.072218 0.322011 0.133887
H7    H     H_    0.866374 0.210672 0.512410 0.114762
H8    H     H_    0.847628 0.699801 0.733205 0.116203
H9    H     H_    0.962164 0.759916 0.970443 0.126638
H10   H     H_    0.131459 0.624019 0.110238 0.142856
H11   H     H_    0.186140 0.426487 0.012180 0.130384
H12   H     H_    0.603342 0.662148 0.152897 0.155514
H13   H     H_    0.071294 0.363384 0.775780 0.132597
H14   H     H_    0.464931 0.423650 0.092407 0.157894
H15   H     H_    0.112505 0.550828 0.594464 0.195175
H16   H     H_    0.080325 0.434946 0.307502 0.161455
H17   H     H_    0.460098 0.887053 0.284071 0.169936
H18   H     H_    0.544802 0.911746 0.603296 0.143903
H19   H     H_    0.504114 0.112908 0.292166 0.174595
H20   H     H_    0.461054 0.088442 0.585221 0.149155
N1    N     N_2   0.501330 0.501330 0.852460 -0.192240
N2    N     N_2   0.501370 0.501360 0.148130 -0.187929
O1    O     O_R   0.499980 0.319060 0.613030 -0.623483
O2    O     O_R   0.500020 0.319100 0.386910 -0.609294
O3    O     O_R   0.317800 0.500000 0.570840 -0.604731
O4    O     O_R   0.317840 0.500040 0.344720 -0.624191
O5    O     O_R   0.499980 0.680900 0.613090 -0.617108
O6    O     O_R   0.500020 0.680940 0.386970 -0.616068
O7    O     O_R   0.682160 0.499960 0.655280 -0.609473
O8    O     O_R   0.682200 0.500000 0.429160 -0.596796
Zn1   Zn    Zn3+2 0.499970 0.499970 0.650990 0.933386
Zn2   Zn    Zn3+2 0.500030 0.500030 0.349010 0.935319

loop_
_geom_bond_atom_site_label_1
_geom_bond_atom_site_label_2
_ccdc_geom_bond_type
C24   O4    A    
C4    C26   S    
C1    C21   S    
O3    Zn1   S    
C17   H10   S    
N1    Zn1   S    
C23   H12   S    
C6    C20   S    
C9    C10   A    
C15   H8    S    
C20   H19   S    
C12   C25   S    
C26   O7    A    
C24   O3    A    
C2    C3    D    
C8    C9    A    
C7    C8    A    
C12   H18   S    
C22   H2    S    
C25   O6    A    
N2    Zn2   S    
C11   C13   A    
C16   C17   A    
O4    Zn2   S    
C9    H4    S    
C2    H16   S    
C8    H3    S    
C19   H13   S    
C6    C12   D    
C18   H11   S    
O8    Zn2   S    
C11   H6    S    
C21   H20   S    
C6    H17   S    
O7    Zn1   S    
C16   H9    S    
C4    C14   S    
C22   N1    D    
C1    O2    A    
C10   C11   A    
C26   O8    A    
C15   C16   A    
O2    Zn2   S    
C23   N2    D    
C7    C13   A    
O1    Zn1   S    
C20   C21   D    
C17   C18   A    
C13   H7    S    
O6    Zn2   S    
H1    N1    S    
C5    C7    S    
H14   N2    S    
C22   C23   S    
C18   C19   A    
O5    Zn1   S    
C2    C24   S    
C14   C15   A    
C1    O1    A    
C14   C19   A    
C3    H15   S    
C25   O5    A    
C4    C5    D    
C3    C5    S    
C10   H5    S    
