data_mof_unit_50755.cif
_audit_creation_date              2012-12-11T15:47:00-0500
_audit_creation_method            fapswitch 2.2
_symmetry_space_group_name_H-M    P1
_symmetry_Int_Tables_number       1
_space_group_crystal_system       triclinic
_cell_length_a                    11.659902
_cell_length_b                    11.667182
_cell_length_c                    19.568028
_cell_angle_alpha                 90.7635
_cell_angle_beta                  89.944125
_cell_angle_gamma                 59.761
_cell_volume                      2299.49171037

loop_
_atom_site_label
_atom_site_type_symbol
_atom_type_description
_atom_site_fract_x
_atom_site_fract_y
_atom_site_fract_z
_atom_type_partial_charge
C1    C     C_R   0.639885 0.116983 0.599316 0.546301
C2    C     C_1   0.652109 0.149575 0.668741 0.003991
C3    C     C_R   0.663303 0.662895 0.194103 0.004645
C4    C     C_R   0.611613 0.747534 0.598772 0.544774
C5    C     C_R   0.550343 0.684287 0.229279 0.002310
C6    C     C_R   0.543919 0.696040 0.298716 0.031442
C7    C     C_R   0.763700 0.666513 0.301714 -0.171725
C8    C     C_R   0.770363 0.653413 0.230900 -0.175808
C9    C     C_3   0.495593 0.593301 0.231371 -0.260379
C10   C     C_3   0.482686 0.612346 0.307379 -0.277980
C11   C     C_R   0.650124 0.684888 0.335786 0.026477
C12   C     C_1   0.640301 0.705379 0.668110 0.004663
C13   C     C_R   0.129083 0.206291 0.193854 0.024388
C14   C     C_R   0.098804 0.311155 0.238881 0.034842
C15   C     C_R   0.139103 0.285075 0.305615 0.000320
C16   C     C_R   0.242037 0.145182 0.598228 0.547362
C17   C     C_R   0.226905 0.051086 0.286578 -0.158380
C18   C     C_R   0.201874 0.074177 0.216202 -0.022996
C19   C     C_3   0.138885 0.415499 0.235203 -0.117970
C20   C     C_3   0.197217 0.373926 0.305202 -0.241854
C21   C     C_R   0.194885 0.158129 0.331912 -0.005364
C22   C     C_R   0.692823 0.199028 0.201267 0.000888
C23   C     C_1   0.126359 0.198712 0.859336 0.001936
C24   C     C_R   0.799960 0.100076 0.236856 0.030755
C25   C     C_R   0.791368 0.079925 0.305061 0.004190
C26   C     C_R   0.571494 0.270923 0.308550 -0.171627
C27   C     C_R   0.579885 0.287766 0.238589 -0.199119
C28   C     C_R   0.645808 0.112858 0.403591 0.542735
C29   C     C_3   0.884914 0.955350 0.220494 -0.101121
C30   C     C_3   0.874399 0.932172 0.296458 -0.103640
C31   C     C_R   0.673416 0.158962 0.340898 0.008823
C32   C     C_R   0.081068 0.231431 0.928646 0.543161
C33   C     C_R   0.684463 0.603039 0.929431 0.542727
C34   C     C_1   0.171944 0.170803 0.727737 -0.031235
C35   C     C_R   0.709113 0.206758 0.930158 0.540222
C36   C     C_R   0.077868 0.239195 0.125815 0.538564
C37   C     C_R   0.683627 0.609415 0.125899 0.537390
C38   C     C_R   0.713609 0.215665 0.129559 0.530650
C39   C     C_R   0.618185 0.736933 0.403802 0.541787
C40   C     C_R   0.251055 0.136887 0.399743 0.548963
C41   C     C_1   0.670767 0.645333 0.860125 0.001402
C42   C     C_1   0.654072 0.684494 0.728484 -0.031092
C43   C     C_1   0.663354 0.666295 0.799755 -0.032220
C44   C     C_3   0.231245 0.413646 0.177620 -0.232999
C45   C     C_1   0.150165 0.182414 0.798971 -0.031922
C46   C     C_3   0.341631 0.278867 0.148475 -0.284262
C47   C     C_3   0.397011 0.299584 0.082075 -0.426927
C48   C     C_3   0.819307 0.901561 0.170451 -0.243533
C49   C     C_3   0.919701 0.802848 0.117795 -0.296268
C50   C     C_3   0.850643 0.794282 0.053243 -0.403872
C51   C     C_3   0.006143 0.876161 0.335146 -0.273598
C52   C     C_3   0.091692 0.727265 0.322817 -0.462308
C53   C     C_3   0.281268 0.963087 0.165145 -0.256425
C54   C     C_3   0.224423 0.872590 0.154087 -0.431497
C55   C     C_1   0.196037 0.161483 0.667425 0.003823
C56   C     C_1   0.679618 0.190665 0.860873 0.000117
C57   C     C_1   0.658193 0.166903 0.729150 -0.031082
C58   C     C_1   0.666236 0.180272 0.800479 -0.032015
Cr1   Cr    Cr6+3 0.404720 0.198220 0.499960 1.019992
Cr2   Cr    Cr6+3 0.698290 0.897110 0.500380 1.018438
Cr3   Cr    Cr6+3 0.396970 0.904720 0.499610 1.022791
Cr4   Cr    Cr6+3 0.926290 0.152010 0.028150 1.001301
Cr5   Cr    Cr6+3 0.921440 0.451830 0.027490 0.987969
Cr6   Cr    Cr6+3 0.626370 0.446880 0.028730 0.993707
H1    H     H_    0.845646 0.662349 0.329529 0.119240
H2    H     H_    0.400013 0.629068 0.204977 0.126109
H3    H     H_    0.378421 0.671970 0.325491 0.138252
H4    H     H_    0.546347 0.520533 0.336296 0.145125
H5    H     H_    0.285366 0.950095 0.304169 0.140593
H6    H     H_    0.052095 0.516114 0.239741 0.110108
H7    H     H_    0.326136 0.318825 0.039854 0.155934
H8    H     H_    0.410458 0.386841 0.086686 0.174484
H9    H     H_    0.492602 0.209123 0.068638 0.145852
H10   H     H_    0.420014 0.226049 0.186501 0.154070
H11   H     H_    0.308772 0.209196 0.134452 0.164191
H12   H     H_    0.307167 0.316030 0.304901 0.152453
H13   H     H_    0.166687 0.472553 0.134910 0.165605
H14   H     H_    0.276411 0.472025 0.196352 0.107083
H15   H     H_    0.762114 0.786894 0.066268 0.162741
H16   H     H_    0.817550 0.884789 0.022432 0.158542
H17   H     H_    0.920659 0.706357 0.021934 0.155261
H18   H     H_    0.991082 0.834147 0.101880 0.156552
H19   H     H_    0.977584 0.703557 0.140918 0.134390
H20   H     H_    0.770941 0.856856 0.198693 0.130070
H21   H     H_    0.735610 0.982128 0.142602 0.161597
H22   H     H_    0.034753 0.678516 0.336749 0.140884
H23   H     H_    0.151558 0.453131 0.345020 0.126830
H24   H     H_    0.123146 0.704906 0.268363 0.139358
H25   H     H_    0.180725 0.686711 0.355602 0.135265
H26   H     H_    0.062217 0.925591 0.319556 0.151344
H27   H     H_    0.984986 0.894796 0.390813 0.180323
H28   H     H_    0.211554 0.835493 0.203730 0.129773
H29   H     H_    0.128413 0.926677 0.127351 0.169989
H30   H     H_    0.292755 0.787368 0.120789 0.140730
H31   H     H_    0.288804 0.001851 0.114819 0.138573
H32   H     H_    0.384581 0.906051 0.182920 0.144689
H33   H     H_    0.481014 0.339034 0.335655 0.128810
H34   H     H_    0.496026 0.366404 0.213220 0.125965
H35   H     H_    0.984736 0.933445 0.204879 0.147414
H36   H     H_    0.817537 0.881787 0.308217 0.160333
H37   H     H_    0.858988 0.633519 0.204314 0.132484
H38   H     H_    0.576341 0.494704 0.215101 0.177202
O1    O     O_R   0.267750 0.231960 0.575440 -0.504445
O2    O     O_R   0.596230 0.579400 0.952760 -0.505706
O3    O     O_R   0.639160 0.321170 0.958690 -0.495057
O4    O     O_R   0.527290 0.186640 0.570530 -0.494798
O5    O     O_R   0.821370 0.124220 0.104400 -0.523701
O6    O     O_R   0.037020 0.167050 0.097880 -0.506290
O7    O     O_R   0.056310 0.349620 0.102920 -0.526411
O8    O     O_R   0.797790 0.564880 0.097980 -0.514352
O9    O     O_R   0.596000 0.584270 0.104310 -0.528850
O10   O     O_R   0.638950 0.325690 0.099180 -0.522617
O11   O     O_3   0.824700 0.350240 0.028120 -0.248080
O12   O     O_R   0.685950 0.784660 0.430010 -0.510334
O13   O     O_R   0.728110 0.003450 0.576380 -0.505985
O14   O     O_R   0.682980 0.789190 0.570500 -0.495068
O15   O     O_R   0.499300 0.771880 0.575540 -0.505776
O16   O     O_R   0.285350 0.030870 0.569740 -0.493505
O17   O     O_R   0.270960 0.227070 0.423890 -0.521425
O18   O     O_R   0.530270 0.182120 0.430040 -0.511174
O19   O     O_R   0.731320 0.998570 0.424830 -0.528478
O20   O     O_R   0.502510 0.767000 0.423980 -0.520600
O21   O     O_R   0.288320 0.026340 0.429250 -0.507280
O22   O     O_3   0.499990 0.000020 0.499980 -0.260216
O23   O     O_R   0.821590 0.119350 0.952850 -0.513255
O24   O     O_R   0.037230 0.162540 0.957390 -0.494461
O25   O     O_R   0.056530 0.344750 0.951370 -0.512753
O26   O     O_R   0.798000 0.560370 0.957490 -0.502231

loop_
_geom_bond_atom_site_label_1
_geom_bond_atom_site_label_2
_ccdc_geom_bond_type
C25   C31   A    
C30   C51   S    
C27   H34   S    
C17   H5    S    
Cr1   O18   S    
C23   C45   T    
C53   H31   S    
C33   O2    A    
Cr2   O12   S    
C19   C20   S    
C50   H15   S    
C2    C57   T    
Cr6   O3    S    
C53   C54   S    
C7    C11   A    
C26   C27   A    
C39   O20   A    
C13   C18   A    
Cr3   O22   S    
C32   O25   A    
C44   H13   S    
C51   H26   S    
C5    C6    A    
Cr6   O10   S    
Cr4   O6    S    
C22   C38   S    
C20   H23   S    
C30   H36   S    
Cr1   O22   S    
C20   H12   S    
C35   O23   A    
C1    C2    S    
C32   O24   A    
C38   O5    A    
Cr2   O22   S    
C9    H2    S    
C54   H29   S    
C12   C42   T    
C18   C53   S    
C51   H27   S    
C24   C29   S    
C9    H38   S    
C4    C12   S    
C9    C10   S    
Cr5   O26   S    
C1    O4    A    
Cr3   O16   S    
C34   C55   T    
C13   C14   A    
C53   H32   S    
C41   C43   T    
C52   H25   S    
C46   H11   S    
C44   C46   S    
C15   C20   S    
Cr1   O4    S    
C54   H30   S    
C29   H35   S    
C29   C48   S    
Cr3   O15   S    
C51   C52   S    
C52   H24   S    
C24   C25   A    
C47   H9    S    
C13   C36   S    
C3    C8    A    
C28   O18   A    
C6    C11   A    
Cr4   O24   S    
C28   O19   A    
Cr6   O9    S    
Cr4   O5    S    
C10   H3    S    
C33   O26   A    
C17   C21   A    
C48   H20   S    
Cr3   O20   S    
C49   H18   S    
Cr5   O7    S    
C54   H28   S    
C29   C30   S    
C35   O3    A    
C16   O16   A    
C7    H1    S    
C16   O1    A    
C39   O12   A    
C17   C18   A    
C34   C45   S    
C11   C39   S    
C47   H7    S    
C37   O8    A    
Cr4   O11   S    
C48   C49   S    
C22   C27   A    
C22   C24   A    
C4    O15   A    
Cr2   O14   S    
C42   C43   S    
C38   O10   A    
C46   H10   S    
C19   C44   S    
C8    H37   S    
C25   C30   S    
Cr6   O2    S    
C40   O21   A    
C46   C47   S    
Cr1   O17   S    
Cr6   O11   S    
C35   C56   S    
C14   C15   A    
C26   C31   A    
C14   C19   S    
C4    O14   A    
C28   C31   S    
C5    C9    S    
C3    C5    A    
C50   H16   S    
C6    C10   S    
Cr4   O23   S    
C10   H4    S    
Cr3   O21   S    
Cr1   O1    S    
C23   C32   S    
C49   H19   S    
Cr5   O8    S    
C52   H22   S    
C16   C55   S    
C33   C41   S    
C57   C58   S    
C21   C40   S    
C44   H14   S    
C56   C58   T    
Cr2   O19   S    
C47   H8    S    
C37   O9    A    
C7    C8    A    
C26   H33   S    
Cr5   O11   S    
C15   C21   A    
C40   O17   A    
C36   O6    A    
C3    C37   S    
C49   C50   S    
C36   O7    A    
C48   H21   S    
Cr2   O13   S    
C1    O13   A    
C19   H6    S    
Cr5   O25   S    
C50   H17   S    
