data_mof_unit_68405.cif
_audit_creation_date              2013-03-05T16:08:39-0500
_audit_creation_method            fapswitch 2.2
_symmetry_space_group_name_H-M    P1
_symmetry_Int_Tables_number       1
_space_group_crystal_system       triclinic
_cell_length_a                    8.374917
_cell_length_b                    15.179444
_cell_length_c                    16.53689
_cell_angle_alpha                 111.220071
_cell_angle_beta                  97.670927
_cell_angle_gamma                 81.571898
_cell_volume                      1931.18501641

loop_
_atom_site_label
_atom_site_type_symbol
_atom_site_description
_atom_site_fract_x
_atom_site_fract_y
_atom_site_fract_z
_atom_type_partial_charge
P1    P     P_3+3 0.592580 0.619750 0.703570 0.566913
O1    O     O_2   0.428380 0.595300 0.716110 -0.313263
O2    O     O_3   0.649320 0.571650 0.606870 -0.352560
O3    O     O_3   0.202060 0.415880 0.655570 -0.381420
O4    O     O_2   0.341757 0.510952 0.808917 -0.405821
O5    O     O_3   0.593423 0.744911 0.746551 -0.681757
O6    O     O_3   0.277682 0.340641 0.789997 -0.521209
C1    C     C_3   0.106526 0.276259 0.854846 -0.862230
H1    H     H_    0.214473 0.274916 0.901538 0.285890
H2    H     H_    0.021559 0.339288 0.884365 0.249622
P2    P     P_3+3 0.156510 0.273300 0.422380 0.494203
P3    P     P_3+3 0.659995 0.239544 0.596791 0.586670
O7    O     O_2   0.338790 0.265210 0.448200 -0.358402
O8    O     O_3   0.612600 0.359140 0.609510 -0.379233
O9    O     O_2   0.511902 0.188254 0.545557 -0.317652
O10   O     O_3   0.135911 0.226238 0.308075 -0.570602
O11   O     O_3   0.670195 0.225509 0.698479 -0.485400
C2    C     C_3   0.656439 0.314043 0.765799 0.907911
H3    H     H_    0.542469 0.356618 0.755083 0.098941
C3    C     C_3   0.660088 0.298757 0.852402 0.400491
H4    H     H_    0.649711 0.368227 0.906269 0.075721
C4    C     C_3   0.730526 0.204059 0.216029 0.157491
H5    H     H_    0.825142 0.245220 0.211642 0.101751
C5    C     C_3   0.637778 0.165065 0.125937 -0.602714
H6    H     H_    0.542170 0.218115 0.114223 0.234838
H7    H     H_    0.722032 0.144812 0.074194 0.245047
H8    H     H_    0.581635 0.100424 0.118596 0.275704
Ba1   Ba    Ba6+2 0.364200 0.465260 0.540900 1.668146
C6    C     C_3   0.475892 0.794212 0.705857 0.961301
H9    H     H_    0.524250 0.799609 0.648764 0.005427
C7    C     C_3   0.431273 0.894763 0.769160 0.175226
H10   H     H_    0.386949 0.889854 0.827735 0.090841
C8    C     C_3   0.183722 0.287475 0.272500 0.140399
H11   H     H_    0.296153 0.316786 0.309138 0.121917
H12   H     H_    0.084744 0.345453 0.274860 0.044278
C9    C     C_3   0.222597 0.232044 0.177997 0.468022
H13   H     H_    0.288542 0.274799 0.155287 -0.120885
P4    P     P_3+3 0.597130 0.380170 0.296420 0.552724
O12   O     O_2   0.761310 0.404660 0.283830 -0.340023
O13   O     O_3   0.540390 0.428270 0.393120 -0.384360
O14   O     O_3   0.987650 0.584040 0.344420 -0.371911
O15   O     O_3   0.624248 0.257680 0.280514 -0.555203
P5    P     P_3+3 0.539218 0.761700 0.398780 0.555272
O16   O     O_3   0.122130 0.620580 0.549200 -0.390029
O17   O     O_3   0.577110 0.640790 0.390470 -0.310938
O18   O     O_2   0.684842 0.809740 0.456288 -0.379601
O19   O     O_3   0.562130 0.775991 0.299782 -0.610314
Ba2   Ba    Ba6+2 0.825630 0.534670 0.459090 1.682754
P6    P     P_3+3 0.206125 0.444886 0.767538 0.442742
C10   C     C_3   0.156428 0.278231 0.769664 0.401148
H14   H     H_    0.048423 0.297823 0.730431 0.061113
H15   H     H_    0.043372 0.213033 0.843854 0.243004
O20   O     O_3   0.067580 0.379340 0.450790 -0.401506
C11   C     C_3   0.023063 0.719098 0.730045 0.374960
H16   H     H_    0.897316 0.699769 0.714402 0.044743
H17   H     H_    0.107784 0.654347 0.702755 0.154305
C12   C     C_3   0.064432 0.754618 0.828723 -0.879628
H18   H     H_    0.058475 0.696140 0.853176 0.188799
H19   H     H_    0.190786 0.773877 0.844397 0.234967
P7    P     P_3+3 0.036224 0.741437 0.583135 0.539160
O21   O     O_2   0.850900 0.734750 0.551740 -0.369727
O22   O     O_3   0.039593 0.790314 0.697032 -0.503158
H20   H     H_    0.775465 0.258067 0.864908 0.076462
C13   C     C_3   0.502352 0.702838 0.225863 1.497501
C14   C     C_3   0.520484 0.724442 0.142339 0.024235
P8    P     P_3+3 0.979830 0.553692 0.232273 0.669256
C15   C     C_3   0.988137 0.734342 0.278324 0.151470
H21   H     H_    0.114222 0.712023 0.298899 0.158220
O23   O     O_2   0.839719 0.491208 0.192114 -0.153603
O24   O     O_3   0.916133 0.659076 0.212027 -0.434408
H22   H     H_    0.921019 0.756102 0.337344 0.124038
C16   C     C_3   0.989898 0.820811 0.249335 0.133953
C17   C     C_2   0.284068 0.460879 0.239173 -0.555205
C18   C     C_R   0.888446 0.525866 0.749036 -0.412863
C19   C     C_2   0.485767 0.401701 0.134058 0.759964
C20   C     C_2   0.450029 0.419027 0.216031 0.094780
C21   C     C_2   0.173446 0.492997 0.186935 0.313739
C22   C     C_3   0.221084 0.492875 0.101454 -0.219806
C23   C     C_3   0.354735 0.412251 0.064849 -0.124763
C24   C     C_2   0.082422 0.494281 0.032547 0.803046
C25   C     C_2   0.108058 0.513464 0.962337 -0.262999
C26   C     C_R   0.825392 0.572566 0.921969 0.390761
C27   C     C_R   0.978440 0.527795 0.896207 -0.062996
C28   C     C_R   0.705897 0.594414 0.862583 -0.325064
C29   C     C_R   0.737086 0.571777 0.775837 0.316531
C30   C     C_R   0.009868 0.504561 0.808571 0.225676
H23   H     H_    0.591142 0.632043 0.885176 0.201649
H24   H     H_    0.247090 0.460066 0.297998 0.157148
H25   H     H_    0.913961 0.509776 0.682450 0.146394
H26   H     H_    0.230893 0.517394 0.952468 0.172143
C31   C     C_R   0.353423 0.826013 0.457424 0.141852
C32   C     C_R   0.289580 0.920374 0.465615 0.084954
C33   C     C_R   0.141367 0.101959 0.463205 -0.025669
C34   C     C_R   0.281504 0.055534 0.418890 -0.133051
C35   C     C_R   0.361566 0.972294 0.428878 -0.047972
C36   C     C_R   0.071905 0.196391 0.469618 0.240925
H27   H     H_    0.469426 0.941257 0.395748 0.159222
C37   C     C_R   0.929023 0.233948 0.511051 -0.470446
C38   C     C_R   0.128975 0.814480 0.534284 0.245962
C39   C     C_R   0.062444 0.906812 0.538683 -0.058019
C40   C     C_R   0.140544 0.959623 0.503013 0.087698
C41   C     C_R   0.915450 0.945742 0.574212 -0.155170
C42   C     C_R   0.839142 0.031290 0.570303 0.797662
C43   C     C_R   0.915410 0.088084 0.538594 -0.204581
C44   C     C_R   0.067263 0.050905 0.502985 0.035808
C45   C     C_R   0.847231 0.180635 0.542543 0.235903
C46   C     C_R   0.272196 0.775948 0.492975 -0.505973
H28   H     H_    0.852305 0.908756 0.602645 0.201845
H29   H     H_    0.877038 0.305236 0.516336 0.172230
C47   C     C_2   0.222083 0.179251 0.715935 1.031394
O25   O     O_2   0.142397 0.112888 0.700958 -0.650440
O26   O     O_R   0.372212 0.162684 0.682651 -0.664660
H30   H     H_    0.400695 0.093144 0.647561 0.384183
F1    F     F_    0.337823 0.749900 0.681718 -0.678563
F2    F     F_    0.306806 0.939932 0.729755 -0.651389
C48   C     C_2   0.571816 0.953274 0.795930 1.024686
O27   O     O_2   0.615981 0.989581 0.873122 -0.551888
O28   O     O_R   0.648409 0.968382 0.732723 -0.767028
H31   H     H_    0.739847 0.010000 0.758857 0.369254
C49   C     C_2   0.076228 0.208974 0.114492 0.885567
O29   O     O_2   0.050732 0.126233 0.075377 -0.527469
O30   O     O_R   0.975762 0.282376 0.095746 -0.780594
H32   H     H_    0.888761 0.257776 0.046902 0.378644
F3    F     F_    0.322622 0.150373 0.174267 -0.676627
C50   C     C_2   0.949997 0.838858 0.874676 1.221683
O31   O     O_2   0.840376 0.827640 0.910638 -0.563872
O32   O     O_R   0.968661 0.930287 0.878375 -0.702029
H33   H     H_    0.065426 0.932124 0.848458 0.339087
F4    F     F_    0.588211 0.616676 0.221267 -0.641747
F5    F     F_    0.341388 0.697230 0.230175 -0.804116
F6    F     F_    0.681566 0.726175 0.135519 -0.660996
C51   C     C_2   0.462763 0.647426 0.060824 0.989618
O33   O     O_2   0.350663 0.665182 0.011598 -0.667214
O34   O     O_R   0.547151 0.556637 0.038575 -0.681743
H34   H     H_    0.507814 0.512858 0.979033 0.312527
C52   C     C_2   0.436982 0.820569 0.144946 1.053108
O35   O     O_2   0.360722 0.870454 0.206166 -0.614634
O36   O     O_R   0.450941 0.853147 0.077397 -0.701719
H35   H     H_    0.391150 0.918627 0.086392 0.353842
F7    F     F_    0.114635 0.870984 0.298656 -0.688217
C53   C     C_2   0.836759 0.887665 0.271074 1.149899
O37   O     O_2   0.747485 0.909263 0.214820 -0.567423
O38   O     O_R   0.801818 0.928683 0.357987 -0.789894
H36   H     H_    0.703987 0.977793 0.366528 0.347684
C54   C     C_2   0.022806 0.794586 0.154639 1.235422
O39   O     O_2   0.049020 0.711809 0.107456 -0.631337
O40   O     O_R   0.029159 0.866960 0.122068 -0.683445
H37   H     H_    0.057324 0.841657 0.059411 0.334039
F8    F     F_    0.634488 0.361435 0.108364 -0.653507
F9    F     F_    0.934277 0.471855 0.038622 -0.641018
C55   C     C_2   0.311501 0.065865 0.337800 1.216411
O41   O     O_2   0.443201 0.084530 0.328133 -0.611603
O42   O     O_R   0.192680 0.041682 0.268361 -0.658890
H38   H     H_    0.231435 0.035096 0.211016 0.404946
F10   F     F_    0.685952 0.052991 0.593840 -0.658412
F11   F     F_    0.784010 0.363544 0.770095 -0.820867
C56   C     C_2   0.335042 0.679347 0.483225 1.165007
O43   O     O_2   0.447986 0.662715 0.531452 -0.571180
O44   O     O_R   0.271898 0.606203 0.415120 -0.794522
H39   H     H_    0.310032 0.544146 0.423786 0.336307
F12   F     F_    0.535274 0.248184 0.851627 -0.633665
C57   C     C_2   0.819180 0.120889 0.238851 1.139448
O45   O     O_2   0.901779 0.060564 0.185581 -0.495608
O46   O     O_R   0.809215 0.109401 0.318144 -0.759544
H40   H     H_    0.735610 0.160194 0.358638 0.321769

loop_
_geom_bond_atom_site_label_1
_geom_bond_atom_site_label_2
_geom_bond_distance
_ccdc_geom_bond_type
P2    C36   1.877671 S    
P4    O13   1.603756 S    
C6    F1    1.363547 S    
C33   C34   1.422814 A    
C41   C42   1.380350 A    
O40   H37   1.013587 S    
C5    H8    1.110120 S    
C19   F8    1.354837 S    
P7    C38   1.885146 S    
C43   C45   1.418569 A    
C54   O39   1.221060 D    
C12   H18   1.110038 S    
P4    C20   1.884218 S    
C21   C22   1.518504 S    
C24   F9    1.359094 S    
C56   O43   1.211973 D    
C18   H25   1.081966 S    
O46   H40   1.009958 S    
C9    F3    1.377127 S    
C5    H7    1.109837 S    
P4    O15   1.765217 S    
C53   O38   1.396456 S    
C12   C50   1.504278 S    
P4    O12   1.534418 D    
C4    C57   1.510915 S    
C22   C24   1.518079 S    
C12   H19   1.111324 S    
P8    O23   1.542654 D    
Ba1   O13   2.862054 S    
C16   C54   1.522661 S    
O2    Ba2   2.862689 S    
C10   C47   1.507012 S    
C8    C9    1.536196 S    
C48   O27   1.222487 D    
C2    C3    1.527286 S    
P7    O22   1.754765 S    
C15   C16   1.554313 S    
C47   O25   1.222211 D    
C43   C44   1.425337 A    
C54   O40   1.397495 S    
O28   H31   1.013959 S    
C46   C56   1.441688 S    
Ba1   Ba2   4.636310 S    
O44   H39   1.003590 S    
C48   O28   1.397232 S    
C1    H1    1.110655 S    
C36   C37   1.400899 A    
P3    O11   1.759588 S    
C4    O15   1.415841 S    
P1    Ba1   3.430543 S    
C55   O41   1.222239 D    
C28   H23   1.081643 S    
O7    Ba1   2.889467 S    
C41   H28   1.077244 S    
C1    H15   1.109394 S    
P4    Ba2   3.431172 S    
P2    O20   1.600278 S    
C33   C44   1.427416 A    
C56   O44   1.374310 S    
C37   H29   1.082469 S    
P1    C29   1.846256 S    
O4    P6    1.547211 D    
C16   C53   1.510442 S    
C7    F2    1.383444 S    
O26   H30   1.013710 S    
C14   F6    1.373509 S    
C49   O30   1.396799 S    
C10   H14   1.109819 S    
C57   O46   1.398486 S    
C40   C44   1.430976 A    
Ba2   O20   2.850188 S    
C11   H17   1.110451 S    
C15   H21   1.108261 S    
C31   C46   1.402743 A    
C5    H6    1.099828 S    
O6    P6    1.757566 S    
C52   O36   1.399174 S    
O19   C13   1.412411 S    
C22   C23   1.536261 S    
C2    H3    1.103195 S    
C11   O22   1.406077 S    
C34   C55   1.462753 S    
Ba1   O16   2.850680 S    
C32   C35   1.391877 A    
P5    C31   1.893914 S    
P1    O5    1.771958 S    
P7    O21   1.575337 D    
P1    O2    1.603756 S    
C19   C20   1.350367 D    
C17   H24   1.064249 S    
C6    H9    1.109023 S    
O10   C8    1.392244 S    
P2    O10   1.756326 S    
C7    H10   1.112641 S    
P3    O9    1.545082 D    
O5    C6    1.397696 S    
C39   C41   1.392279 A    
O11   C2    1.401597 S    
C28   C29   1.400360 A    
P5    O17   1.773819 S    
O34   H34   1.011722 S    
C32   C40   1.420107 A    
C51   O34   1.396760 S    
C25   H26   1.076260 S    
C42   F10   1.350033 S    
P3    O8    1.741290 S    
C33   C36   1.437478 A    
C26   C28   1.397160 A    
C50   O31   1.220823 D    
C17   C20   1.479555 S    
C4    C5    1.536490 S    
O2    Ba1   2.942723 S    
O32   H33   1.012883 S    
C1    C10   1.533353 S    
C7    C48   1.500981 S    
C31   C32   1.417821 A    
C14   C51   1.506122 S    
C2    F11   1.373873 S    
C49   O29   1.222734 D    
C57   O45   1.219068 D    
O17   Ba2   2.815024 S    
O13   Ba2   2.943652 S    
P8    C21   1.851179 S    
C11   H16   1.106786 S    
C9    H13   1.097335 S    
C3    H4    1.107645 S    
P6    C30   1.843602 S    
O6    C10   1.414926 S    
C13   F5    1.375973 S    
C24   C25   1.344825 D    
C25   C27   1.485841 S    
Ba1   O20   2.940611 S    
C35   H27   1.076392 S    
O14   P8    1.736051 S    
C18   C30   1.405259 A    
C38   C46   1.404045 A    
C37   C45   1.399346 A    
C38   C39   1.410021 A    
O3    P6    1.738055 S    
C15   O24   1.410551 S    
C13   C14   1.561048 S    
C3    H20   1.105495 S    
O42   H38   1.009297 S    
C6    C7    1.531580 S    
C53   O37   1.222749 D    
P3    C45   1.856636 S    
P2    O7    1.528668 D    
Ba2   O21   2.889564 S    
P8    O24   1.745130 S    
C19   C23   1.511839 S    
P2    Ba1   3.434932 S    
O16   P7    1.781484 S    
C3    F12   1.380828 S    
P1    O1    1.534038 D    
C39   C40   1.420347 A    
C8    H12   1.110450 S    
O14   Ba2   2.830625 S    
C8    H11   1.107708 S    
C51   O33   1.223651 D    
C15   H22   1.111887 S    
C55   O42   1.393005 S    
C18   C29   1.398715 A    
C34   C35   1.395197 A    
C9    C49   1.498033 S    
P5    O18   1.540333 D    
C47   O26   1.392439 S    
C14   C52   1.511104 S    
O36   H35   1.013788 S    
O16   Ba2   2.939706 S    
C16   F7    1.375745 S    
C27   C30   1.413708 A    
C13   F4    1.378534 S    
C1    H2    1.102306 S    
C26   C27   1.402530 A    
O3    Ba1   2.831325 S    
C42   C43   1.415712 A    
C50   O32   1.397806 S    
C17   C21   1.342033 D    
C4    H5    1.103099 S    
C52   O35   1.217427 D    
O1    Ba1   2.887115 S    
O8    Ba1   2.814335 S    
O30   H32   1.013443 S    
P5    O19   1.765552 S    
O38   H36   1.011229 S    
O12   Ba2   2.887741 S    
C11   C12   1.529872 S    
