data_mof_unit_43571.cif
_audit_creation_date              2012-12-11T16:06:23-0500
_audit_creation_method            fapswitch 2.2
_symmetry_space_group_name_H-M    P1
_symmetry_Int_Tables_number       1
_space_group_crystal_system       triclinic
_cell_length_a                    7.219347
_cell_length_b                    14.377653
_cell_length_c                    15.891028
_cell_angle_alpha                 90.000072
_cell_angle_beta                  90.000095
_cell_angle_gamma                 90.000312
_cell_volume                      1649.44526114

loop_
_atom_site_label
_atom_site_type_symbol
_atom_type_description
_atom_site_fract_x
_atom_site_fract_y
_atom_site_fract_z
_atom_type_partial_charge
O1    O     O_R   0.388780 0.834790 0.412340 -0.527954
O2    O     O_R   0.111220 0.165210 0.912340 -0.527987
O3    O     O_R   0.888780 0.665210 0.587660 -0.527949
O4    O     O_R   0.611220 0.334790 0.087660 -0.527963
O5    O     O_R   0.059040 0.845930 0.587040 -0.545130
O6    O     O_R   0.440960 0.154070 0.087040 -0.545129
O7    O     O_R   0.559040 0.654070 0.412960 -0.545130
O8    O     O_R   0.940960 0.345930 0.912960 -0.545130
C1    C     C_R   0.228074 0.868544 0.614721 0.662598
C2    C     C_R   0.271927 0.131457 0.114722 0.662675
C3    C     C_R   0.728073 0.631456 0.385278 0.662598
C4    C     C_R   0.771928 0.368543 0.885277 0.662629
O9    O     O_R   0.059070 0.845930 0.412970 -0.537907
O10   O     O_R   0.440930 0.154070 0.912970 -0.537916
O11   O     O_R   0.559070 0.654070 0.587030 -0.537905
O12   O     O_R   0.940930 0.345930 0.087030 -0.537908
O13   O     O_R   0.888760 0.665210 0.412340 -0.538217
O14   O     O_R   0.611240 0.334790 0.912340 -0.538214
O15   O     O_R   0.388760 0.834790 0.587660 -0.538215
O16   O     O_R   0.111240 0.165210 0.087660 -0.538207
C5    C     C_R   0.227881 0.868067 0.384782 0.643833
C6    C     C_R   0.272119 0.131937 0.884778 0.643858
C7    C     C_R   0.727880 0.631933 0.615218 0.643838
C8    C     C_R   0.772120 0.368065 0.115220 0.643855
O17   O     O_3   0.222280 0.690700 0.500000 -0.365536
O18   O     O_3   0.277720 0.309300 0.000000 -0.365546
O19   O     O_3   0.722280 0.809300 0.500000 -0.365540
O20   O     O_3   0.777720 0.190700 0.000000 -0.365568
V1    V     V_3+5 0.947430 0.761000 0.500000 1.432156
V2    V     V_3+5 0.552570 0.239000 0.000000 1.432092
V3    V     V_3+5 0.447430 0.739000 0.500000 1.432158
V4    V     V_3+5 0.052570 0.261000 0.000000 1.432098
C9    C     C_3   0.869921 0.596652 0.758194 -0.301698
C10   C     C_3   0.630031 0.403358 0.258183 -0.301689
C11   C     C_3   0.369925 0.903349 0.241807 -0.301707
C12   C     C_3   0.129983 0.096630 0.741826 -0.301703
C13   C     C_3   0.880247 0.526081 0.832050 -0.317631
C14   C     C_3   0.619689 0.473935 0.332035 -0.317588
C15   C     C_3   0.380250 0.973921 0.167951 -0.317617
C16   C     C_3   0.119630 0.026048 0.667978 -0.317540
H1    H     H_    0.831537 0.559912 0.891013 0.158415
H2    H     H_    0.668333 0.440100 0.391009 0.158347
H3    H     H_    0.331545 0.940089 0.108987 0.158438
H4    H     H_    0.168214 0.059890 0.608997 0.158311
C17   C     C_3   0.807138 0.463047 0.655016 -0.106623
C18   C     C_3   0.692914 0.536956 0.155013 -0.106619
C19   C     C_3   0.307137 0.036954 0.344984 -0.106615
C20   C     C_3   0.192963 0.963040 0.844990 -0.106603
C21   C     C_3   0.547023 0.545640 0.727942 -0.346100
C22   C     C_3   0.952966 0.454332 0.227963 -0.346118
C23   C     C_3   0.047024 0.954357 0.272056 -0.346102
C24   C     C_3   0.452955 0.045694 0.772018 -0.346135
C25   C     C_3   0.739927 0.560949 0.686737 0.036124
C26   C     C_3   0.760073 0.439047 0.186739 0.036120
C27   C     C_3   0.239928 0.939051 0.313263 0.036122
C28   C     C_3   0.260071 0.060955 0.813258 0.036115
H5    H     H_    0.493548 0.612310 0.754036 0.147338
H6    H     H_    0.006400 0.387654 0.254057 0.147311
H7    H     H_    0.993552 0.887686 0.245962 0.147332
H8    H     H_    0.506349 0.112380 0.745922 0.147285
C29   C     C_3   0.760456 0.438788 0.813515 0.096199
C30   C     C_3   0.739545 0.561210 0.313516 0.096191
C31   C     C_3   0.260454 0.061212 0.186485 0.096193
C32   C     C_3   0.239549 0.938791 0.686482 0.096187
C33   C     C_3   0.831333 0.394527 0.730546 -0.368652
C34   C     C_3   0.668748 0.605485 0.230540 -0.368638
C35   C     C_3   0.331325 0.105476 0.269454 -0.368659
C36   C     C_3   0.168830 0.894501 0.769467 -0.368638
C37   C     C_3   0.557424 0.471949 0.798644 -0.304292
C38   C     C_3   0.942565 0.528018 0.298670 -0.304296
C39   C     C_3   0.057422 0.028049 0.201356 -0.304284
C40   C     C_3   0.442558 0.972012 0.701308 -0.304300
H9    H     H_    0.695428 0.434472 0.614103 0.098225
H10   H     H_    0.804643 0.565512 0.114100 0.098230
H11   H     H_    0.195427 0.065526 0.385899 0.098226
H12   H     H_    0.304706 0.934503 0.885906 0.098242
H13   H     H_    0.752944 0.329442 0.717415 0.112802
H14   H     H_    0.747208 0.670551 0.217414 0.112811
H15   H     H_    0.252926 0.170559 0.282586 0.112804
H16   H     H_    0.247363 0.829456 0.782588 0.112819
H17   H     H_    0.011642 0.610111 0.733950 0.179105
H18   H     H_    0.488319 0.389909 0.233925 0.179091
H19   H     H_    0.511646 0.889893 0.266052 0.179104
H20   H     H_    0.988277 0.110068 0.766097 0.179077
H21   H     H_    0.468607 0.411638 0.781195 0.150284
H22   H     H_    0.031435 0.588317 0.281239 0.150310
H23   H     H_    0.968603 0.088359 0.218805 0.150287
H24   H     H_    0.531474 0.911727 0.718726 0.150341
H25   H     H_    0.817642 0.664442 0.782289 0.123019
H26   H     H_    0.682278 0.335566 0.282288 0.123014
H27   H     H_    0.317649 0.835559 0.217711 0.123013
H28   H     H_    0.182196 0.164426 0.717714 0.123019
H29   H     H_    0.027277 0.505623 0.842075 0.149011
H30   H     H_    0.472661 0.494416 0.342035 0.149029
H31   H     H_    0.527282 0.994382 0.157928 0.149012
H32   H     H_    0.972606 0.005546 0.658001 0.149050
C41   C     C_2   0.979819 0.465457 0.601303 0.741604
O21   O     O_2   0.126297 0.493009 0.630485 -0.581565
O22   O     O_R   0.971966 0.433811 0.518280 -0.687243
H33   H     H_    0.097350 0.435849 0.489608 0.278770
C42   C     C_2   0.520234 0.534561 0.101298 0.741608
O23   O     O_2   0.373721 0.507066 0.130492 -0.581574
O24   O     O_R   0.528128 0.566153 0.018258 -0.687251
H34   H     H_    0.402744 0.564131 0.989585 0.278772
C43   C     C_2   0.479822 0.034547 0.398694 0.741598
O25   O     O_2   0.626307 0.007008 0.369505 -0.581571
O26   O     O_R   0.471968 0.066185 0.481721 -0.687242
H35   H     H_    0.597359 0.064158 0.510387 0.278766
C44   C     C_2   0.020276 0.965418 0.898700 0.741603
O27   O     O_2   0.873722 0.992839 0.869484 -0.581593
O28   O     O_R   0.028211 0.933887 0.981760 -0.687258
H36   H     H_    0.902816 0.935878 0.010425 0.278771
H37   H     H_    0.978938 0.373860 0.738678 0.152220
H38   H     H_    0.521159 0.626190 0.238657 0.152219
H39   H     H_    0.478928 0.126150 0.261323 0.152224
H40   H     H_    0.021259 0.873756 0.761363 0.152229
H41   H     H_    0.446784 0.521706 0.679754 0.205630
H42   H     H_    0.053240 0.478259 0.179786 0.205628
H43   H     H_    0.946782 0.978289 0.320245 0.205637
H44   H     H_    0.553264 0.021778 0.820185 0.205637
H45   H     H_    0.499818 0.501957 0.857424 0.161222
H46   H     H_    0.000112 0.497996 0.357456 0.161233
H47   H     H_    0.999815 0.998042 0.142576 0.161230
H48   H     H_    0.500054 0.002047 0.642517 0.161250

loop_
_geom_bond_atom_site_label_1
_geom_bond_atom_site_label_2
_ccdc_geom_bond_type
O17   V3    S    
O1    C5    A    
C42   O23   D    
O19   V1    S    
C1    C32   S    
O13   V1    S    
C20   H12   S    
O3    C7    A    
O28   H36   S    
C3    C30   S    
O15   V3    S    
C41   O21   D    
O7    C3    A    
C43   O26   S    
C22   C26   S    
C24   C40   S    
C32   C36   S    
O2    V4    S    
C39   H47   S    
C16   H32   S    
C18   C34   S    
C44   O28   S    
O4    C8    A    
C8    C26   S    
O1    V3    S    
C21   H5    S    
C30   C38   S    
C17   H9    S    
O3    V1    S    
C35   H39   S    
C24   H8    S    
C40   H24   S    
C1    O15   A    
C21   H41   S    
C2    C31   S    
C2    O16   A    
C19   C43   S    
O2    C6    A    
C23   H43   S    
O26   H35   S    
O14   V2    S    
C12   H28   S    
O11   C7    A    
C20   C44   S    
C17   C25   S    
O12   C8    A    
C22   H42   S    
C40   H48   S    
C14   H30   S    
C23   C39   S    
O10   V2    S    
C19   C35   S    
C41   O22   S    
C7    C25   S    
O5    V1    S    
C9    C25   S    
C34   H14   S    
C18   C42   S    
C31   C35   S    
O7    V3    S    
C30   C34   S    
C11   C27   S    
C22   H6    S    
C12   C16   S    
C33   H13   S    
C5    C27   S    
C11   H19   S    
O18   V4    S    
C15   H3    S    
C9    C13   S    
O8    V4    S    
C11   C15   S    
C10   H26   S    
O5    C1    A    
C12   C28   S    
C9    H25   S    
C38   H46   S    
O22   H33   S    
C37   H45   S    
O8    C4    A    
C18   C26   S    
C13   H29   S    
C20   C36   S    
C15   H31   S    
C36   H40   S    
C39   H23   S    
C24   H44   S    
O6    V2    S    
C31   C39   S    
C10   C26   S    
C17   C33   S    
C23   H7    S    
C36   H16   S    
C38   H22   S    
C18   H10   S    
C37   H21   S    
C19   C27   S    
O16   V4    S    
O9    V1    S    
C20   C28   S    
C3    O13   A    
C34   H38   S    
C10   C14   S    
C33   H37   S    
O6    C2    A    
C13   C29   S    
O11   V3    S    
O12   V4    S    
C15   C31   S    
C43   O25   D    
C16   C32   S    
C6    C28   S    
C29   C37   S    
O10   C6    A    
O20   V2    S    
C22   C38   S    
C19   H11   S    
C17   C41   S    
C44   O27   D    
O9    C5    A    
C4    C29   S    
C12   H20   S    
C21   C25   S    
C23   C27   S    
C32   C40   S    
C13   H1    S    
C14   H2    S    
C29   C33   S    
C16   H4    S    
C42   O24   S    
C4    O14   A    
O24   H34   S    
C21   C37   S    
C10   H18   S    
C9    H17   S    
C35   H15   S    
O4    V2    S    
C24   C28   S    
C14   C30   S    
C11   H27   S    
