data_mof_unit_66006.cif
_audit_creation_date              2012-12-10T18:53:56-0500
_audit_creation_method            fapswitch 2.2
_symmetry_space_group_name_H-M    P1
_symmetry_Int_Tables_number       1
_space_group_crystal_system       triclinic
_cell_length_a                    19.450871
_cell_length_b                    19.472681
_cell_length_c                    19.452566
_cell_angle_alpha                 84.996995
_cell_angle_beta                  95.231485
_cell_angle_gamma                 90.141521
_cell_volume                      7309.10913677

loop_
_atom_site_label
_atom_site_type_symbol
_atom_type_description
_atom_site_fract_x
_atom_site_fract_y
_atom_site_fract_z
_atom_type_partial_charge
Br1   Br    Br    0.505038 0.247849 0.360207 -0.507645
Br2   Br    Br    0.080222 0.480954 0.330308 -0.502619
Br3   Br    Br    0.528187 0.337033 0.762042 -0.512142
C1    C     C_R   0.312095 0.493042 0.492969 0.878939
C2    C     C_2   0.478757 0.982050 0.487398 -0.218879
C3    C     C_2   0.518097 0.018309 0.531350 -0.205408
C4    C     C_R   0.688006 0.508049 0.507245 0.789110
C5    C     C_R   0.511548 0.237317 0.512158 -0.069209
C6    C     C_R   0.762900 0.513121 0.507493 -0.001211
C7    C     C_R   0.795084 0.491277 0.451569 -0.192991
C8    C     C_R   0.866246 0.494707 0.451289 -0.136305
C9    C     C_R   0.906568 0.518621 0.507866 0.190958
C10   C     C_R   0.874246 0.542571 0.562768 -0.164459
C11   C     C_R   0.802667 0.539949 0.562616 -0.183650
C12   C     C_R   0.479500 0.906281 0.491157 0.196725
C13   C     C_R   0.130844 0.481503 0.546095 -0.243527
C14   C     C_R   0.202657 0.487892 0.551907 -0.051451
C15   C     C_R   0.199780 0.488542 0.425998 -0.233131
C16   C     C_R   0.509116 0.491610 0.688630 0.840963
C17   C     C_R   0.128326 0.482570 0.420827 0.307055
C18   C     C_R   0.093585 0.479956 0.481062 0.092702
C19   C     C_2   0.982280 0.519285 0.511154 -0.227690
C20   C     C_2   0.018178 0.477384 0.476352 -0.151379
C21   C     C_R   0.237181 0.490894 0.490782 -0.121381
C22   C     C_R   0.486464 0.508663 0.235907 -0.005845
C23   C     C_R   0.453638 0.874051 0.432522 -0.166917
C24   C     C_R   0.509450 0.451513 0.205313 -0.173702
C25   C     C_R   0.506989 0.452430 0.133783 -0.139285
C26   C     C_R   0.483104 0.511464 0.091660 0.191705
C27   C     C_R   0.457894 0.567716 0.122290 -0.165687
C28   C     C_R   0.491274 0.507426 0.311254 0.794788
C29   C     C_R   0.459344 0.566313 0.194128 -0.185966
C30   C     C_R   0.517365 0.545045 0.868840 -0.144180
C31   C     C_R   0.513768 0.547821 0.797041 -0.247613
C32   C     C_R   0.521480 0.422594 0.803356 0.261194
C33   C     C_R   0.526214 0.420322 0.875375 -0.180247
C34   C     C_R   0.456554 0.802593 0.432698 -0.186918
C35   C     C_R   0.522655 0.481134 0.908165 0.139178
C36   C     C_2   0.483653 0.516071 0.015840 -0.216240
C37   C     C_2   0.524652 0.476543 0.983699 -0.205415
C38   C     C_R   0.514540 0.486848 0.763925 -0.059866
C39   C     C_R   0.507834 0.312162 0.507961 0.842379
C40   C     C_R   0.491312 0.688062 0.492016 0.794695
C41   C     C_R   0.485870 0.762779 0.491497 0.002525
C42   C     C_R   0.509786 0.794698 0.550814 -0.196580
C43   C     C_R   0.505890 0.865756 0.551073 -0.143813
C44   C     C_2   0.239113 0.494551 0.621680 0.944038
C45   C     C_R   0.515014 0.130192 0.458523 -0.174074
C46   C     C_R   0.512204 0.201851 0.452125 0.254236
C47   C     C_R   0.514573 0.200581 0.577640 -0.212701
C48   C     C_R   0.518278 0.129041 0.583614 -0.154690
C49   C     C_R   0.517148 0.093637 0.524092 0.133873
H1    H     H_    0.530948 0.764621 0.597392 0.161101
H2    H     H_    0.888977 0.479105 0.406376 0.152853
H3    H     H_    0.528839 0.405757 0.236730 0.190614
H4    H     H_    0.509255 0.597526 0.767207 0.162667
H5    H     H_    0.558643 0.437940 0.012288 0.153852
H6    H     H_    0.438314 0.613259 0.090655 0.135622
H7    H     H_    0.516492 0.592714 0.893567 0.144660
H8    H     H_    0.440871 0.610750 0.216983 0.160782
H9    H     H_    0.449982 0.554096 0.985466 0.156056
H10   H     H_    0.523409 0.406519 0.112289 0.140037
H11   H     H_    0.514641 0.227378 0.624191 0.199344
H12   H     H_    0.520477 0.101230 0.634507 0.153840
H13   H     H_    0.531461 0.370977 0.905814 0.168185
H14   H     H_    0.550729 0.993500 0.574431 0.151050
H15   H     H_    0.432330 0.904293 0.386107 0.138270
H16   H     H_    0.515603 0.103124 0.412245 0.167483
H17   H     H_    0.437320 0.778669 0.386560 0.160694
H18   H     H_    0.446052 0.009203 0.445439 0.159729
H19   H     H_    0.523296 0.887954 0.598539 0.129282
H20   H     H_    0.318532 0.534843 0.679019 0.343075
H21   H     H_    0.765184 0.472069 0.407599 0.170514
H22   H     H_    0.226408 0.490396 0.379294 0.185169
H23   H     H_    0.992697 0.441636 0.442822 0.181311
H24   H     H_    0.904508 0.562078 0.606363 0.139622
H25   H     H_    0.103479 0.479036 0.592367 0.184691
H26   H     H_    0.778627 0.557590 0.606027 0.165169
H27   H     H_    0.009605 0.554126 0.544775 0.160157
O1    O     O_3   0.500000 0.500000 0.500000 -0.506652
O2    O     O_R   0.467830 0.341070 0.546160 -0.630983
O3    O     O_R   0.450560 0.655630 0.450550 -0.642406
O4    O     O_R   0.545840 0.347670 0.467560 -0.602775
O5    O     O_R   0.535760 0.655640 0.535740 -0.647353
O6    O     O_2   0.215673 0.466662 0.673258 -0.610443
O7    O     O_R   0.298845 0.534407 0.628966 -0.814090
O8    O     O_R   0.545870 0.536170 0.656040 -0.649844
O9    O     O_R   0.450550 0.545430 0.340370 -0.649365
O10   O     O_R   0.347960 0.451240 0.536460 -0.616512
O11   O     O_R   0.655630 0.467150 0.467130 -0.642264
O12   O     O_R   0.340780 0.536140 0.450970 -0.638093
O13   O     O_R   0.655640 0.545460 0.545430 -0.645338
O14   O     O_R   0.467850 0.451260 0.656340 -0.591268
O15   O     O_R   0.535740 0.467130 0.347260 -0.630598
Zn1   Zn    Zn3+2 0.558310 0.558310 0.558290 0.981036
Zn2   Zn    Zn3+2 0.446830 0.436990 0.558720 1.046285
Zn3   Zn    Zn3+2 0.558290 0.446420 0.446420 1.010208
Zn4   Zn    Zn3+2 0.436570 0.558290 0.436570 0.992371

loop_
_geom_bond_atom_site_label_1
_geom_bond_atom_site_label_2
_ccdc_geom_bond_type
C22   C28   S    
C35   C37   S    
C31   H4    S    
C13   C18   A    
C47   H11   S    
C34   H17   S    
O1    Zn3   S    
C32   C33   A    
C40   C41   S    
C42   C43   A    
C9    C10   A    
C39   O2    A    
C2    H18   S    
C3    H14   S    
C15   C21   A    
C23   H15   S    
C44   O6    D    
C25   C26   A    
C5    C39   S    
C19   H27   S    
C16   O8    A    
C2    C3    D    
C1    C21   S    
C7    H21   S    
C24   H3    S    
C9    C19   S    
C13   H25   S    
C13   C14   A    
O8    Zn1   S    
C37   H5    S    
O1    Zn2   S    
C6    C7    A    
O11   Zn3   S    
C16   O14   A    
C1    O12   A    
C22   C29   A    
C42   H1    S    
C30   H7    S    
C10   C11   A    
C40   O5    A    
O3    Zn4   S    
C31   C38   A    
C47   C48   A    
C36   H9    S    
C14   C21   A    
C48   H12   S    
Br2   C17   S    
C48   C49   A    
C44   O7    S    
C36   C37   D    
O2    Zn2   S    
C33   H13   S    
C12   C23   A    
O15   Zn3   S    
C4    O11   A    
O13   Zn1   S    
O5    Zn1   S    
C6    C11   A    
C26   C27   A    
C10   H24   S    
Br3   C32   S    
C26   C36   S    
C30   C31   A    
C45   H16   S    
O1    Zn1   S    
C43   H19   S    
C8    H2    S    
C45   C46   A    
O14   Zn2   S    
C18   C20   S    
C29   H8    S    
C5    C47   A    
C41   C42   A    
C1    O10   A    
C4    C6    S    
C28   O9    A    
O1    Zn4   S    
C39   O4    A    
C14   C44   S    
C20   H23   S    
H20   O7    S    
C8    C9    A    
C23   C34   A    
C22   C24   A    
C28   O15   A    
C30   C35   A    
C34   C41   A    
C33   C35   A    
C27   C29   A    
O10   Zn2   S    
C4    O13   A    
C27   H6    S    
C15   C17   A    
C11   H26   S    
O12   Zn4   S    
C32   C38   A    
C2    C12   S    
C7    C8    A    
C45   C49   A    
C17   C18   A    
C15   H22   S    
O4    Zn3   S    
C24   C25   A    
C40   O3    A    
C19   C20   D    
C12   C43   A    
C3    C49   S    
Br1   C46   S    
C5    C46   A    
O9    Zn4   S    
C16   C38   S    
C25   H10   S    
