data_mof_unit_38454.cif
_audit_creation_date              2012-12-10T19:00:48-0500
_audit_creation_method            fapswitch 2.2
_symmetry_space_group_name_H-M    P1
_symmetry_Int_Tables_number       1
_space_group_crystal_system       triclinic
_cell_length_a                    15.050187
_cell_length_b                    10.817538
_cell_length_c                    9.548412
_cell_angle_alpha                 90.118329
_cell_angle_beta                  90.340293
_cell_angle_gamma                 90.461326
_cell_volume                      1554.45719858

loop_
_atom_site_label
_atom_site_type_symbol
_atom_type_description
_atom_site_fract_x
_atom_site_fract_y
_atom_site_fract_z
_atom_type_partial_charge
C1    C     C_R   0.499150 0.262409 0.499723 0.812257
C2    C     C_R   0.907329 0.610039 0.452278 -0.014175
C3    C     C_R   0.954048 0.280138 0.536631 -0.145710
C4    C     C_R   0.046638 0.280716 0.535829 -0.195092
C5    C     C_R   0.093566 0.390680 0.511395 0.128919
C6    C     C_R   0.047264 0.500181 0.480795 0.056836
C7    C     C_R   0.094485 0.610731 0.451454 -0.010175
C8    C     C_R   0.047323 0.711715 0.398539 -0.121119
C9    C     C_R   0.955159 0.711186 0.398381 -0.104831
C10   C     C_R   0.186112 0.392620 0.515439 -0.324433
C11   C     C_R   0.232535 0.503772 0.497699 -0.162952
C12   C     C_R   0.328979 0.499997 0.499589 0.895075
C13   C     C_R   0.187267 0.615433 0.472474 0.381794
C14   C     C_R   0.464674 0.063574 0.614837 0.092014
C15   C     C_R   0.492315 0.129288 0.497156 -0.093365
C16   C     C_R   0.507596 0.064207 0.372072 -0.193390
C17   C     C_R   0.507709 0.935495 0.372317 -0.125346
C18   C     C_R   0.492468 0.870768 0.497602 -0.068155
C19   C     C_R   0.464681 0.936709 0.615097 0.201116
C20   C     C_3   0.490260 0.930681 0.766331 -0.451396
C21   C     C_3   0.491248 0.071384 0.765528 -0.478264
C22   C     C_R   0.541486 0.592791 0.074133 0.252174
C23   C     C_R   0.499009 0.737622 0.499860 0.965751
C24   C     C_R   0.451779 0.415472 0.073780 -0.061570
C25   C     C_R   0.451707 0.415544 0.924889 -0.065173
C26   C     C_R   0.541645 0.592637 0.926833 0.254069
C27   C     C_3   0.637879 0.625914 0.922270 -0.472014
C28   C     C_3   0.637540 0.626799 0.080952 -0.482885
C29   C     C_R   0.671171 0.501861 0.500468 0.995955
C30   C     C_R   0.814978 0.615221 0.474310 0.314378
C31   C     C_R   0.768096 0.504094 0.501334 -0.293327
C32   C     C_R   0.813389 0.392361 0.524120 0.361791
C33   C     C_R   0.906622 0.390105 0.514991 0.015740
C34   C     C_R   0.953505 0.499852 0.482003 -0.039021
Cu1   Cu    Cu3+1 0.500000 0.499980 0.640670 0.994929
Cu2   Cu    Cu3+1 0.500000 0.500020 0.359330 1.000455
H1    H     H_    0.524317 0.887472 0.276420 0.171220
H2    H     H_    0.436231 0.890892 0.831551 0.226896
H3    H     H_    0.556729 0.890301 0.784873 0.184143
H4    H     H_    0.438302 0.112119 0.831381 0.197833
H5    H     H_    0.558672 0.112129 0.780905 0.203477
H6    H     H_    0.414109 0.345581 0.129052 0.138965
H7    H     H_    0.413823 0.345922 0.868582 0.136086
H8    H     H_    0.679564 0.551344 0.877717 0.220717
H9    H     H_    0.649470 0.719148 0.877439 0.222266
H10   H     H_    0.679551 0.553320 0.127462 0.226968
H11   H     H_    0.647859 0.720767 0.125101 0.238570
H12   H     H_    0.919996 0.193400 0.556149 0.204046
H13   H     H_    0.081582 0.195291 0.555984 0.162598
H14   H     H_    0.222401 0.308022 0.534969 0.147639
H15   H     H_    0.080828 0.790477 0.353095 0.212659
H16   H     H_    0.922113 0.789954 0.352992 0.208351
H17   H     H_    0.524124 0.112075 0.276038 0.168459
N1    N     N_R   0.500570 0.500930 0.147930 -0.189479
N2    N     N_R   0.500570 0.500890 0.852020 -0.191690
O1    O     O_R   0.500000 0.319640 0.618810 -0.599966
O2    O     O_R   0.500010 0.319680 0.381230 -0.600843
O3    O     O_R   0.370250 0.499950 0.618800 -0.560743
O4    O     O_R   0.370260 0.499990 0.381220 -0.575807
O5    O     O_R   0.499990 0.680320 0.618770 -0.558068
O6    O     O_R   0.500000 0.680360 0.381190 -0.574134
O7    O     O_R   0.629740 0.500010 0.618780 -0.575789
O8    O     O_R   0.629750 0.500050 0.381200 -0.586136
S1    S     S_3+6 0.760566 0.760876 0.489055 -0.030989
O9    O     O_2   0.824866 0.861645 0.531174 -0.295369
O10   O     O_2   0.718295 0.793593 0.351490 -0.331885
O11   O     O_3   0.682259 0.753424 0.612634 -0.579724
H18   H     H_    0.670786 0.840718 0.637228 0.356233
O12   O     O_3   0.765550 0.284270 0.546894 -0.572681
C35   C     C_3   0.757886 0.265093 0.692585 -0.279961
H19   H     H_    0.722234 0.341840 0.744650 0.165050
H20   H     H_    0.823845 0.252731 0.743456 0.159518
H21   H     H_    0.718783 0.179181 0.709861 0.191917
S2    S     S_3+6 0.245585 0.759303 0.487830 -0.032938
O13   O     O_2   0.311202 0.750599 0.606317 -0.327299
O14   O     O_2   0.294162 0.784396 0.353682 -0.322575
O15   O     O_3   0.177888 0.878182 0.523562 -0.545847
H22   H     H_    0.217221 0.952063 0.526050 0.367452

loop_
_geom_bond_atom_site_label_1
_geom_bond_atom_site_label_2
_ccdc_geom_bond_type
C29   O8    A    
C28   H11   S    
C30   S1    S    
C24   H6    S    
C19   C20   S    
Cu2   O4    S    
C26   N2    A    
C25   H7    S    
C7    C8    A    
C22   N1    A    
O15   H22   S    
C28   H10   S    
C26   C27   S    
S2    O14   D    
Cu1   O3    S    
C14   C21   S    
C1    O1    A    
C5    C6    A    
C3    C33   A    
C24   N1    A    
C15   C16   A    
C3    H12   S    
C18   C19   A    
C16   H17   S    
C12   O4    A    
C27   H8    S    
Cu1   Cu2   S    
C16   C17   A    
S2    O15   S    
C35   H19   S    
C1    C15   S    
Cu2   O8    S    
C12   O3    A    
C2    C34   A    
C22   C28   S    
C9    H16   S    
C17   C18   A    
C23   O5    A    
S2    O13   D    
Cu1   N2    S    
C18   C23   S    
S1    O11   S    
C24   C25   A    
Cu2   O2    S    
C20   H3    S    
C8    C9    A    
O11   H18   S    
Cu1   O5    S    
S1    O10   D    
C1    O2    A    
C20   H2    S    
C31   C32   A    
C23   O6    A    
C35   H21   S    
C33   C34   A    
C17   H1    S    
C20   C21   S    
C8    H15   S    
C6    C7    A    
C21   H5    S    
Cu2   O6    S    
C10   H14   S    
C29   O7    A    
Cu1   O1    S    
C14   C19   A    
C25   N2    A    
C4    C5    A    
C11   C12   S    
C32   O12   S    
C4    H13   S    
C2    C30   A    
S1    O9    D    
C5    C10   A    
C29   C31   S    
C32   C33   A    
C11   C13   A    
C27   H9    S    
C30   C31   A    
C21   H4    S    
Cu1   O7    S    
O12   C35   S    
Cu2   N1    S    
C10   C11   A    
C6    C34   A    
C7    C13   A    
C13   S2    S    
C22   C26   A    
C27   C28   S    
C14   C15   A    
C35   H20   S    
C2    C9    A    
C3    C4    A    
