data_mof_unit_39874.cif
_audit_creation_date              2012-12-10T20:31:01-0500
_audit_creation_method            fapswitch 2.2
_symmetry_space_group_name_H-M    P1
_symmetry_Int_Tables_number       1
_space_group_crystal_system       triclinic
_cell_length_a                    14.883234
_cell_length_b                    10.703615
_cell_length_c                    9.922932
_cell_angle_alpha                 89.53772
_cell_angle_beta                  90.684772
_cell_angle_gamma                 90.689235
_cell_volume                      1580.48989262

loop_
_atom_site_label
_atom_site_type_symbol
_atom_type_description
_atom_site_fract_x
_atom_site_fract_y
_atom_site_fract_z
_atom_type_partial_charge
C1    C     C_R   0.503082 0.260049 0.500223 0.861681
C2    C     C_R   0.905007 0.616810 0.471973 0.137637
C3    C     C_R   0.953549 0.282563 0.550458 -0.208597
C4    C     C_R   0.046689 0.283924 0.545963 -0.205649
C5    C     C_R   0.093043 0.395767 0.518880 0.122308
C6    C     C_R   0.046506 0.508040 0.495111 0.017100
C7    C     C_R   0.093336 0.621866 0.468482 0.100745
C8    C     C_R   0.043777 0.731371 0.443394 -0.212234
C9    C     C_R   0.950617 0.728471 0.444770 -0.209314
C10   C     C_R   0.185490 0.396835 0.516566 -0.280804
C11   C     C_R   0.231883 0.508284 0.495253 -0.037985
C12   C     C_R   0.327284 0.501700 0.498990 0.888076
C13   C     C_R   0.188085 0.622207 0.468377 0.121727
C14   C     C_R   0.527629 0.062991 0.620213 0.115635
C15   C     C_R   0.518307 0.128716 0.499494 -0.085621
C16   C     C_R   0.526700 0.065758 0.376783 -0.227622
C17   C     C_R   0.526544 0.936542 0.376601 -0.202712
C18   C     C_R   0.518175 0.871400 0.499145 -0.102382
C19   C     C_R   0.527931 0.935052 0.620617 0.008812
C20   C     C_3   0.473098 0.927387 0.746341 -0.156340
C21   C     C_3   0.473569 0.068831 0.745344 -0.560733
C22   C     C_R   0.425098 0.462746 0.070645 0.252941
C23   C     C_R   0.503208 0.739869 0.499642 0.854095
C24   C     C_R   0.570039 0.548457 0.073852 -0.074466
C25   C     C_R   0.570058 0.550851 0.930327 0.031155
C26   C     C_R   0.424846 0.463699 0.928102 0.206475
C27   C     C_3   0.378790 0.338797 0.923036 -0.185802
C28   C     C_3   0.381180 0.336255 0.077432 -0.292461
C29   C     C_R   0.672658 0.499787 0.500724 0.874093
C30   C     C_R   0.812024 0.613771 0.473245 -0.247515
C31   C     C_R   0.767686 0.501967 0.502217 -0.028985
C32   C     C_R   0.813382 0.392053 0.529821 -0.243364
C33   C     C_R   0.906400 0.392808 0.526577 0.129417
C34   C     C_R   0.952749 0.505968 0.497959 0.072142
H1    H     H_    0.773926 0.697756 0.452330 0.130191
H2    H     H_    0.526248 0.888795 0.280732 0.196386
H3    H     H_    0.405218 0.885705 0.730599 0.182488
H4    H     H_    0.405684 0.108205 0.726705 0.190792
H5    H     H_    0.513310 0.111600 0.829033 0.193928
H6    H     H_    0.626069 0.587867 0.130301 0.186102
H7    H     H_    0.424095 0.268471 0.882031 0.149180
H8    H     H_    0.776339 0.306353 0.551398 0.132477
H9    H     H_    0.427943 0.265024 0.119117 0.115493
H10   H     H_    0.918427 0.195522 0.572070 0.147432
H11   H     H_    0.082554 0.197802 0.564534 0.143653
H12   H     H_    0.221987 0.310671 0.532624 0.122989
H13   H     H_    0.075442 0.820609 0.422786 0.158607
H14   H     H_    0.914176 0.813911 0.424958 0.149034
H15   H     H_    0.526586 0.114961 0.280961 0.170454
N1    N     N_R   0.499390 0.499140 0.142800 -0.152200
N2    N     N_R   0.499390 0.499180 0.857150 -0.172133
O1    O     O_R   0.500010 0.316790 0.614690 -0.619809
O2    O     O_R   0.500000 0.316760 0.385350 -0.631660
O3    O     O_R   0.367850 0.499990 0.614680 -0.627461
O4    O     O_R   0.367840 0.499950 0.385340 -0.568708
O5    O     O_R   0.500000 0.683240 0.614650 -0.638537
O6    O     O_R   0.499990 0.683210 0.385310 -0.617440
O7    O     O_R   0.632160 0.500050 0.614660 -0.640455
O8    O     O_R   0.632150 0.500010 0.385320 -0.620550
Zn1   Zn    Zn3+2 0.500010 0.500020 0.653130 0.939099
Zn2   Zn    Zn3+2 0.499990 0.499980 0.346870 0.971343
C35   C     C_2   0.523310 0.874267 0.865193 0.417344
H16   H     H_    0.594740 0.892858 0.878486 0.062836
O9    O     O_2   0.483398 0.811974 0.949377 -0.597847
C36   C     C_2   0.644915 0.616633 0.863153 0.449575
H17   H     H_    0.633724 0.666606 0.769587 0.103763
O10   O     O_2   0.719850 0.619960 0.914591 -0.597420
C37   C     C_3   0.285828 0.335876 0.850574 -0.340432
C38   C     C_3   0.230893 0.456360 0.856720 -0.750301
H18   H     H_    0.212694 0.479750 0.960882 0.283046
H19   H     H_    0.268045 0.536892 0.812697 0.265062
H20   H     H_    0.167353 0.443486 0.798627 0.235108
H21   H     H_    0.297472 0.314296 0.743260 0.208275
H22   H     H_    0.245032 0.256718 0.890761 0.186090
C39   C     C_2   0.291212 0.330100 0.145916 0.482843
H23   H     H_    0.256562 0.240689 0.154139 0.042216
O11   O     O_2   0.256236 0.422989 0.191396 -0.569426
C40   C     C_3   0.242354 0.741902 0.443169 -0.395961
C41   C     C_3   0.248326 0.821166 0.570108 -0.918195
H24   H     H_    0.180781 0.850844 0.602228 0.265332
H25   H     H_    0.279904 0.766498 0.653233 0.268352
H26   H     H_    0.289880 0.906004 0.550023 0.249734
H27   H     H_    0.311730 0.722470 0.410987 0.221442
H28   H     H_    0.213526 0.796328 0.357808 0.206413

loop_
_geom_bond_atom_site_label_1
_geom_bond_atom_site_label_2
_ccdc_geom_bond_type
C8    C9    A    
C24   C25   A    
C19   C20   S    
C6    C34   A    
C7    C8    A    
O3    Zn1   S    
C26   C27   S    
C30   H1    S    
C14   C21   S    
C28   C39   S    
C30   C31   A    
C3    C33   A    
O7    Zn1   S    
C15   C16   A    
C18   C19   A    
C38   H19   S    
C1    O2    A    
C35   O9    D    
C27   C37   S    
O1    Zn1   S    
O2    Zn2   S    
C40   H27   S    
C21   H4    S    
C29   O8    A    
C16   C17   A    
C36   O10   D    
C10   H12   S    
C1    C15   S    
C17   H2    S    
C22   N1    A    
C2    C34   A    
C22   C28   S    
C17   C18   A    
C4    H11   S    
C24   N1    A    
C3    H10   S    
O8    Zn2   S    
C18   C23   S    
C23   O5    A    
C25   C36   S    
C16   H15   S    
C41   H25   S    
C40   C41   S    
C37   C38   S    
C37   H21   S    
O5    Zn1   S    
C38   H20   S    
C39   H23   S    
C25   N2    A    
C35   H16   S    
C27   H7    S    
C31   C32   A    
C21   H5    S    
C33   C34   A    
C20   C21   S    
C39   O11   D    
C3    C4    A    
C23   O6    A    
C13   C40   S    
C14   C19   A    
C4    C5    A    
C41   H26   S    
C11   C12   S    
O6    Zn2   S    
C6    C7    A    
C28   H9    S    
C2    C30   A    
C32   C33   A    
C8    H13   S    
C5    C10   A    
C29   C31   S    
C26   N2    A    
C20   H3    S    
C11   C13   A    
C5    C6    A    
O4    Zn2   S    
C24   H6    S    
C20   C35   S    
C38   H18   S    
C1    O1    A    
C12   O4    A    
C10   C11   A    
C41   H24   S    
C40   H28   S    
C7    C13   A    
C29   O7    A    
C9    H14   S    
C36   H17   S    
C22   C26   A    
C27   C28   S    
N1    Zn2   S    
C32   H8    S    
C14   C15   A    
N2    Zn1   S    
C2    C9    A    
C37   H22   S    
C12   O3    A    
