data_mof_unit_56999.cif
_audit_creation_date              2012-12-10T19:29:36-0500
_audit_creation_method            fapswitch 2.2
_symmetry_space_group_name_H-M    P1
_symmetry_Int_Tables_number       1
_space_group_crystal_system       triclinic
_cell_length_a                    22.330647
_cell_length_b                    22.282779
_cell_length_c                    14.950555
_cell_angle_alpha                 90.064592
_cell_angle_beta                  90.2014
_cell_angle_gamma                 89.975961
_cell_volume                      7439.17846988

loop_
_atom_site_label
_atom_site_type_symbol
_atom_type_description
_atom_site_fract_x
_atom_site_fract_y
_atom_site_fract_z
_atom_type_partial_charge
C1    C     C_R   0.419088 0.918642 0.499880 0.899152
C2    C     C_1   0.658841 0.833225 0.500373 0.047396
C3    C     C_3   0.067927 0.919205 0.352053 -0.994015
C4    C     C_3   0.634014 0.633416 0.450753 0.073884
C5    C     C_3   0.601001 0.578377 0.486324 -0.308168
C6    C     C_3   0.536520 0.576315 0.452167 -0.992930
C7    C     C_3   0.355004 0.357691 0.510661 0.099549
C8    C     C_3   0.382513 0.410100 0.562283 -0.317749
C9    C     C_3   0.448746 0.417300 0.540322 -1.005424
C10   C     C_3   0.350409 0.648237 0.616813 0.074542
C11   C     C_3   0.385829 0.589681 0.611129 -0.313094
C12   C     C_3   0.445188 0.594528 0.661621 -0.984164
C13   C     C_1   0.664725 0.161081 0.500139 0.047185
C14   C     C_3   0.650944 0.357814 0.418943 0.094603
C15   C     C_3   0.634221 0.404237 0.347977 -0.318643
C16   C     C_3   0.567410 0.418271 0.349502 -0.993764
C17   C     C_1   0.339592 0.834901 0.500147 0.047805
C18   C     C_1   0.832240 0.657834 0.499852 0.044889
C19   C     C_1   0.158843 0.333288 0.499718 0.047426
C20   C     C_1   0.164741 0.661127 0.501102 0.046372
C21   C     C_1   0.839480 0.334952 0.499155 0.046989
C22   C     C_1   0.500036 0.999911 0.189799 0.122334
C23   C     C_1   0.500073 0.999999 0.810204 0.122124
C24   C     C_1   0.999985 0.499939 0.189796 0.122338
C25   C     C_R   0.581230 0.081116 0.500128 0.901747
C26   C     C_1   0.999923 0.499970 0.810203 0.122113
C27   C     C_3   0.518168 0.945498 0.969697 -0.311467
C28   C     C_3   0.482093 0.054312 0.030332 -0.307635
C29   C     C_3   0.556051 0.987845 0.030569 -0.309155
C30   C     C_3   0.444173 0.011924 0.969441 -0.305524
C31   C     C_3   0.943548 0.489907 0.969489 -0.309671
C32   C     C_3   0.056264 0.509875 0.030522 -0.306358
C33   C     C_3   0.979975 0.446148 0.030024 -0.311018
C34   C     C_3   0.019808 0.553670 0.969963 -0.307735
C35   C     C_3   0.705649 0.733525 0.566439 -0.011611
C36   C     C_R   0.580926 0.918608 0.500086 0.899838
C37   C     C_3   0.282342 0.254691 0.432396 -0.044313
C38   C     C_3   0.299282 0.727957 0.453240 -0.012607
C39   C     C_3   0.706365 0.266876 0.547668 -0.044918
C40   C     C_3   0.205717 0.233637 0.565289 -0.011569
C41   C     C_3   0.782281 0.754491 0.433533 -0.044515
C42   C     C_3   0.799171 0.228023 0.451431 -0.013163
C43   C     C_3   0.206421 0.766964 0.549239 -0.045328
C44   C     C_3   0.217710 0.190326 0.486759 0.440318
C45   C     C_3   0.770333 0.797596 0.512125 0.470558
C46   C     C_3   0.775150 0.196925 0.536128 0.441000
C47   C     C_R   0.418505 0.080857 0.499899 0.900667
C48   C     C_3   0.230681 0.797834 0.464527 0.469481
C49   C     C_3   0.717609 0.690183 0.487924 0.440643
C50   C     C_3   0.270336 0.297773 0.510999 0.469986
C51   C     C_3   0.275162 0.696947 0.537945 0.439892
C52   C     C_3   0.730515 0.297830 0.462961 0.469811
C53   C     C_1   0.371910 0.122693 0.499589 -0.176233
C54   C     C_1   0.623207 0.872472 0.500269 -0.171563
C55   C     C_1   0.626370 0.124488 0.500294 -0.173293
C56   C     C_1   0.376066 0.873296 0.499787 -0.171372
C57   C     C_1   0.871859 0.622599 0.499809 -0.174759
C58   C     C_R   0.919071 0.418644 0.499843 0.899231
C59   C     C_1   0.123199 0.372506 0.500057 -0.170709
C60   C     C_1   0.126380 0.624522 0.500605 -0.175211
C61   C     C_1   0.875993 0.373326 0.499464 -0.172782
C62   C     C_3   0.272882 0.244964 0.577040 -0.008945
C63   C     C_3   0.714936 0.743285 0.421604 -0.065190
C64   C     C_3   0.735438 0.236661 0.415613 -0.006884
C65   C     C_3   0.270248 0.758366 0.585406 -0.063167
C66   C     C_3   0.772844 0.744784 0.578190 -0.009368
C67   C     C_3   0.214992 0.243447 0.420451 -0.063986
C68   C     C_3   0.235613 0.736645 0.417301 -0.006170
C69   C     C_R   0.081234 0.581126 0.500163 0.901515
C70   C     C_3   0.770208 0.258285 0.583692 -0.064424
C71   C     C_3   0.285578 0.201693 0.498825 -0.007058
C72   C     C_3   0.702535 0.786519 0.500293 -0.009845
C73   C     C_3   0.710776 0.205492 0.499861 -0.008605
C74   C     C_3   0.294928 0.789218 0.500739 -0.007764
C75   C     C_3   0.785478 0.701507 0.499963 -0.006510
C76   C     C_3   0.202559 0.286632 0.499181 -0.010045
C77   C     C_3   0.210823 0.705538 0.501510 -0.008886
C78   C     C_3   0.794804 0.289251 0.499070 -0.007491
C79   C     C_3   0.463065 0.958471 0.028952 0.607553
C80   C     C_R   0.080919 0.418615 0.500062 0.899894
C81   C     C_3   0.537165 0.041340 0.971074 0.607794
C82   C     C_3   0.964364 0.542611 0.029267 0.607598
C83   C     C_3   0.035443 0.457199 0.970731 0.607206
C84   C     C_3   0.500229 0.000010 0.089567 -0.012890
C85   C     C_3   0.500006 0.999796 0.910445 -0.012307
C86   C     C_3   0.000089 0.499689 0.089553 -0.012028
C87   C     C_3   0.999712 0.500115 0.910445 -0.012345
C88   C     C_3   0.605111 0.117070 0.006025 0.072495
C89   C     C_3   0.584815 0.182609 0.004068 -0.331283
C90   C     C_3   0.615540 0.219271 0.077340 -0.966908
C91   C     C_R   0.918502 0.580842 0.499924 0.900903
C92   C     C_3   0.395358 0.882486 0.994197 0.070401
C93   C     C_3   0.328113 0.895378 0.996139 -0.331780
C94   C     C_3   0.295012 0.860461 0.923286 -0.957224
C95   C     C_3   0.101050 0.379238 0.004648 0.070495
C96   C     C_3   0.168586 0.390318 0.001641 -0.331581
C97   C     C_3   0.201275 0.354741 0.074087 -0.952605
C98   C     C_3   0.899619 0.621290 0.995357 0.072040
C99   C     C_3   0.922761 0.685830 0.998798 -0.336825
C100  C     C_3   0.893773 0.724421 0.926289 -0.956722
C101  C     C_3   0.134052 0.133618 0.449695 0.073019
C102  C     C_1   0.332333 0.157989 0.499177 0.044325
C103  C     C_3   0.100943 0.078817 0.485870 -0.307688
C104  C     C_3   0.036428 0.076748 0.451853 -0.994718
C105  C     C_3   0.855118 0.857334 0.511796 0.099957
C106  C     C_3   0.882720 0.909795 0.563187 -0.317659
C107  C     C_3   0.948961 0.916840 0.541155 -1.005872
C108  C     C_3   0.850383 0.148192 0.614984 0.076326
C109  C     C_3   0.885734 0.089578 0.609735 -0.314421
C110  C     C_3   0.944944 0.094425 0.660619 -0.980589
C111  C     C_3   0.151313 0.858160 0.420723 0.094592
C112  C     C_3   0.134672 0.904879 0.350150 -0.319438
H1    H     H_    0.602173 0.979025 0.055185 0.156829
H2    H     H_    0.597648 0.098351 0.074338 0.124441
H3    H     H_    0.650193 0.254959 0.652633 0.204911
H4    H     H_    0.172904 0.181082 0.664471 0.212267
H5    H     H_    0.120987 0.223146 0.612531 0.171673
H6    H     H_    0.808404 0.800150 0.323016 0.204096
H7    H     H_    0.822210 0.726217 0.319177 0.207220
H8    H     H_    0.843711 0.162660 0.384290 0.213167
H9    H     H_    0.888419 0.212639 0.435668 0.168445
H10   H     H_    0.167087 0.826886 0.632744 0.203510
H11   H     H_    0.150087 0.755042 0.653998 0.201661
H12   H     H_    0.696996 0.707565 0.299329 0.190584
H13   H     H_    0.595586 0.202435 0.937854 0.232942
H14   H     H_    0.638274 0.742299 0.347402 0.173518
H15   H     H_    0.289991 0.282123 0.698445 0.213015
H16   H     H_    0.349664 0.249758 0.650331 0.175488
H17   H     H_    0.269658 0.741415 0.718954 0.190503
H18   H     H_    0.334877 0.769209 0.680618 0.169900
H19   H     H_    0.736748 0.255034 0.282707 0.213754
H20   H     H_    0.670438 0.230487 0.320422 0.174211
H21   H     H_    0.197050 0.207783 0.298124 0.189226
H22   H     H_    0.138334 0.242511 0.346209 0.170355
H23   H     H_    0.790132 0.781899 0.699613 0.214249
H24   H     H_    0.535555 0.184890 0.013657 0.215859
H25   H     H_    0.849667 0.749263 0.651513 0.173583
H26   H     H_    0.769677 0.241133 0.717141 0.191043
H27   H     H_    0.834876 0.269001 0.678823 0.173938
H28   H     H_    0.237381 0.754829 0.284397 0.213609
H29   H     H_    0.170785 0.730904 0.321888 0.175933
H30   H     H_    0.604247 0.201050 0.144335 0.265609
H31   H     H_    0.600095 0.266584 0.073850 0.266215
H32   H     H_    0.664899 0.218341 0.068443 0.267375
H33   H     H_    0.402593 0.833839 0.006370 0.165051
H34   H     H_    0.412942 0.892051 0.925851 0.121425
H35   H     H_    0.309824 0.882633 0.062515 0.236920
H36   H     H_    0.320330 0.944155 0.986058 0.216730
H37   H     H_    0.398193 0.020988 0.944511 0.154666
H38   H     H_    0.311700 0.873482 0.856131 0.272736
H39   H     H_    0.246392 0.870626 0.926682 0.267130
H40   H     H_    0.301411 0.811433 0.932759 0.262454
H41   H     H_    0.092481 0.330775 0.992669 0.165603
H42   H     H_    0.084129 0.389410 0.073218 0.122805
H43   H     H_    0.186072 0.376891 0.935025 0.238010
H44   H     H_    0.177706 0.438896 0.011426 0.216624
H45   H     H_    0.185422 0.368438 0.141448 0.271629
H46   H     H_    0.250117 0.363563 0.069865 0.265718
H47   H     H_    0.193514 0.305877 0.064898 0.265007
H48   H     H_    0.531929 0.900513 0.945281 0.155434
H49   H     H_    0.850515 0.621664 0.007058 0.166351
H50   H     H_    0.906453 0.602704 0.926742 0.124875
H51   H     H_    0.912772 0.705572 0.065420 0.233601
H52   H     H_    0.972087 0.685988 0.989382 0.215681
H53   H     H_    0.904315 0.706233 0.858931 0.267735
H54   H     H_    0.911312 0.770949 0.930822 0.265103
H55   H     H_    0.844415 0.725667 0.935124 0.268247
H56   H     H_    0.133087 0.132093 0.375402 0.149905
H57   H     H_    0.109766 0.174553 0.472600 0.115711
H58   H     H_    0.124504 0.037230 0.464730 0.236139
H59   H     H_    0.468078 0.099114 0.055087 0.152597
H60   H     H_    0.100762 0.080570 0.560188 0.219840
H61   H     H_    0.012112 0.118270 0.471108 0.265582
H62   H     H_    0.013011 0.037698 0.481591 0.273560
H63   H     H_    0.035627 0.072033 0.377888 0.270108
H64   H     H_    0.862213 0.864616 0.439059 0.168605
H65   H     H_    0.878504 0.815356 0.532659 0.129109
H66   H     H_    0.858861 0.951956 0.545448 0.235035
H67   H     H_    0.877674 0.902025 0.636209 0.222063
H68   H     H_    0.973793 0.874910 0.556786 0.271761
H69   H     H_    0.968336 0.953926 0.581413 0.266925
H70   H     H_    0.964698 0.401650 0.054207 0.155570
H71   H     H_    0.954258 0.927645 0.469158 0.271837
H72   H     H_    0.841252 0.158407 0.686415 0.149879
H73   H     H_    0.878728 0.184641 0.586623 0.116795
H74   H     H_    0.858759 0.052543 0.638790 0.232665
H75   H     H_    0.895036 0.078719 0.538519 0.224319
H76   H     H_    0.972932 0.130903 0.632277 0.264650
H77   H     H_    0.969961 0.051568 0.655155 0.267736
H78   H     H_    0.936574 0.103797 0.732484 0.267527
H79   H     H_    0.135603 0.874220 0.487037 0.168256
H80   H     H_    0.128385 0.815178 0.403646 0.129933
H81   H     H_    0.035380 0.597952 0.945418 0.152364
H82   H     H_    0.160262 0.946870 0.362657 0.237895
H83   H     H_    0.146826 0.887659 0.282798 0.221031
H84   H     H_    0.041132 0.877958 0.340103 0.269667
H85   H     H_    0.057139 0.952477 0.299165 0.271728
H86   H     H_    0.055857 0.938684 0.417895 0.275346
H87   H     H_    0.633141 0.632169 0.376449 0.150815
H88   H     H_    0.609616 0.674201 0.473977 0.115856
H89   H     H_    0.624668 0.536934 0.464804 0.236186
H90   H     H_    0.600756 0.579795 0.560657 0.219739
H91   H     H_    0.512087 0.617684 0.471820 0.265796
H92   H     H_    0.897117 0.482830 0.944913 0.156480
H93   H     H_    0.513179 0.537070 0.481448 0.273074
H94   H     H_    0.535789 0.571946 0.378154 0.270755
H95   H     H_    0.362058 0.365128 0.437949 0.168421
H96   H     H_    0.378476 0.315714 0.531317 0.129345
H97   H     H_    0.358589 0.452259 0.544725 0.235004
H98   H     H_    0.377466 0.402180 0.635267 0.221743
H99   H     H_    0.473637 0.375361 0.555691 0.272002
H100  H     H_    0.468054 0.454295 0.580839 0.266993
H101  H     H_    0.454037 0.428324 0.468398 0.271446
H102  H     H_    0.341380 0.658309 0.688321 0.148148
H103  H     H_    0.102543 0.517266 0.055451 0.154425
H104  H     H_    0.378666 0.684790 0.588552 0.116489
H105  H     H_    0.358995 0.552556 0.640221 0.231934
H106  H     H_    0.394937 0.578951 0.539812 0.224551
H107  H     H_    0.473051 0.631067 0.633180 0.263913
H108  H     H_    0.470230 0.551700 0.655861 0.268514
H109  H     H_    0.437029 0.603804 0.733569 0.266559
H110  H     H_    0.634987 0.373954 0.485082 0.168366
H111  H     H_    0.628259 0.314676 0.402011 0.129318
H112  H     H_    0.659596 0.446385 0.360293 0.238287
H113  H     H_    0.646573 0.386850 0.280799 0.221792
H114  H     H_    0.654150 0.115331 0.993997 0.166550
H115  H     H_    0.540815 0.376851 0.337882 0.269156
H116  H     H_    0.556557 0.451247 0.296233 0.271926
H117  H     H_    0.555154 0.438010 0.415095 0.275161
H118  H     H_    0.672783 0.681014 0.665628 0.211952
H119  H     H_    0.620908 0.723113 0.613657 0.169758
H120  H     H_    0.308361 0.300392 0.321866 0.204383
H121  H     H_    0.322318 0.226490 0.318057 0.202744
H122  H     H_    0.343837 0.662487 0.386342 0.213242
H123  H     H_    0.388537 0.712532 0.437592 0.169110
H124  H     H_    0.666977 0.326821 0.631081 0.203527
N1    N     N_1   0.500020 0.000000 0.268010 -0.092325
N2    N     N_3   0.824308 0.763959 0.360615 -0.472394
N3    N     N_3   0.849562 0.208392 0.397117 -0.434112
N4    N     N_3   0.155403 0.786228 0.602491 -0.476104
N5    N     N_3   0.684221 0.745562 0.335558 -0.443771
N6    N     N_3   0.304006 0.244303 0.662814 -0.429260
N7    N     N_3   0.288372 0.773435 0.676411 -0.448879
N8    N     N_3   0.716604 0.223348 0.324354 -0.432810
N9    N     N_3   0.184284 0.245765 0.334392 -0.448968
N10   N     N_3   0.803979 0.744022 0.663972 -0.433364
N11   N     N_3   0.788368 0.273233 0.674707 -0.444617
N12   N     N_1   0.499980 0.000000 0.731990 -0.092411
N13   N     N_3   0.216877 0.723356 0.326012 -0.429196
N14   N     N_1   0.000020 0.500000 0.268010 -0.092409
N15   N     N_1   0.999980 0.500000 0.731990 -0.092414
N16   N     N_3   0.664252 0.723814 0.640087 -0.432588
N17   N     N_3   0.324348 0.264242 0.359479 -0.474239
N18   N     N_3   0.349691 0.708237 0.399030 -0.429602
N19   N     N_3   0.655366 0.286084 0.601007 -0.475079
N20   N     N_3   0.164335 0.223878 0.638946 -0.427517
O1    O     O_R   0.438390 0.938390 0.574460 -0.619791
O2    O     O_R   0.561600 0.061610 0.574480 -0.600520
O3    O     O_R   0.561600 0.938390 0.574480 -0.609355
O4    O     O_R   0.438400 0.061610 0.425520 -0.611508
O5    O     O_R   0.938400 0.438390 0.425520 -0.607724
O6    O     O_R   0.061600 0.561610 0.574480 -0.610047
O7    O     O_R   0.061600 0.438390 0.574480 -0.600347
O8    O     O_R   0.938400 0.561610 0.425520 -0.602186
O9    O     O_3   0.576453 0.084968 0.936190 -0.645132
O10   O     O_3   0.424105 0.914589 0.063938 -0.642281
O11   O     O_3   0.072693 0.411935 0.935272 -0.643286
O12   O     O_R   0.561610 0.061610 0.425540 -0.617255
O13   O     O_3   0.926616 0.587459 0.064724 -0.646069
O14   O     O_3   0.194245 0.131708 0.478839 -0.632946
O15   O     O_3   0.793116 0.855589 0.529085 -0.639638
O16   O     O_3   0.795311 0.141152 0.569467 -0.631094
O17   O     O_3   0.214091 0.852122 0.422705 -0.639258
O18   O     O_3   0.694167 0.631550 0.480067 -0.632605
O19   O     O_3   0.293013 0.355802 0.527991 -0.639758
O20   O     O_3   0.295264 0.641209 0.571477 -0.631943
O21   O     O_3   0.713756 0.352129 0.421329 -0.639476
O22   O     O_R   0.561610 0.938390 0.425540 -0.610019
O23   O     O_R   0.438390 0.061610 0.574460 -0.609055
O24   O     O_R   0.938390 0.438390 0.574460 -0.612315
O25   O     O_R   0.061610 0.561610 0.425540 -0.610288
O26   O     O_R   0.061610 0.438390 0.425540 -0.617279
O27   O     O_R   0.938390 0.561610 0.574460 -0.615926
O28   O     O_R   0.438400 0.938390 0.425520 -0.598415
Zn1   Zn    Zn3+2 0.500000 0.000000 0.599450 0.993015
Zn2   Zn    Zn3+2 0.500000 0.000000 0.400550 0.993677
Zn3   Zn    Zn3+2 1.000000 0.500000 0.599450 0.992926
Zn4   Zn    Zn3+2 1.000000 0.500000 0.400550 0.993393

loop_
_geom_bond_atom_site_label_1
_geom_bond_atom_site_label_2
_ccdc_geom_bond_type
C68   N13   S    
C105  O15   S    
C83   C87   S    
C16   H115  S    
C111  H79   S    
C18   C75   S    
C49   C63   S    
C52   C64   S    
C107  H68   S    
C70   C78   S    
H16   N6    S    
C41   C45   S    
C105  C106  S    
C111  C112  S    
C90   H32   S    
C33   C86   S    
H27   N11   S    
C3    H86   S    
C33   H70   S    
C40   C62   S    
C7    C8    S    
C89   H13   S    
C109  H75   S    
O26   Zn4   S    
C28   C84   S    
H15   N6    S    
C110  H76   S    
C93   C94   S    
C31   C82   S    
C20   C77   S    
C107  H69   S    
O2    Zn1   S    
C5    C6    S    
O23   Zn1   S    
C88   C89   S    
C19   C76   S    
C1    C56   S    
C9    H99   S    
C27   C79   S    
H19   N8    S    
C42   C46   S    
N12   Zn1   S    
H5    N20   S    
C52   C78   S    
C88   O9    S    
C96   H43   S    
C39   N19   S    
C106  C107  S    
H119  N16   S    
C9    H100  S    
C94   H40   S    
C15   C16   S    
C63   N5    S    
C16   H117  S    
C15   H112  S    
C79   O10   S    
H29   N13   S    
C108  C109  S    
C44   C71   S    
C100  H54   S    
C51   C65   S    
C36   O3    A    
C23   N12   T    
O3    Zn1   S    
C35   N16   S    
C6    H93   S    
H25   N10   S    
H26   N11   S    
C18   C57   T    
C32   H103  S    
H20   N8    S    
C4    H87   S    
H10   N4    S    
C95   C96   S    
C47   O23   A    
C8    C9    S    
C38   C68   S    
C105  H64   S    
C50   O19   S    
C35   C49   S    
C103  H58   S    
C46   O16   S    
C64   C73   S    
C49   C75   S    
C103  H60   S    
C101  H57   S    
C20   C60   T    
C57   C91   S    
C43   C48   S    
H122  N18   S    
C12   H107  S    
C21   C61   T    
C90   H31   S    
H121  N17   S    
C70   N11   S    
C47   C53   S    
C22   N1    T    
C92   O10   S    
C48   O17   S    
H6    N2    S    
C58   C61   S    
C111  O17   S    
O6    Zn3   S    
C112  H82   S    
C104  H61   S    
C111  H80   S    
C101  C103  S    
C89   H24   S    
C38   C74   S    
C45   C72   S    
C81   O9    S    
H23   N10   S    
C80   O7    A    
N15   Zn3   S    
C96   H44   S    
H118  N16   S    
N1    Zn2   S    
O1    Zn1   S    
C98   H50   S    
C27   C85   S    
C62   N6    S    
C104  H63   S    
C1    O1    A    
C41   N2    S    
C98   O13   S    
C88   H114  S    
C1    O28   A    
O7    Zn3   S    
C108  H72   S    
O27   Zn3   S    
O8    Zn4   S    
C48   C74   S    
C14   H111  S    
C108  O16   S    
C31   C87   S    
C29   C84   S    
C7    H95   S    
C26   N15   T    
C105  H65   S    
C5    H90   S    
C64   N8    S    
C10   H102  S    
C30   H37   S    
C104  H62   S    
C93   H36   S    
H17   N7    S    
C35   C66   S    
C19   C59   T    
C27   H48   S    
C82   C86   S    
C92   H34   S    
C110  H78   S    
C65   C74   S    
C40   C76   S    
C107  H71   S    
C100  H53   S    
C95   H41   S    
C97   H45   S    
C21   C78   S    
C101  H56   S    
C24   N14   T    
C51   C77   S    
C112  H83   S    
C29   C81   S    
C9    H101  S    
C50   C76   S    
C41   C75   S    
C65   N7    S    
H18   N7    S    
C108  H73   S    
C28   H59   S    
C95   O11   S    
C99   C100  S    
C17   C56   T    
C40   C44   S    
C53   C102  T    
C43   C65   S    
C32   C86   S    
C96   C97   S    
H14   N5    S    
C31   C33   S    
C92   H33   S    
C80   O26   A    
C10   C11   S    
C48   C68   S    
C30   C85   S    
C91   O27   A    
O12   Zn2   S    
C33   C83   S    
C11   H106  S    
C36   O22   A    
C31   H92   S    
C90   H30   S    
C99   H51   S    
C30   C79   S    
C51   O20   S    
C14   O21   S    
C60   C69   S    
C38   N18   S    
C71   C102  S    
C15   H113  S    
C49   O18   S    
C42   C78   S    
C3    C112  S    
C37   N17   S    
O28   Zn2   S    
C82   O13   S    
C58   O5    A    
C2    C54   T    
C17   C74   S    
C50   C62   S    
C58   O24   A    
C8    H98   S    
C94   H38   S    
C41   C63   S    
C8    H97   S    
C89   C90   S    
H22   N9    S    
C97   H47   S    
C106  H67   S    
C103  C104  S    
C98   H49   S    
C34   H81   S    
C44   O14   S    
H11   N4    S    
H4    N20   S    
C2    C72   S    
C68   C77   S    
C45   O15   S    
C32   C83   S    
C29   H1    S    
C16   H116  S    
C106  H66   S    
C25   O2    A    
O22   Zn2   S    
C66   N10   S    
C28   C81   S    
C13   C73   S    
C14   H110  S    
H28   N13   S    
C25   C55   S    
H123  N18   S    
C10   O20   S    
C4    C5    S    
H120  N17   S    
C59   C80   S    
C35   C72   S    
C42   C64   S    
C7    H96   S    
C42   N3    S    
H7    N2    S    
C69   O6    A    
C38   C51   S    
C109  H74   S    
C43   C77   S    
C27   C29   S    
C101  O14   S    
C110  H77   S    
C7    O19   S    
C3    H84   S    
C95   H42   S    
C4    O18   S    
C97   H46   S    
O5    Zn4   S    
C37   C71   S    
C94   H39   S    
O24   Zn3   S    
C6    H91   S    
H9    N3    S    
C11   H105  S    
C25   O12   A    
C5    H89   S    
C37   C50   S    
C67   N9    S    
C46   C70   S    
C10   H104  S    
C79   C84   S    
C100  H55   S    
C26   C87   S    
O25   Zn4   S    
C66   C75   S    
C37   C67   S    
C83   O11   S    
C92   C93   S    
C3    H85   S    
C39   C70   S    
C28   C30   S    
C62   C71   S    
C93   H35   S    
C34   C87   S    
C39   C73   S    
H124  N19   S    
C88   H2    S    
C81   C85   S    
C12   H109  S    
C6    H94   S    
C36   C54   S    
C43   N4    S    
H8    N3    S    
C99   H52   S    
C40   N20   S    
C4    H88   S    
H3    N19   S    
C63   C72   S    
C47   O4    A    
C98   C99   S    
C23   C85   S    
H21   N9    S    
C45   C66   S    
C22   C84   S    
N14   Zn4   S    
C14   C15   S    
C44   C67   S    
C69   O25   A    
C67   C76   S    
C34   C82   S    
H12   N5    S    
C109  C110  S    
C24   C86   S    
C12   H108  S    
C46   C73   S    
O4    Zn2   S    
C91   O8    A    
C39   C52   S    
C11   C12   S    
C32   C34   S    
C52   O21   S    
C13   C55   T    
