data_mof_unit_41273.cif
_audit_creation_date              2012-12-10T18:58:15-0500
_audit_creation_method            fapswitch 2.2
_symmetry_space_group_name_H-M    P1
_symmetry_Int_Tables_number       1
_space_group_crystal_system       triclinic
_cell_length_a                    11.051837
_cell_length_b                    10.853272
_cell_length_c                    9.570214
_cell_angle_alpha                 90.694153
_cell_angle_beta                  102.196997
_cell_angle_gamma                 90.716872
_cell_volume                      1121.80562078

loop_
_atom_site_label
_atom_site_type_symbol
_atom_type_description
_atom_site_fract_x
_atom_site_fract_y
_atom_site_fract_z
_atom_type_partial_charge
C1    C     C_R   0.496970 0.262492 0.498452 0.819387
C2    C     C_R   0.483574 0.129512 0.493621 -0.175936
C3    C     C_R   0.475135 0.062684 0.365137 -0.204004
C4    C     C_R   0.475681 0.934054 0.366357 -0.205458
C5    C     C_R   0.484815 0.871103 0.496052 -0.103791
C6    C     C_R   0.474810 0.938882 0.618040 0.066614
C7    C     C_3   0.552106 0.937676 0.766215 -0.551836
C8    C     C_3   0.552319 0.077288 0.763894 0.219815
C9    C     C_R   0.601963 0.539197 0.098886 0.241473
C10   C     C_R   0.408424 0.442627 0.052541 -0.123239
C11   C     C_R   0.409190 0.440009 0.904470 0.461959
C12   C     C_R   0.263055 0.500596 0.442221 0.886193
C13   C     C_R   0.602422 0.538247 0.952159 0.194782
C14   C     C_3   0.666872 0.659929 0.963383 -0.501424
C15   C     C_3   0.664951 0.662020 0.121824 -0.478603
C16   C     C_R   0.497647 0.737815 0.499880 0.800860
C17   C     C_R   0.736931 0.500793 0.557727 0.847797
C18   C     C_2   0.128449 0.501188 0.409610 -0.348127
C19   C     C_2   0.067027 0.507973 0.515277 -0.105828
C20   C     C_2   0.871511 0.503729 0.589981 -0.338636
C21   C     C_2   0.932692 0.504449 0.483823 -0.160485
C22   C     C_R   0.474411 0.065922 0.616648 0.235721
Cu1   Cu    Cu3+1 0.499990 0.499980 0.640670 1.001652
Cu2   Cu    Cu3+1 0.500010 0.500020 0.359330 0.948836
H1    H     H_    0.883657 0.501417 0.372576 0.175810
H2    H     H_    0.644487 0.121842 0.768401 0.090938
H3    H     H_    0.334250 0.396964 0.090557 0.178038
H4    H     H_    0.761514 0.653486 0.941663 0.199201
H5    H     H_    0.607658 0.729744 0.902296 0.214104
H6    H     H_    0.758758 0.657116 0.191780 0.192421
H7    H     H_    0.604913 0.734824 0.151782 0.208917
H8    H     H_    0.115863 0.515284 0.626312 0.212903
H9    H     H_    0.920904 0.505872 0.701065 0.157151
H10   H     H_    0.079190 0.495134 0.298592 0.146313
H11   H     H_    0.474618 0.109118 0.265463 0.180471
H12   H     H_    0.475115 0.884820 0.267145 0.165990
H13   H     H_    0.499494 0.899436 0.843208 0.223051
H14   H     H_    0.645445 0.898964 0.770241 0.167091
N1    N     N_R   0.500780 0.500930 0.148120 -0.216680
N2    N     N_R   0.500790 0.500890 0.852210 -0.224632
O1    O     O_R   0.500000 0.319640 0.618810 -0.524892
O2    O     O_R   0.500010 0.319680 0.381230 -0.589302
O3    O     O_R   0.320680 0.500000 0.575130 -0.532806
O4    O     O_R   0.320690 0.500040 0.337550 -0.594055
O5    O     O_R   0.499990 0.680320 0.618770 -0.582006
O6    O     O_R   0.500000 0.680360 0.381190 -0.588729
O7    O     O_R   0.679310 0.499960 0.662450 -0.586633
O8    O     O_R   0.679320 0.500000 0.424870 -0.579689
Cl1   Cl    Cl    0.294443 0.347704 0.795753 -0.584911
O9    O     O_3   0.485721 0.128046 0.859287 -0.653382
H15   H     H_    0.544205 0.132619 0.953441 0.317594

loop_
_geom_bond_atom_site_label_1
_geom_bond_atom_site_label_2
_ccdc_geom_bond_type
C16   O5    A    
C2    C22   A    
C8    C22   S    
Cu1   Cu2   S    
C4    H12   S    
C15   H7    S    
C6    C7    S    
Cu1   O5    S    
Cu2   O2    S    
Cu1   O1    S    
C10   H3    S    
C3    H11   S    
C17   O8    A    
Cu2   O6    S    
Cu2   N1    S    
C2    C3    A    
C7    H13   S    
Cu1   O3    S    
C7    C8    S    
C12   O4    A    
C13   C14   S    
C4    C5    A    
C18   H10   S    
C11   N2    A    
C11   Cl1   S    
C20   H9    S    
C1    O1    A    
C19   C21   S    
C7    H14   S    
O9    H15   S    
C12   O3    A    
C9    C15   S    
C5    C6    A    
Cu2   O4    S    
Cu1   O7    S    
C10   C11   A    
C19   H8    S    
C14   H5    S    
C12   C18   S    
C3    C4    A    
Cu2   O8    S    
C8    O9    S    
C1    O2    A    
C9    N1    A    
C17   C20   S    
C8    H2    S    
C20   C21   D    
C15   H6    S    
C1    C2    S    
C16   O6    A    
C9    C13   A    
C14   C15   S    
C18   C19   D    
C5    C16   S    
C21   H1    S    
C14   H4    S    
Cu1   N2    S    
C17   O7    A    
C10   N1    A    
C13   N2    A    
C6    C22   A    
