data_mof_unit_22008.cif
_audit_creation_date              2012-12-10T17:16:50-0500
_audit_creation_method            fapswitch 2.2
_symmetry_space_group_name_H-M    P1
_symmetry_Int_Tables_number       1
_space_group_crystal_system       triclinic
_cell_length_a                    23.517035
_cell_length_b                    13.058519
_cell_length_c                    11.748319
_cell_angle_alpha                 100.079722
_cell_angle_beta                  93.175103
_cell_angle_gamma                 91.304517
_cell_volume                      3544.80725745

loop_
_atom_site_label
_atom_site_type_symbol
_atom_type_description
_atom_site_fract_x
_atom_site_fract_y
_atom_site_fract_z
_atom_type_partial_charge
C1    C     C_R   0.498137 0.299262 0.478778 0.874590
C2    C     C_R   0.703538 0.543089 0.598497 -0.384097
C3    C     C_R   0.240934 0.449326 0.570647 0.431859
C4    C     C_R   0.762609 0.540695 0.604523 0.451658
C5    C     C_R   0.211500 0.526372 0.523333 0.100120
C6    C     C_R   0.791254 0.502819 0.504383 0.066277
C7    C     C_R   0.500813 0.813908 0.533901 -0.246171
C8    C     C_R   0.492962 0.185887 0.468336 -0.231641
C9    C     C_R   0.452176 0.019635 0.371185 -0.290306
C10   C     C_R   0.538565 0.981386 0.632854 -0.269226
C11   C     C_R   0.463273 0.125359 0.370958 0.372485
C12   C     C_R   0.499763 0.700553 0.521547 0.887837
C13   C     C_R   0.530485 0.875288 0.630651 0.348005
C14   C     C_R   0.514969 0.138400 0.559967 0.412699
C15   C     C_R   0.473911 0.860836 0.446374 0.432988
C16   C     C_R   0.391349 0.501837 0.501062 0.901102
C17   C     C_R   0.608911 0.497141 0.498926 0.900907
C18   C     C_R   0.511405 0.029821 0.548836 -0.060066
C19   C     C_R   0.478767 0.969757 0.455030 -0.060168
C20   C     C_R   0.428396 0.456009 0.033233 0.425020
C21   C     C_R   0.574357 0.524521 0.962116 0.412546
C22   C     C_R   0.438869 0.447868 0.151253 -0.171999
C23   C     C_R   0.242237 0.601065 0.475277 0.378152
C24   C     C_R   0.564209 0.524439 0.842206 -0.127092
C25   C     C_R   0.533163 0.516067 0.151701 0.582843
C26   C     C_R   0.464737 0.507532 0.855487 0.605322
C27   C     C_R   0.527445 0.510757 0.028971 -0.266717
C28   C     C_R   0.473076 0.491121 0.972319 -0.251479
C29   C     C_R   0.881745 0.599033 0.544336 0.644296
C30   C     C_R   0.120175 0.438445 0.463185 0.646379
C31   C     C_R   0.881199 0.415239 0.481453 0.633609
C32   C     C_R   0.122145 0.607545 0.578108 0.638445
C33   C     C_R   0.941089 0.417101 0.478608 -0.173328
C34   C     C_R   0.759383 0.458636 0.400574 0.399788
C35   C     C_R   0.062145 0.610175 0.566302 -0.160209
C36   C     C_R   0.971430 0.512769 0.517792 -0.148212
C37   C     C_R   0.031474 0.516860 0.519370 -0.137315
C38   C     C_R   0.941722 0.604240 0.555745 -0.163298
C39   C     C_R   0.061080 0.427591 0.473908 -0.190618
C40   C     C_R   0.971243 0.325987 0.439751 0.428106
C41   C     C_R   0.032326 0.702209 0.602584 0.423752
C42   C     C_R   0.031040 0.330859 0.439724 0.371079
C43   C     C_R   0.972295 0.698712 0.601214 0.366746
C44   C     C_3   0.938515 0.165673 0.467432 -0.193220
C45   C     C_R   0.301071 0.588390 0.459738 0.277506
C46   C     C_3   0.078618 0.836407 0.543597 -0.299955
C47   C     C_3   0.397272 0.626368 0.846716 0.095657
C48   C     C_3   0.335625 0.643595 0.810529 -0.781381
C49   C     C_3   0.590712 0.659946 0.225147 0.095851
C50   C     C_3   0.649271 0.693863 0.282683 -0.781029
C51   C     C_3   0.330298 0.456377 0.025109 -0.321423
C52   C     C_3   0.668934 0.586130 0.969525 -0.345430
C53   C     C_3   0.083801 0.204513 0.501609 0.107600
C54   C     C_3   0.114908 0.104993 0.462094 -0.728335
C55   C     C_3   0.939748 0.864218 0.599908 0.132717
C56   C     C_R   0.699220 0.446610 0.400765 0.344491
C57   C     C_3   0.890157 0.930998 0.641474 -0.710289
C58   C     C_3   0.234380 0.778320 0.502346 -0.211114
C59   C     C_3   0.808459 0.500309 0.251739 -0.317604
C60   C     C_3   0.323635 0.631447 0.285958 0.180761
C61   C     C_3   0.303159 0.725254 0.235920 -0.794366
C62   C     C_3   0.671959 0.379632 0.205976 0.235359
C63   C     C_3   0.696872 0.282706 0.137261 -0.762480
C64   C     C_3   0.221273 0.398150 0.739908 0.039050
C65   C     C_3   0.181605 0.329209 0.793981 -0.787539
C66   C     C_3   0.804080 0.497718 0.767755 0.067909
C67   C     C_R   0.329591 0.509433 0.504927 -0.249486
C68   C     C_3   0.834192 0.540995 0.884749 -0.765281
C69   C     C_3   0.458574 0.788921 0.251459 -0.358338
C70   C     C_3   0.505514 0.213735 0.748319 -0.242108
C71   C     C_3   0.526787 0.868194 0.822941 0.116183
C72   C     C_3   0.545773 0.808162 0.917330 -0.835774
C73   C     C_3   0.455119 0.115860 0.172314 0.074369
C74   C     C_3   0.455189 0.187943 0.083821 -0.751886
C75   C     C_R   0.671523 0.495995 0.498254 -0.247670
C76   C     C_R   0.299684 0.441454 0.561144 -0.348762
Cu1   Cu    Cu3+1 0.504210 0.507730 0.615930 0.993736
Cu2   Cu    Cu3+1 0.495790 0.492270 0.384070 0.999503
H1    H     H_    0.600238 0.528133 0.791382 0.180722
H2    H     H_    0.106997 0.783327 0.490537 0.199745
H3    H     H_    0.102561 0.911000 0.574589 0.187537
H4    H     H_    0.041685 0.851732 0.486538 0.103215
H5    H     H_    0.425205 0.677567 0.805521 0.145512
H6    H     H_    0.402557 0.650382 0.942716 0.099482
H7    H     H_    0.306845 0.586332 0.839986 0.241313
H8    H     H_    0.323740 0.723278 0.849761 0.196208
H9    H     H_    0.330175 0.635938 0.715249 0.241986
H10   H     H_    0.559195 0.698436 0.282598 0.152720
H11   H     H_    0.586519 0.687792 0.140953 0.133496
H12   H     H_    0.406277 0.415041 0.196411 0.180383
H13   H     H_    0.655603 0.779358 0.290181 0.202794
H14   H     H_    0.652947 0.673796 0.370752 0.238271
H15   H     H_    0.683016 0.654449 0.230832 0.240411
H16   H     H_    0.334144 0.542596 0.047148 0.142301
H17   H     H_    0.321553 0.421227 0.102021 0.149754
H18   H     H_    0.292742 0.437067 0.963403 0.184073
H19   H     H_    0.706131 0.602678 0.032861 0.180388
H20   H     H_    0.651013 0.662174 0.958523 0.162343
H21   H     H_    0.685246 0.545204 0.887561 0.171961
H22   H     H_    0.050896 0.188258 0.561067 0.088033
H23   H     H_    0.321886 0.380762 0.595794 0.196893
H24   H     H_    0.115178 0.262285 0.551832 0.198257
H25   H     H_    0.136447 0.079198 0.538186 0.181011
H26   H     H_    0.084213 0.042852 0.417890 0.225270
H27   H     H_    0.147593 0.119007 0.401356 0.278376
H28   H     H_    0.932552 0.836683 0.504652 0.114466
H29   H     H_    0.978567 0.915466 0.618426 0.165639
H30   H     H_    0.896232 0.959923 0.736177 0.250925
H31   H     H_    0.887937 0.998786 0.596278 0.164686
H32   H     H_    0.849276 0.885517 0.622995 0.286236
H33   H     H_    0.273379 0.806104 0.466934 0.201534
H34   H     H_    0.682666 0.579102 0.674600 0.197476
H35   H     H_    0.242766 0.776096 0.596168 0.178433
H36   H     H_    0.202153 0.837730 0.495173 0.157809
H37   H     H_    0.777985 0.564419 0.251403 0.124112
H38   H     H_    0.816270 0.469041 0.160125 0.189831
H39   H     H_    0.849823 0.531799 0.295294 0.179822
H40   H     H_    0.293176 0.564384 0.253765 0.103261
H41   H     H_    0.365544 0.610302 0.251362 0.168873
H42   H     H_    0.328976 0.796155 0.274920 0.276487
H43   H     H_    0.307008 0.711337 0.140771 0.181071
H44   H     H_    0.257784 0.738566 0.253121 0.264849
H45   H     H_    0.423487 0.977029 0.303786 0.179232
H46   H     H_    0.694947 0.451420 0.192379 0.165079
H47   H     H_    0.627883 0.382696 0.168831 0.201648
H48   H     H_    0.668615 0.213740 0.139062 0.230552
H49   H     H_    0.700152 0.292605 0.045847 0.206688
H50   H     H_    0.739750 0.268092 0.173785 0.298173
H51   H     H_    0.212901 0.480885 0.776060 0.151132
H52   H     H_    0.265972 0.380663 0.763914 0.177216
H53   H     H_    0.188868 0.245963 0.760093 0.252948
H54   H     H_    0.189804 0.344159 0.889534 0.212812
H55   H     H_    0.136545 0.346253 0.773026 0.237582
H56   H     H_    0.565846 0.025821 0.702196 0.199178
H57   H     H_    0.832522 0.441319 0.718530 0.151223
H58   H     H_    0.764067 0.456050 0.782906 0.136754
H59   H     H_    0.806701 0.597019 0.936595 0.239568
H60   H     H_    0.843481 0.476564 0.932673 0.194547
H61   H     H_    0.874902 0.581318 0.872410 0.266259
H62   H     H_    0.499532 0.832427 0.247005 0.125798
H63   H     H_    0.426597 0.814704 0.190369 0.156375
H64   H     H_    0.464099 0.705014 0.219179 0.180001
H65   H     H_    0.464074 0.244605 0.721424 0.174183
H66   H     H_    0.525528 0.272102 0.820285 0.187689
H67   H     H_    0.896785 0.122820 0.450455 0.197223
H68   H     H_    0.497491 0.141200 0.782864 0.123136
H69   H     H_    0.479541 0.858234 0.808696 0.120214
H70   H     H_    0.538197 0.951767 0.855198 0.127895
H71   H     H_    0.592862 0.814035 0.931947 0.253114
H72   H     H_    0.526250 0.840608 0.999359 0.177668
H73   H     H_    0.531803 0.725481 0.891782 0.238520
H74   H     H_    0.422476 0.052711 0.141644 0.134812
H75   H     H_    0.498139 0.081607 0.175483 0.131411
H76   H     H_    0.488776 0.250062 0.109859 0.249576
H77   H     H_    0.464184 0.143174 0.997668 0.176086
H78   H     H_    0.941018 0.204674 0.560128 0.106381
H79   H     H_    0.412950 0.223435 0.077091 0.263914
H80   H     H_    0.971847 0.106915 0.452384 0.157202
N1    N     N_R   0.852838 0.505643 0.509894 -0.452908
N2    N     N_R   0.149998 0.525175 0.520536 -0.427922
N3    N     N_R   0.510550 0.519360 0.790130 -0.255777
N4    N     N_R   0.489450 0.480640 0.209870 -0.241832
O1    O     O_R   0.502990 0.354470 0.582000 -0.556991
O2    O     O_2   0.147760 0.363269 0.396019 -0.482235
O3    O     O_2   0.851253 0.323970 0.457409 -0.477768
O4    O     O_2   0.152173 0.685022 0.648440 -0.512867
O5    O     O_3   0.942179 0.234754 0.387818 -0.506548
O6    O     O_3   0.061308 0.796334 0.641091 -0.523450
O7    O     O_3   0.410246 0.520533 0.811699 -0.520082
O8    O     O_3   0.584106 0.550650 0.212187 -0.545665
O9    O     O_3   0.378704 0.413945 0.971501 -0.539694
O10   O     O_3   0.629345 0.521536 0.012271 -0.568413
O11   O     O_3   0.059207 0.240007 0.403341 -0.515575
O12   O     O_R   0.497010 0.645530 0.418000 -0.574301
O13   O     O_3   0.944198 0.781349 0.662566 -0.514740
O14   O     O_3   0.213572 0.681644 0.437381 -0.575934
O15   O     O_3   0.787105 0.418054 0.302716 -0.540960
O16   O     O_3   0.331602 0.657757 0.408060 -0.562605
O17   O     O_3   0.668689 0.369078 0.323171 -0.575086
O18   O     O_3   0.210931 0.376894 0.618598 -0.565260
O19   O     O_3   0.792336 0.580525 0.708169 -0.529266
O20   O     O_3   0.436761 0.801317 0.362944 -0.541070
O21   O     O_3   0.543124 0.197822 0.657224 -0.563870
O22   O     O_3   0.554272 0.830584 0.720213 -0.547569
O23   O     O_R   0.495870 0.341410 0.386200 -0.537253
O24   O     O_3   0.441393 0.172418 0.281163 -0.554025
O25   O     O_R   0.504130 0.658590 0.613800 -0.555086
O26   O     O_R   0.421440 0.506500 0.597920 -0.544898
O27   O     O_R   0.578560 0.493500 0.402080 -0.517607
O28   O     O_R   0.414320 0.493440 0.402120 -0.593176
O29   O     O_R   0.585680 0.506560 0.597880 -0.606711
O30   O     O_2   0.852180 0.686882 0.564396 -0.494502

loop_
_geom_bond_atom_site_label_1
_geom_bond_atom_site_label_2
_ccdc_geom_bond_type
C25   O8    S    
Cu1   O1    S    
C71   H69   S    
C41   O6    S    
C34   C56   A    
C23   C45   A    
C32   O4    S    
C1    C8    S    
C44   H80   S    
C73   C74   S    
C14   C18   A    
C66   C68   S    
C24   N3    A    
Cu2   O28   S    
C30   O2    S    
C52   O10   S    
C62   H46   S    
C14   O21   S    
C53   O11   S    
C29   N1    A    
Cu1   Cu2   S    
C17   O29   A    
C15   C19   A    
C2    H34   S    
C70   H65   S    
C46   O6    S    
C63   H49   S    
C54   H26   S    
C36   C37   A    
C35   C37   A    
C68   H60   S    
C72   H71   S    
C49   O8    S    
C22   N4    A    
C60   O16   S    
C11   O24   S    
C15   O20   S    
C52   H19   S    
C33   C36   A    
C74   H76   S    
C60   H41   S    
C61   H43   S    
C18   C19   A    
C52   H20   S    
C40   O5    S    
C65   H53   S    
C46   H4    S    
C43   O13   S    
C74   H77   S    
C9    C19   A    
C57   H31   S    
C31   O3    S    
C26   O7    S    
C59   H38   S    
C29   C38   A    
C45   C67   A    
C58   H35   S    
C31   C33   A    
C60   H40   S    
C70   H68   S    
C47   H5    S    
C4    O19   S    
C25   N4    A    
C63   H50   S    
C74   H79   S    
C69   O20   S    
C47   C48   S    
C5    N2    S    
C69   H62   S    
C40   C42   A    
C71   H70   S    
C21   C27   A    
C59   H39   S    
C56   C75   A    
C61   H42   S    
C65   H54   S    
C41   C43   A    
C49   H10   S    
C68   H59   S    
Cu2   O27   S    
C47   O7    S    
C6    N1    S    
C39   C42   A    
C53   H22   S    
Cu1   N3    S    
C7    C12   S    
C48   H9    S    
C33   C40   A    
C55   H28   S    
C58   H33   S    
C44   H78   S    
C32   C35   A    
C54   H25   S    
C59   O15   S    
Cu2   O12   S    
C58   H36   S    
C4    C6    A    
C16   O26   A    
C49   H11   S    
C62   O17   S    
Cu2   O23   S    
C23   O14   S    
C20   C28   A    
C17   O27   A    
C69   H64   S    
C53   C54   S    
C12   O25   A    
C10   C13   A    
C6    C34   A    
C55   H29   S    
C61   H44   S    
C44   O5    S    
Cu1   O29   S    
C2    C4    A    
C3    O18   S    
C62   C63   S    
C46   H3    S    
C70   O21   S    
C24   H1    S    
C57   H32   S    
C5    C23   A    
C53   H24   S    
C13   O22   S    
C20   O9    S    
C44   H67   S    
C22   H12   S    
C29   O30   S    
C16   C67   S    
C47   H6    S    
C3    C76   A    
C9    C11   A    
C55   O13   S    
C16   O28   A    
C45   O16   S    
C66   H58   S    
C50   H14   S    
C66   O19   S    
C64   H52   S    
Cu2   N4    S    
C72   H72   S    
C55   C57   S    
C73   H74   S    
C73   O24   S    
Cu1   O25   S    
C48   H8    S    
C72   H73   S    
C12   O12   A    
C76   H23   S    
C8    C14   A    
C26   N3    A    
C54   H27   S    
C70   H66   S    
C71   O22   S    
C58   O14   S    
C10   H56   S    
C20   C22   A    
C3    C5    A    
C42   O11   S    
C34   O15   S    
C62   H47   S    
C50   H15   S    
C1    O23   A    
C25   C27   A    
C21   O10   S    
C51   H18   S    
C52   H21   S    
C26   C28   A    
C64   C65   S    
C36   C38   A    
C38   C43   A    
C37   C39   A    
C46   H2    S    
C10   C18   A    
C8    C11   A    
C64   O18   S    
C7    C15   A    
C51   O9    S    
C9    H45   S    
C30   C39   A    
C35   C41   A    
C65   H55   S    
C63   H48   S    
C30   N2    A    
C51   H16   S    
C66   H57   S    
C50   H13   S    
C7    C13   A    
C57   H30   S    
C71   C72   S    
C64   H51   S    
C1    O1    A    
C59   H37   S    
C49   C50   S    
C21   C24   A    
C73   H75   S    
C27   C28   A    
C17   C75   S    
Cu1   O26   S    
C48   H7    S    
C60   C61   S    
C68   H61   S    
C67   C76   A    
C69   H63   S    
C31   N1    A    
C2    C75   A    
C51   H17   S    
C32   N2    A    
C56   O17   S    
