data_mof_unit_57397.cif
_audit_creation_date              2012-12-11T17:06:38-0500
_audit_creation_method            fapswitch 2.2
_symmetry_space_group_name_H-M    P1
_symmetry_Int_Tables_number       1
_space_group_crystal_system       triclinic
_cell_length_a                    6.955139
_cell_length_b                    14.57809
_cell_length_c                    15.920795
_cell_angle_alpha                 90.490358
_cell_angle_beta                  90.118848
_cell_angle_gamma                 89.919377
_cell_volume                      1614.18732383

loop_
_atom_site_label
_atom_site_type_symbol
_atom_type_description
_atom_site_fract_x
_atom_site_fract_y
_atom_site_fract_z
_atom_type_partial_charge
O1    O     O_R   0.494400 0.415450 0.412630 -0.536458
O2    O     O_R   0.823940 0.405730 0.586760 -0.543207
O3    O     O_R   0.994240 0.584550 0.587370 -0.537730
C1    C     C_R   0.655179 0.382994 0.614815 0.689940
O4    O     O_R   0.824110 0.404430 0.413240 -0.544138
O5    O     O_R   0.994420 0.583240 0.412620 -0.538376
C2    C     C_R   0.655297 0.382247 0.384169 0.695899
O6    O     O_R   0.494230 0.416760 0.587380 -0.540774
O7    O     O_3   0.660800 0.558670 0.500000 -0.368504
V1    V     V_3+5 0.935650 0.489120 0.500000 1.382247
O8    O     O_R   0.324140 0.594270 0.413240 -0.538787
C3    C     C_R   0.154889 0.615315 0.383719 0.700268
O9    O     O_R   0.323960 0.595570 0.586760 -0.545861
C4    C     C_R   0.155406 0.616720 0.616377 0.682213
V2    V     V_3+5 0.435660 0.510880 0.500000 1.383479
O10   O     O_3   0.160640 0.441330 0.500000 -0.371673
C5    C     C_3   0.956437 0.728407 0.720129 -0.131358
C6    C     C_3   0.027075 0.714402 0.811652 -0.177216
H1    H     H_    0.939204 0.686668 0.863731 0.108348
C7    C     C_3   0.121522 0.809748 0.809927 -0.024169
C8    C     C_3   0.050499 0.824709 0.719345 -0.139906
C9    C     C_3   0.239490 0.781740 0.685519 -0.166651
C10   C     C_3   0.310853 0.768093 0.777083 -0.128441
C11   C     C_3   0.215955 0.672399 0.777710 0.123202
C12   C     C_3   0.145459 0.685890 0.687024 -0.022946
H2    H     H_    0.981644 0.888228 0.695720 0.098832
H3    H     H_    0.456943 0.785231 0.800656 0.110932
C13   C     C_R   0.262046 0.820096 0.245443 0.082577
C14   C     C_R   0.117144 0.816380 0.184065 -0.133703
C15   C     C_R   0.969190 0.751582 0.196333 -0.182525
H4    H     H_    0.849575 0.747722 0.152900 0.124689
C16   C     C_R   0.980137 0.686989 0.261844 -0.177426
H5    H     H_    0.868165 0.635905 0.267010 0.121910
C17   C     C_R   0.140371 0.684541 0.316383 -0.106292
C18   C     C_R   0.275796 0.754424 0.307901 0.065340
C19   C     C_3   0.490003 0.752791 0.305456 -0.400475
C20   C     C_3   0.475899 0.829126 0.240192 -0.095341
H6    H     H_    0.544177 0.687185 0.278489 0.149989
H7    H     H_    0.557225 0.772110 0.366287 0.167825
H8    H     H_    0.532003 0.808125 0.177580 0.130893
C21   C     C_R   0.490719 0.313122 0.739081 0.111713
C22   C     C_R   0.647126 0.315990 0.684027 -0.105074
C23   C     C_R   0.799550 0.254511 0.698722 -0.184317
H9    H     H_    0.922657 0.253660 0.657523 0.134621
C24   C     C_R   0.788229 0.188949 0.762991 -0.180781
H10   H     H_    0.903783 0.139884 0.769786 0.126703
C25   C     C_R   0.623855 0.182811 0.814268 -0.109013
C26   C     C_R   0.479421 0.248464 0.802744 0.094136
C27   C     C_3   0.269299 0.235282 0.789013 -0.411793
C28   C     C_3   0.281826 0.306222 0.719903 -0.398800
H11   H     H_    0.235817 0.165196 0.765231 0.165240
H12   H     H_    0.203491 0.370793 0.734894 0.167262
H13   H     H_    0.255120 0.277530 0.656029 0.168573
C29   C     C_R   0.492244 0.315568 0.256319 0.099401
C30   C     C_R   0.647532 0.316687 0.312524 -0.111951
C31   C     C_R   0.800614 0.255900 0.295963 -0.182326
H14   H     H_    0.923344 0.254078 0.337572 0.135384
C32   C     C_R   0.790210 0.191906 0.229313 -0.179700
H15   H     H_    0.905513 0.142763 0.221671 0.131120
C33   C     C_R   0.625767 0.186351 0.177562 -0.112623
C34   C     C_R   0.481377 0.251912 0.190603 0.101447
C35   C     C_3   0.271150 0.238420 0.202915 -0.414479
C36   C     C_3   0.282963 0.307858 0.274406 -0.402791
H16   H     H_    0.237101 0.167869 0.224131 0.165535
H17   H     H_    0.185515 0.262995 0.148525 0.178390
H18   H     H_    0.255817 0.277711 0.337177 0.170129
H19   H     H_    0.204281 0.372636 0.261356 0.169645
O11   O     O_R   0.771650 0.079500 0.908680 -0.539455
O12   O     O_R   0.441690 0.091800 0.082800 -0.540715
O13   O     O_R   0.271460 0.912980 0.083410 -0.541006
C37   C     C_R   0.611074 0.114933 0.111063 0.686904
O14   O     O_R   0.441930 0.090510 0.909280 -0.539123
O15   O     O_R   0.271690 0.911670 0.908660 -0.539321
C38   C     C_R   0.610771 0.112294 0.880392 0.699169
O16   O     O_R   0.771410 0.080810 0.083440 -0.539244
O17   O     O_3   0.605100 0.937580 0.996050 -0.371822
V3    V     V_3+5 0.330220 0.007110 0.996030 1.388882
O18   O     O_R   0.941980 0.900620 0.909250 -0.541218
C39   C     C_R   0.110727 0.879166 0.880036 0.684588
O19   O     O_R   0.941740 0.901920 0.082770 -0.543967
C40   C     C_R   0.110480 0.880990 0.112503 0.691935
V4    V     V_3+5 0.830220 0.985300 0.996000 1.383501
O20   O     O_3   0.105210 0.054870 0.996020 -0.367556
C41   C     C_3   0.551723 0.923878 0.269756 -0.294789
C42   C     C_3   0.460732 0.961656 0.351519 -0.308938
C43   C     C_3   0.537017 0.056885 0.373442 -0.794562
H20   H     H_    0.696601 0.056459 0.376375 0.232576
H21   H     H_    0.488082 0.106862 0.325952 0.242763
H22   H     H_    0.480291 0.078998 0.435544 0.214124
H23   H     H_    0.302066 0.966543 0.344572 0.190064
H24   H     H_    0.493171 0.915917 0.405012 0.191565
H25   H     H_    0.710162 0.918855 0.277939 0.171840
H26   H     H_    0.523807 0.973337 0.218633 0.169497
H27   H     H_    0.182892 0.258686 0.843829 0.177007
H28   H     H_    0.810691 0.713260 0.695319 0.108928
H29   H     H_    0.327257 0.809347 0.633375 0.105441
C44   C     C_3   0.306583 0.588058 0.818487 -0.395721
C45   C     C_3   0.508615 0.567760 0.784601 -0.289199
C46   C     C_3   0.622293 0.506842 0.844408 -0.785034
H30   H     H_    0.657468 0.545469 0.902878 0.221200
H31   H     H_    0.537897 0.445150 0.861151 0.236277
H32   H     H_    0.758721 0.484930 0.814079 0.213812
H33   H     H_    0.496971 0.533200 0.722513 0.203542
H34   H     H_    0.590246 0.632291 0.776637 0.186925
H35   H     H_    0.314356 0.601594 0.887247 0.183057
H36   H     H_    0.211953 0.527716 0.807911 0.155797

loop_
_geom_bond_atom_site_label_1
_geom_bond_atom_site_label_2
_ccdc_geom_bond_type
C37   O16   A    
C30   C31   A    
C21   C22   A    
O12   V3    S    
C18   C19   S    
C2    C30   S    
C1    O6    A    
C44   C45   S    
C42   H24   S    
C42   C43   S    
C35   C36   S    
C6    C11   S    
C19   C20   S    
C6    H1    S    
C20   H8    S    
O5    C3    A    
C15   H4    S    
C43   H21   S    
C29   C36   S    
V3    O20   S    
C32   C33   A    
C45   H33   S    
C45   C46   S    
C31   H14   S    
C17   C18   A    
O12   C37   A    
O13   C40   A    
C35   H16   S    
O14   V3    S    
O8    V2    S    
C25   C26   A    
C13   C18   A    
C27   H11   S    
C9    C12   S    
C28   H12   S    
C10   C11   S    
C20   C41   S    
C5    H28   S    
C10   H3    S    
C27   H27   S    
O7    V1    S    
C35   H17   S    
C44   H35   S    
C36   H18   S    
C8    C9    S    
O13   V3    S    
C11   C12   S    
C8    H2    S    
C24   C25   A    
C36   H19   S    
C28   H13   S    
C11   C44   S    
C41   C42   S    
O14   C38   A    
O17   V4    S    
O4    C2    A    
O18   C39   A    
C33   C37   S    
C32   H15   S    
C24   H10   S    
C5    C8    S    
C33   C34   A    
C16   C17   A    
O2    C1    A    
C23   H9    S    
C14   C40   S    
C14   C15   A    
O18   V4    S    
C46   H30   S    
C7    C10   S    
C42   H23   S    
C5    C6    S    
O15   C39   A    
O17   V3    S    
C23   C24   A    
O3    C4    A    
O1    V2    S    
C44   H36   S    
O19   V4    S    
C26   C27   S    
C46   H31   S    
V4    O20   S    
O6    V2    S    
O9    V2    S    
C22   C23   A    
C3    C17   S    
O2    V1    S    
C21   C28   S    
C43   H20   S    
C29   C30   A    
C13   C14   A    
C7    C39   S    
O1    C2    A    
C9    H29   S    
C19   H7    S    
C25   C38   S    
O19   C40   A    
C43   H22   S    
O5    V1    S    
O8    C3    A    
O16   V4    S    
C29   C34   A    
C5    C12   S    
C16   H5    S    
C19   H6    S    
O7    V2    S    
O11   V4    S    
O4    V1    S    
O3    V1    S    
V1    O10   S    
C15   C16   A    
C1    C22   S    
C13   C20   S    
C45   H34   S    
C21   C26   A    
C31   C32   A    
C6    C7    S    
C41   H26   S    
C4    C12   S    
C34   C35   S    
C46   H32   S    
C7    C8    S    
C27   C28   S    
O15   V3    S    
C9    C10   S    
C41   H25   S    
O9    C4    A    
O11   C38   A    
V2    O10   S    
