data_mof_unit_24431.cif
_audit_creation_date              2012-12-11T19:09:49-0500
_audit_creation_method            fapswitch 2.2
_symmetry_space_group_name_H-M    P1
_symmetry_Int_Tables_number       1
_space_group_crystal_system       triclinic
_cell_length_a                    8.278341
_cell_length_b                    15.076891
_cell_length_c                    26.992765
_cell_angle_alpha                 98.858363
_cell_angle_beta                  92.375544
_cell_angle_gamma                 81.229687
_cell_volume                      3289.34665062

loop_
_atom_site_label
_atom_site_type_symbol
_atom_type_description
_atom_site_fract_x
_atom_site_fract_y
_atom_site_fract_z
_atom_type_partial_charge
Ba1   Ba    Ba6+2 0.860050 0.456430 0.522540 1.811403
Ba2   Ba    Ba6+2 0.329780 0.543490 0.477450 1.803283
C1    C     C_3   0.800805 0.141410 0.670574 -0.217665
C2    C     C_R   0.952530 0.595258 0.185133 0.629867
C3    C     C_2   0.770498 0.571129 0.275561 -0.109631
C4    C     C_3   0.236840 0.236818 0.650529 0.469418
C5    C     C_3   0.740773 0.595174 0.331289 -0.090297
C6    C     C_1   0.986333 0.485505 0.343553 0.028377
C7    C     C_2   0.027484 0.477880 0.295639 -0.079864
C8    C     C_2   0.913343 0.521577 0.258505 0.210684
C9    C     C_R   0.027716 0.508209 0.103313 -0.093523
C10   C     C_R   0.037595 0.428047 0.124927 -0.018138
C11   C     C_R   0.080940 0.344411 0.094412 -0.045327
C12   C     C_3   0.742470 0.222217 0.643590 0.300020
C13   C     C_R   0.984217 0.592192 0.133772 -0.111933
C14   C     C_2   0.851261 0.535638 0.362387 -0.265155
C15   C     C_2   0.332815 0.456538 0.636320 -0.229839
C16   C     C_3   0.315109 0.174889 0.687214 1.143585
C17   C     C_R   0.117223 0.414717 0.967562 -0.057963
C18   C     C_R   0.099381 0.581243 0.979162 0.056106
C19   C     C_R   0.123541 0.495787 0.947457 0.049761
C20   C     C_R   0.131832 0.332018 0.933969 -0.137858
C21   C     C_R   0.157988 0.328293 0.882938 0.676250
C22   C     C_R   0.172804 0.407470 0.862896 -0.133414
C23   C     C_3   0.520489 0.671131 0.632769 0.837483
C24   C     C_R   0.156276 0.491316 0.895260 -0.155245
C25   C     C_R   0.173386 0.570704 0.875553 -0.021700
C26   C     C_R   0.208465 0.565400 0.824097 0.631344
C27   C     C_R   0.204794 0.404855 0.811404 0.723600
C28   C     C_3   0.221271 0.264576 0.410552 0.313629
C29   C     C_2   0.417322 0.427190 0.724567 0.538436
C30   C     C_3   0.449435 0.403134 0.669003 -0.132716
C31   C     C_1   0.201203 0.510084 0.655195 0.073902
C32   C     C_2   0.160399 0.519470 0.703218 -0.166066
C33   C     C_2   0.273812 0.476899 0.740724 0.141103
C34   C     C_3   0.493151 0.694383 0.689014 0.625019
C35   C     C_R   0.095864 0.418711 0.020255 0.070179
C36   C     C_R   0.060030 0.504375 0.051166 -0.006252
C37   C     C_R   0.053841 0.586104 0.030298 -0.066065
C38   C     C_R   0.109321 0.339666 0.043395 -0.082007
C39   C     C_R   0.967691 0.671743 0.112033 -0.044398
C40   C     C_3   0.242924 0.162191 0.394671 -0.306759
C41   C     C_R   0.127424 0.658461 0.958751 -0.030925
C42   C     C_R   0.161067 0.653442 0.908124 -0.050411
C43   C     C_R   0.997765 0.669293 0.061393 0.569500
C44   C     C_R   0.343997 0.173938 0.529231 0.030765
C45   C     C_3   0.951127 0.770401 0.348550 0.354630
C46   C     C_R   0.574311 0.208881 0.487975 -0.024281
C47   C     C_R   0.764164 0.771203 0.490739 -0.253130
C48   C     C_R   0.845141 0.827437 0.467886 -0.079181
C49   C     C_R   0.771752 0.915889 0.464499 0.613356
C50   C     C_R   0.631612 0.956000 0.493398 -0.020952
C51   C     C_R   0.552645 0.897178 0.517949 -0.107969
C52   C     C_3   0.984499 0.745870 0.599429 1.184407
C53   C     C_R   0.565751 0.051044 0.499035 -0.071870
C54   C     C_R   0.413693 0.081516 0.524042 -0.099304
C55   C     C_R   0.336556 0.020053 0.544856 0.040273
C56   C     C_3   0.924187 0.821753 0.303872 0.559245
C57   C     C_R   0.407614 0.931107 0.543515 0.021662
C58   C     C_R   0.646500 0.118115 0.482868 0.581612
C59   C     C_R   0.427028 0.236629 0.512250 -0.384683
C60   C     C_R   0.618465 0.804498 0.515355 0.040936
C61   C     C_3   0.001850 0.844940 0.617389 0.637422
C62   C     C_3   0.698739 0.342789 0.372388 0.285048
C63   C     C_3   0.707661 0.320288 0.315588 -0.313609
C64   C     C_3   0.471708 0.772943 0.336866 0.902543
C65   C     C_3   0.377556 0.848922 0.311401 0.515104
C66   C     C_R   0.002182 0.433049 0.176449 0.601052
F1    F     F_    0.822718 0.738622 0.597491 -0.848375
F2    F     F_    0.170885 0.245699 0.853456 -0.595769
F3    F     F_    0.956173 0.748661 0.043048 -0.693775
F4    F     F_    0.800418 0.099953 0.465669 -0.617060
F5    F     F_    0.824269 0.953893 0.427065 -0.597908
F6    F     F_    0.198045 0.153927 0.716518 -0.617159
F7    F     F_    0.397045 0.095975 0.661240 -0.706519
F8    F     F_    0.050723 0.719957 0.552437 -0.711773
F9    F     F_    0.164677 0.854074 0.625871 -0.641529
F10   F     F_    0.403762 0.620754 0.611227 -0.745725
F11   F     F_    0.341427 0.745953 0.698341 -0.594698
F12   F     F_    0.889092 0.914094 0.320102 -0.620470
F13   F     F_    0.483562 0.803121 0.387887 -0.762230
F14   F     F_    0.355974 0.818782 0.260849 -0.692432
F15   F     F_    0.522824 0.387369 0.757425 -0.668344
H1    H     H_    0.301263 0.126767 0.425289 0.051829
H2    H     H_    0.758361 0.079690 0.649576 0.085131
H3    H     H_    0.641681 0.629988 0.626857 -0.037578
H4    H     H_    0.499245 0.630981 0.705657 -0.078559
H5    H     H_    0.589403 0.733138 0.706981 -0.024964
H6    H     H_    0.750495 0.154115 0.708899 0.171300
H7    H     H_    0.403931 0.209541 0.711972 -0.010933
H8    H     H_    0.993579 0.697547 0.334901 -0.075526
H9    H     H_    0.831329 0.777607 0.367093 -0.046371
H10   H     H_    0.819803 0.799835 0.280564 0.031180
H11   H     H_    0.594998 0.758230 0.320404 -0.188631
H12   H     H_    0.121921 0.139888 0.385419 0.179769
H13   H     H_    0.447356 0.907089 0.315678 0.026948
H14   H     H_    0.256967 0.873019 0.328814 0.076134
H15   H     H_    0.168677 0.299356 0.671672 0.010388
H16   H     H_    0.092376 0.281516 0.109877 0.138097
H17   H     H_    0.119890 0.268364 0.945852 0.120935
H18   H     H_    0.144959 0.272439 0.023180 0.089102
H19   H     H_    0.684801 0.603507 0.249898 0.116331
H20   H     H_    0.926165 0.737047 0.134060 0.171351
H21   H     H_    0.132470 0.723544 0.981546 0.175795
H22   H     H_    0.043074 0.557107 0.715662 0.124355
H23   H     H_    0.949856 0.887388 0.588697 -0.127916
H24   H     H_    0.829996 0.546589 0.402417 0.063713
H25   H     H_    0.346038 0.438191 0.596013 0.103518
H26   H     H_    0.373274 0.307315 0.515966 0.086818
H27   H     H_    0.816569 0.700749 0.490017 0.113675
H28   H     H_    0.344320 0.888983 0.562291 0.159346
H29   H     H_    0.143779 0.282022 0.444300 0.076909
H30   H     H_    0.795725 0.209268 0.605615 0.065637
H31   H     H_    0.321540 0.142865 0.361222 0.135967
H32   H     H_    0.934823 0.869551 0.652877 0.010835
H33   H     H_    0.816943 0.361540 0.387447 -0.006221
H34   H     H_    0.600381 0.400966 0.381927 0.068676
H35   H     H_    0.035105 0.807654 0.280539 0.086941
H36   H     H_    0.145629 0.441428 0.283239 0.116254
H37   H     H_    0.337676 0.255805 0.630684 -0.491776
H38   H     H_    0.180065 0.715148 0.894711 0.147492
H39   H     H_    0.222026 0.040083 0.564081 0.128455
H40   H     H_    0.342588 0.285759 0.419131 -0.008056
H41   H     H_    0.935680 0.129172 0.673099 0.206988
H42   H     H_    0.808072 0.263698 0.304934 0.153175
H43   H     H_    0.730761 0.380266 0.299374 0.067006
H44   H     H_    0.590253 0.300311 0.299881 0.137539
H45   H     H_    0.607912 0.226613 0.639486 -0.014734
N1    N     N_R   0.958099 0.516207 0.206011 -0.420429
N2    N     N_R   0.226245 0.482929 0.792804 -0.424776
O1    O     O_2   0.906490 0.548660 0.619040 -0.488706
O2    O     O_2   0.183360 0.824045 0.472310 -0.423322
O3    O     O_3   0.071657 0.805552 0.380608 -0.539732
O4    O     O_3   0.138490 0.548590 0.558860 -0.401824
O5    O     O_3   0.572560 0.389970 0.472910 -0.516232
O6    O     O_2   0.345680 0.723560 0.528460 -0.353876
O7    O     O_3   0.513017 0.751141 0.611743 -0.563254
O8    O     O_2   0.449636 0.519162 0.325798 -0.497068
O9    O     O_3   0.391843 0.695619 0.328144 -0.582102
O10   O     O_2   0.007949 0.363243 0.194636 -0.582160
O11   O     O_2   0.213459 0.332944 0.782956 -0.480581
O12   O     O_3   0.665944 0.266491 0.391693 -0.597984
O13   O     O_2   0.920606 0.668827 0.211417 -0.618588
O14   O     O_2   0.225137 0.634033 0.807346 -0.537105
O15   O     O_3   0.686290 0.382320 0.585720 -0.490805
O16   O     O_2   0.743145 0.479048 0.674964 -0.488624
O17   O     O_3   0.060824 0.692608 0.634038 -0.570729
O18   O     O_3   0.790433 0.301680 0.671083 -0.527073
O19   O     O_2   0.844020 0.276410 0.471510 -0.421442
O20   O     O_3   0.101490 0.335510 0.560360 -0.500493
O21   O     O_2   0.004540 0.176223 0.527287 -0.421711
O22   O     O_3   0.127408 0.192362 0.618009 -0.598111
O23   O     O_2   0.283210 0.451320 0.380930 -0.462005
O24   O     O_3   0.051220 0.451340 0.441130 -0.507921
O25   O     O_3   0.503420 0.617610 0.414270 -0.446274
O26   O     O_3   0.147832 0.306070 0.370794 -0.626873
O27   O     O_3   0.617160 0.609950 0.527080 -0.456102
O28   O     O_3   0.088220 0.664410 0.439630 -0.460408
P1    P     P_3+3 0.071960 0.575810 0.612130 1.198746
P2    P     P_3+3 0.664360 0.290070 0.457280 1.061847
P3    P     P_3+3 0.143370 0.218312 0.557555 1.010917
P4    P     P_3+3 0.117760 0.424110 0.387870 0.987112
P5    P     P_3+3 0.046674 0.781525 0.440836 1.162952
P6    P     P_3+3 0.667095 0.394770 0.650807 1.057707
P7    P     P_3+3 0.527857 0.723515 0.546337 1.170508
P8    P     P_3+3 0.521938 0.605185 0.349060 1.021095

loop_
_geom_bond_atom_site_label_1
_geom_bond_atom_site_label_2
_ccdc_geom_bond_type
C53   C54   A    
C16   F7    S    
C62   H33   S    
C1    H2    S    
C45   H9    S    
Ba1   O15   S    
C19   C24   A    
C59   H26   S    
Ba2   P4    S    
C2    O13   D    
O7    P7    S    
C51   C57   A    
C12   H45   S    
C1    H41   S    
C10   C11   A    
C46   P2    S    
C24   C25   A    
Ba2   O4    S    
C4    H15   S    
C17   C19   A    
C56   H10   S    
C22   C24   A    
C32   C33   S    
C35   C38   A    
C47   H27   S    
C36   C37   A    
C55   C57   A    
C43   F3    S    
C52   C61   S    
C58   F4    S    
O25   P8    S    
C12   O18   S    
C42   H38   S    
C56   H35   S    
C29   F15   S    
C54   C55   A    
Ba1   Ba2   S    
C6    C14   D    
C41   H21   S    
C11   C38   A    
C17   C35   A    
C14   H24   S    
C38   H18   S    
C22   C27   A    
C9    C13   A    
C25   C42   A    
C40   H31   S    
C64   O9    S    
C27   N2    Am   
C6    C7    D    
O21   P3    D    
C44   P3    S    
C57   H28   S    
C21   C22   A    
Ba1   O19   S    
C26   O14   D    
C7    C8    S    
O22   P3    S    
C50   C53   A    
C56   F12   S    
C37   C43   A    
C4    O22   S    
C28   O26   S    
O4    P1    S    
C55   H39   S    
O17   P1    S    
Ba2   O24   S    
C47   C60   A    
C53   C58   A    
C45   O3    S    
C21   F2    S    
C66   N1    Am   
C15   C31   D    
O3    P5    S    
C4    H37   S    
C46   C58   A    
C34   H4    S    
C4    C16   S    
C20   H17   S    
C44   C59   A    
C49   C50   A    
O18   P6    S    
Ba1   P1    S    
C17   C20   A    
C40   H1    S    
C13   C39   A    
C15   H25   S    
O27   P7    S    
C3    C5    S    
C18   C37   A    
O16   P6    D    
C23   F10   S    
Ba2   O6    S    
C62   H34   S    
C40   H12   S    
C28   H29   S    
C16   H7    S    
C11   H16   S    
O9    P8    S    
C23   O7    S    
C41   C42   A    
C35   C36   A    
C10   C66   A    
C51   C60   A    
C29   C30   S    
Ba2   O28   S    
C27   O11   D    
C48   C49   A    
Ba1   O20   S    
Ba2   O25   S    
C28   H40   S    
C61   H23   S    
O1    P1    D    
C33   N2    S    
C1    C12   S    
O28   P5    S    
C52   F8    S    
C5    C14   S    
C5    P8    S    
Ba2   O23   S    
C65   H13   S    
C7    H36   S    
C29   C33   D    
C66   O10   D    
Ba1   O4    S    
C63   H44   S    
C18   C41   A    
C50   C51   A    
C61   F9    S    
O20   P3    S    
C3    H19   S    
O5    P2    S    
C48   P5    S    
C32   H22   S    
C45   H8    S    
O24   P4    S    
Ba1   P2    S    
C49   F5    S    
O12   P2    S    
Ba1   O1    S    
C34   F11   S    
C9    C10   A    
C2    N1    Am   
O15   P6    S    
C12   H30   S    
Ba2   O5    S    
C64   H11   S    
O23   P4    D    
C1    H6    S    
C62   C63   S    
C2    C13   A    
Ba1   O27   S    
C8    N1    S    
C61   H32   S    
C3    C8    D    
C34   H5    S    
C6    P4    S    
C63   H43   S    
C64   F13   S    
C46   C59   A    
C52   F1    S    
C62   O12   S    
Ba2   O27   S    
C30   P6    S    
C23   H3    S    
C31   C32   D    
C64   C65   S    
C26   N2    Am   
Ba1   O24   S    
O19   P2    D    
O2    P5    D    
O8    P8    D    
C65   H14   S    
C23   C34   S    
O26   P4    S    
C39   H20   S    
C60   P7    S    
C18   C19   A    
C65   F14   S    
C16   F6    S    
C47   C48   A    
O6    P7    D    
C44   C54   A    
C25   C26   A    
C15   C30   S    
C39   C43   A    
C20   C21   A    
C28   C40   S    
C9    C36   A    
Ba1   O5    S    
C31   P1    S    
C63   H42   S    
C52   O17   S    
C45   C56   S    
