data_mof_unit_54633.cif
_audit_creation_date              2013-03-05T15:40:44-0500
_audit_creation_method            fapswitch 2.2
_symmetry_space_group_name_H-M    P1
_symmetry_Int_Tables_number       1
_space_group_crystal_system       triclinic
_cell_length_a                    6.934419
_cell_length_b                    17.373111
_cell_length_c                    24.02437
_cell_angle_alpha                 103.874489
_cell_angle_beta                  90.404482
_cell_angle_gamma                 90.187246
_cell_volume                      2809.7223192

loop_
_atom_site_label
_atom_site_type_symbol
_atom_site_description
_atom_site_fract_x
_atom_site_fract_y
_atom_site_fract_z
_atom_type_partial_charge
O1    O     O_R   0.494290 0.391990 0.999150 -0.558225
O2    O     O_R   0.827170 0.534410 0.082350 -0.546102
O3    O     O_R   0.994360 0.608010 0.000850 -0.534765
C1    C     C_R   0.658647 0.548014 0.106184 0.943356
O4    O     O_R   0.824210 0.388010 0.004470 -0.569846
O5    O     O_R   0.991370 0.460560 0.922410 -0.570549
C2    C     C_R   0.654306 0.354956 0.001512 0.863828
O6    O     O_R   0.497270 0.539440 0.077590 -0.524411
O7    O     O_3   0.659770 0.523970 0.973170 -0.247197
V1    V     V_3+5 0.935840 0.495550 0.004980 1.244253
O8    O     O_R   0.320910 0.465590 0.917650 -0.574075
C3    C     C_R   0.151596 0.450459 0.893860 0.824340
O9    O     O_R   0.323870 0.611990 0.995530 -0.505250
C4    C     C_R   0.154295 0.644942 0.998662 0.840701
V2    V     V_3+5 0.435470 0.504450 0.995020 1.270666
O10   O     O_3   0.161670 0.476030 0.026830 -0.256242
C5    C     C_2   0.143076 0.729765 0.998044 0.075001
C6    C     C_2   0.972245 0.770520 0.003017 0.100277
C7    C     C_R   0.060393 0.249065 0.628228 0.577338
N1    N     N_R   0.115326 0.326746 0.648425 -0.456135
C8    C     C_R   0.162792 0.372507 0.611195 0.612749
C9    C     C_R   0.153110 0.340783 0.551337 -0.084189
C10   C     C_R   0.093152 0.261590 0.530057 -0.047874
C11   C     C_R   0.048460 0.215073 0.568787 -0.067612
C12   C     C_R   0.205933 0.385947 0.512548 -0.003174
C13   C     C_R   0.194711 0.354274 0.453069 0.373415
C14   C     C_R   0.119209 0.276639 0.431519 -0.100536
C15   C     C_R   0.077641 0.228982 0.470102 -0.112307
C16   C     C_R   0.020611 0.148864 0.448815 -0.097993
C17   C     C_R   0.973404 0.102757 0.488461 0.348069
C18   C     C_R   0.990419 0.136029 0.547527 -0.089434
C19   C     C_R   0.078811 0.245527 0.372677 0.615077
N2    N     N_R   0.039351 0.166425 0.351854 -0.456287
C20   C     C_R   0.018793 0.117474 0.388602 0.606733
O11   O     O_2   0.018405 0.204555 0.665541 -0.519635
O12   O     O_2   0.217184 0.448695 0.631909 -0.465208
H1    H     H_    0.262487 0.445440 0.528361 0.193959
O13   O     O_2   0.071408 0.294448 0.336789 -0.454407
O14   O     O_2   0.002117 0.038641 0.366858 -0.447150
H2    H     H_    0.951875 0.100039 0.576918 0.171772
C21   C     C_R   0.858256 0.089078 0.266975 -0.022226
C22   C     C_R   0.836330 0.059852 0.207405 0.293781
C23   C     C_R   0.976889 0.078032 0.169721 -0.176554
C24   C     C_R   0.138059 0.123887 0.193618 -0.088755
H3    H     H_    0.247338 0.139511 0.166221 0.139548
C25   C     C_R   0.160867 0.150706 0.252923 0.026022
H4    H     H_    0.288328 0.184827 0.269758 0.126288
C26   C     C_R   0.019957 0.134741 0.290356 0.186551
C27   C     C_R   0.301178 0.382558 0.737377 0.009284
C28   C     C_R   0.310118 0.412203 0.796981 -0.096915
C29   C     C_R   0.141380 0.420476 0.830265 -0.094037
C30   C     C_R   0.963412 0.398890 0.802094 -0.098219
H5    H     H_    0.830573 0.404367 0.826116 0.092124
C31   C     C_R   0.954901 0.369041 0.742497 0.021206
H6    H     H_    0.816703 0.352256 0.721803 0.081624
C32   C     C_R   0.123714 0.360316 0.709662 0.265103
C33   C     C_R   0.473272 0.875855 0.609258 0.587582
N3    N     N_R   0.494321 0.828317 0.647042 -0.440568
C34   C     C_R   0.530672 0.748794 0.627106 0.624147
C35   C     C_R   0.570893 0.716103 0.568406 -0.150627
C36   C     C_R   0.541869 0.763763 0.529195 -0.073597
C37   C     C_R   0.488084 0.843815 0.549698 -0.020122
C38   C     C_R   0.640190 0.637835 0.547943 0.298885
C39   C     C_R   0.673692 0.607238 0.488932 0.314506
C40   C     C_R   0.631320 0.653088 0.448750 -0.145094
C41   C     C_R   0.567125 0.731855 0.469462 -0.076954
C42   C     C_R   0.530895 0.779646 0.430582 -0.022763
C43   C     C_R   0.472435 0.858577 0.451602 0.052940
C44   C     C_R   0.453945 0.890560 0.510380 0.015844
C45   C     C_R   0.655828 0.624110 0.388611 0.678622
N4    N     N_R   0.616562 0.671236 0.351592 -0.438978
C46   C     C_R   0.554897 0.747595 0.371437 0.672152
O15   O     O_2   0.440954 0.954150 0.629016 -0.526731
O16   O     O_2   0.523504 0.701275 0.663962 -0.454390
O17   O     O_2   0.718193 0.549629 0.366956 -0.427260
O18   O     O_2   0.516741 0.792430 0.333980 -0.455980
H7    H     H_    0.442853 0.896345 0.422680 0.172802
C47   C     C_R   0.794643 0.656140 0.259201 0.395417
C48   C     C_R   0.798726 0.625212 0.199266 -0.120033
H8    H     H_    0.919167 0.639645 0.175081 0.163128
C49   C     C_R   0.650171 0.576062 0.169949 -0.223339
C50   C     C_R   0.494134 0.556587 0.201998 0.303662
C51   C     C_R   0.486622 0.589549 0.261385 -0.040465
C52   C     C_R   0.634180 0.638844 0.290417 0.134520
C53   C     C_R   0.631938 0.845203 0.744571 -0.014036
C54   C     C_R   0.620356 0.870644 0.804412 0.305937
C55   C     C_R   0.466571 0.920690 0.829914 -0.257298
C56   C     C_R   0.324506 0.941986 0.793183 0.294189
C57   C     C_R   0.331463 0.909423 0.733569 -0.020516
H9    H     H_    0.218249 0.923134 0.706269 0.154774
C58   C     C_R   0.485775 0.861745 0.708628 0.140122
C59   C     C_2   0.642571 0.269907 0.001928 -0.218993
H10   H     H_    0.777036 0.239350 0.005285 0.101205
C60   C     C_2   0.472888 0.230074 0.998000 -0.204154
H11   H     H_    0.338416 0.260631 0.994652 0.108543
O19   O     O_R   0.618210 0.960470 0.922400 -0.533559
O20   O     O_R   0.291310 0.111960 0.995450 -0.563452
O21   O     O_R   0.124210 0.039530 0.077580 -0.559666
C61   C     C_R   0.461195 0.145021 0.998411 0.853646
O22   O     O_R   0.288310 0.965490 0.917650 -0.511711
O23   O     O_R   0.121180 0.892010 0.999220 -0.538519
C62   C     C_R   0.456721 0.950488 0.893805 0.955564
O24   O     O_R   0.621230 0.107990 0.000760 -0.580372
O25   O     O_3   0.455770 0.976060 0.026840 -0.217453
V3    V     V_3+5 0.179680 0.004440 0.995020 1.297798
O26   O     O_R   0.791670 0.888040 0.004570 -0.490038
C63   C     C_R   0.961242 0.855198 0.001840 0.883142
O27   O     O_R   0.794680 0.034510 0.082370 -0.531145
C64   C     C_R   0.964028 0.048617 0.106159 0.837581
V4    V     V_3+5 0.680070 0.995560 0.005010 1.328718
O28   O     O_3   0.953840 0.023940 0.973160 -0.274761
N5    N     N_R   0.321614 0.768277 0.992028 0.106716
O29   O     O_R   0.375640 0.774332 0.941519 -0.284438
O30   O     O_R   0.411476 0.808440 0.037515 -0.264376
H12   H     H_    0.432895 0.375891 0.712775 0.088467
H13   H     H_    0.449680 0.428216 0.816973 0.098820
N6    N     N_R   0.691821 0.590214 0.586977 0.152229
O31   O     O_R   0.838430 0.610616 0.621548 -0.265034
O32   O     O_R   0.611389 0.521147 0.582189 -0.283758
N7    N     N_R   0.769651 0.532541 0.471769 0.146742
O33   O     O_R   0.670116 0.468509 0.450919 -0.240298
O34   O     O_R   0.943569 0.526127 0.490553 -0.302205
H14   H     H_    0.411420 0.952024 0.524853 0.145423
N8    N     N_R   0.953684 0.704278 0.287233 0.118456
O35   O     O_R   0.073321 0.735996 0.257548 -0.290916
O36   O     O_R   0.989915 0.711719 0.341481 -0.341321
N9    N     N_R   0.793638 0.732119 0.009343 0.111287
O37   O     O_R   0.739258 0.726615 0.059976 -0.323751
O38   O     O_R   0.702953 0.692022 0.963998 -0.256076
N10   N     N_R   0.347287 0.500745 0.175759 0.106953
O39   O     O_R   0.170840 0.509699 0.194230 -0.339005
O40   O     O_R   0.394988 0.434242 0.140673 -0.353044
H15   H     H_    0.366513 0.575351 0.285814 0.167553
H16   H     H_    0.752421 0.808793 0.725797 0.151906
N11   N     N_R   0.761103 0.841383 0.838323 0.108205
O41   O     O_R   0.704712 0.805461 0.877070 -0.294279
O42   O     O_R   0.940830 0.835537 0.822723 -0.332833
N12   N     N_R   0.178002 0.999493 0.814994 0.118920
O43   O     O_R   0.225284 0.066656 0.849798 -0.361721
O44   O     O_R   0.006947 0.992028 0.791625 -0.331844
N13   N     N_R   0.278272 0.398427 0.415592 0.151681
O45   O     O_R   0.400598 0.364142 0.376698 -0.268889
O46   O     O_R   0.261922 0.475164 0.426878 -0.263177
N14   N     N_R   0.894236 0.024244 0.470219 0.119312
O47   O     O_R   0.735142 0.013024 0.440262 -0.330751
O48   O     O_R   0.955687 0.968380 0.493432 -0.357262
H17   H     H_    0.747621 0.076452 0.295185 0.140340
N15   N     N_R   0.675160 0.009199 0.186562 0.095583
O49   O     O_R   0.530741 0.036379 0.162403 -0.358029
O50   O     O_R   0.652402 0.944214 0.203712 -0.266201

loop_
_geom_bond_atom_site_label_1
_geom_bond_atom_site_label_2
_geom_bond_distance
_ccdc_geom_bond_type
O23   C63   1.287900 A    
C61   O24   1.292212 A    
C55   C56   1.425762 A    
O19   C62   1.298758 A    
C21   C22   1.406059 A    
C31   H6    1.082818 S    
O2    C1    1.302199 A    
C7    N1    1.371790 A    
C1    O6    1.298210 A    
C22   N15   1.431276 S    
N5    O30   1.300468 A    
C49   C50   1.418588 A    
C53   C58   1.401465 A    
C33   C37   1.410085 A    
C8    O12   1.349086 S    
C53   C54   1.402048 A    
O27   C64   1.298930 A    
O22   V3    1.974896 S    
O21   V3    1.971314 S    
C35   C38   1.417243 A    
N8    O36   1.301049 A    
C15   C16   1.416851 A    
N15   O50   1.300797 A    
N6    O32   1.301001 A    
O5    C3    1.300019 A    
C17   C18   1.401962 A    
C38   N6    1.435736 S    
O26   C63   1.303867 A    
C44   H14   1.083296 S    
C40   C45   1.423006 A    
C17   N14   1.434921 S    
C18   H2    1.083627 S    
C42   C46   1.407568 A    
C33   O15   1.348922 S    
V4    O28   2.151274 S    
O25   V3    2.158510 S    
O9    C4    1.304282 A    
C12   H1    1.083208 S    
C6    C63   1.480359 S    
O8    V2    1.978808 S    
C36   C41   1.421276 A    
C1    C49   1.493696 S    
N7    O34   1.299182 A    
C43   C44   1.394976 A    
C9    C12   1.404228 A    
C10   C11   1.406414 A    
C45   N4    1.372093 A    
O1    V2    2.022642 S    
C19   O13   1.348866 S    
C57   C58   1.402492 A    
C13   N13   1.438912 S    
C47   N8    1.443124 S    
O7    V1    2.158511 S    
C46   O18   1.349326 S    
C53   H16   1.083297 S    
O20   V3    2.017364 S    
C30   C31   1.401766 A    
C41   C42   1.412423 A    
V3    O28   1.708897 S    
N7    O33   1.299108 A    
C34   C35   1.418302 A    
O21   C64   1.300026 A    
O1    C2    1.292171 A    
C8    C9    1.412295 A    
C4    C5    1.479561 S    
C60   H11   1.086495 S    
O22   C62   1.303753 A    
N5    O29   1.300497 A    
O20   C61   1.302908 A    
C24   C25   1.396435 A    
C5    C6    1.373244 D    
C25   C26   1.403829 A    
O23   V3    2.019873 S    
C31   C32   1.404434 A    
C20   O14   1.347964 S    
N11   O41   1.300397 A    
N15   O49   1.299663 A    
N14   O48   1.301341 A    
C48   C49   1.407827 A    
C47   C48   1.411529 A    
C12   C13   1.404201 A    
C38   C39   1.410833 A    
O19   V4    1.974972 S    
C16   C20   1.418273 A    
C50   C51   1.405583 A    
C42   C43   1.405044 A    
C37   C44   1.404923 A    
C35   C36   1.409248 A    
N13   O46   1.300676 A    
N10   O40   1.301603 A    
C23   C24   1.406793 A    
N9    O38   1.300384 A    
C16   C17   1.422874 A    
C6    N9    1.431100 S    
C55   C62   1.499767 S    
C51   C52   1.401645 A    
C21   H17   1.083309 S    
C59   C60   1.354292 D    
C28   C29   1.410091 A    
C13   C14   1.420542 A    
C10   C15   1.418892 A    
C56   C57   1.409277 A    
C34   O16   1.348673 S    
C56   N12   1.438018 S    
O3    C4    1.287169 A    
N12   O44   1.301424 A    
C27   H12   1.082818 S    
C40   C41   1.413827 A    
O6    V2    1.973878 S    
O24   V4    2.022967 S    
C50   N10   1.437592 S    
C22   C23   1.420203 A    
N9    O37   1.301173 A    
O2    V1    1.974820 S    
C5    N5    1.429969 S    
C45   O17   1.347594 S    
C3    C29   1.492374 S    
C30   H5    1.082763 S    
O4    C2    1.302979 A    
N4    C52   1.448433 S    
N3    C58   1.455764 S    
C43   H7    1.083013 S    
N11   O42   1.301236 A    
C25   H4    1.082941 S    
C14   C19   1.412772 A    
C54   C55   1.424204 A    
C24   H3    1.082822 S    
N14   O47   1.301214 A    
O5    V1    1.971505 S    
O8    C3    1.300275 A    
O27   V4    1.978921 S    
C27   C32   1.403198 A    
C39   N7    1.431698 S    
C39   C40   1.420931 A    
O9    V2    2.021930 S    
N10   O39   1.301544 A    
N3    C34   1.374150 A    
C11   C18   1.402051 A    
C29   C30   1.408948 A    
O3    V1    2.019937 S    
C7    O11   1.349440 S    
N6    O31   1.301368 A    
C19   N2    1.370985 A    
O25   V4    1.703625 S    
C33   N3    1.373254 A    
C60   C61   1.482000 S    
C2    C59   1.481977 S    
C59   H10   1.086492 S    
C21   C26   1.404905 A    
N2    C20   1.372605 A    
C7    C11   1.410131 A    
C28   H13   1.082711 S    
N1    C32   1.447412 S    
O7    V2    1.703893 S    
C36   C37   1.411859 A    
C51   H15   1.083489 S    
N12   O43   1.301477 A    
C48   H8    1.083222 S    
C47   C52   1.417230 A    
C54   N11   1.437140 S    
O4    V1    2.017265 S    
N4    C46   1.368667 A    
N1    C8    1.372537 A    
O26   V4    2.021970 S    
C27   C28   1.401578 A    
C14   C15   1.413547 A    
N2    C26   1.452796 S    
C9    C10   1.408213 A    
V1    O10   1.708845 S    
C23   C64   1.491476 S    
C57   H9    1.082659 S    
N13   O45   1.301928 A    
V2    O10   2.151275 S    
N8    O35   1.301653 A    
