data_mof_unit_52501.cif
_audit_creation_date              2012-12-10T17:33:02-0500
_audit_creation_method            fapswitch 2.2
_symmetry_space_group_name_H-M    P1
_symmetry_Int_Tables_number       1
_space_group_crystal_system       triclinic
_cell_length_a                    12.437668
_cell_length_b                    13.221029
_cell_length_c                    14.374632
_cell_angle_alpha                 94.464802
_cell_angle_beta                  108.048582
_cell_angle_gamma                 117.193639
_cell_volume                      1930.55568184

loop_
_atom_site_label
_atom_site_type_symbol
_atom_type_description
_atom_site_fract_x
_atom_site_fract_y
_atom_site_fract_z
_atom_type_partial_charge
C1    C     C_R   0.648964 0.714336 0.506087 0.831260
C2    C     C_R   0.848128 0.503156 0.922551 -0.090573
C3    C     C_R   0.791573 0.510714 0.992609 0.085810
C4    C     C_R   0.948172 0.473770 0.948966 0.046069
C5    C     C_R   0.013192 0.481665 0.051690 0.038712
C6    C     C_R   0.962507 0.500686 0.122718 -0.309852
C7    C     C_R   0.850518 0.511802 0.093360 0.400956
C8    C     C_R   0.978075 0.428464 0.874309 -0.183354
C9    C     C_R   0.079937 0.404968 0.900633 -0.205609
C10   C     C_R   0.155250 0.425783 0.002195 0.153672
C11   C     C_R   0.123594 0.465568 0.078852 0.098842
C12   C     C_R   0.618972 0.517532 0.686757 0.839409
C13   C     C_R   0.261146 0.405839 0.027996 -0.169963
C14   C     C_R   0.336465 0.425020 0.129309 -0.195121
C15   C     C_R   0.204751 0.489414 0.180162 -0.187678
C16   C     C_R   0.171707 0.952405 0.408063 -0.185126
C17   C     C_R   0.264718 0.159596 0.482877 -0.161664
C18   C     C_R   0.726255 0.931185 0.558492 -0.095736
C19   C     C_R   0.841175 0.039808 0.609775 -0.159415
C20   C     C_R   0.959669 0.061492 0.605022 0.396161
C21   C     C_R   0.959253 0.983294 0.530432 -0.027959
C22   C     C_R   0.845134 0.870195 0.483541 0.019116
C23   C     C_R   0.348704 0.284826 0.489301 0.828315
C24   C     C_R   0.065465 0.013498 0.498710 0.074962
C25   C     C_R   0.064692 0.925665 0.434852 0.081967
C26   C     C_R   0.953238 0.814484 0.391946 -0.206928
C27   C     C_R   0.842187 0.790337 0.410129 -0.129984
C28   C     C_R   0.164263 0.130529 0.518210 -0.315475
C29   C     C_R   0.274604 0.067978 0.435015 0.411076
C30   C     C_R   0.735416 0.839543 0.510125 -0.179808
C31   C     C_R   0.253796 0.690594 0.659440 -0.298803
C32   C     C_R   0.651061 0.346000 0.357447 0.103912
C33   C     C_R   0.726547 0.325062 0.313941 -0.210575
C34   C     C_R   0.380792 0.482299 0.313353 0.826789
C35   C     C_R   0.862745 0.390364 0.361226 -0.189520
C36   C     C_R   0.926229 0.472513 0.456621 0.008329
C37   C     C_R   0.844353 0.499070 0.492213 0.270405
C38   C     C_R   0.067033 0.533863 0.515219 -0.078342
C39   C     C_R   0.120528 0.630380 0.598401 0.122710
C40   C     C_R   0.039687 0.662193 0.625373 -0.234569
C41   C     C_R   0.904599 0.595994 0.575255 -0.104197
C42   C     C_R   0.156077 0.499737 0.499906 0.102777
C43   C     C_R   0.337684 0.657728 0.639746 0.154935
C44   C     C_R   0.681218 0.521088 0.793338 -0.065889
C45   C     C_R   0.308183 0.466569 0.205901 -0.050571
C46   C     C_R   0.676633 0.517383 0.960302 -0.141331
C47   C     C_R   0.618712 0.516697 0.860228 -0.307028
C48   C     C_R   0.802602 0.526004 0.827981 0.360647
Cu1   Cu    Cu3+1 0.416420 0.526630 0.522910 1.015491
Cu2   Cu    Cu3+1 0.583580 0.473370 0.477090 0.953535
H1    H     H_    0.284976 0.374445 0.969680 0.150404
H2    H     H_    0.948635 0.748756 0.338331 0.156144
H3    H     H_    0.174013 0.883789 0.363634 0.158178
H4    H     H_    0.159249 0.201467 0.554685 0.244061
H5    H     H_    0.840362 0.106968 0.657394 0.194452
H6    H     H_    0.753102 0.708924 0.364059 0.175494
H7    H     H_    0.190824 0.528372 0.240717 0.168215
H8    H     H_    0.080969 0.736254 0.689381 0.158998
H9    H     H_    0.292412 0.761422 0.725607 0.163689
H10   H     H_    0.545323 0.297337 0.319042 0.151199
H11   H     H_    0.915469 0.379072 0.318513 0.161128
H12   H     H_    0.679635 0.260959 0.241727 0.162380
H13   H     H_    0.850258 0.623765 0.604021 0.227417
H14   H     H_    0.416183 0.406998 0.147580 0.165679
H15   H     H_    0.100337 0.371073 0.841124 0.183332
H16   H     H_    0.628677 0.519268 0.011226 0.198612
H17   H     H_    0.525972 0.514546 0.835724 0.205929
H18   H     H_    0.002817 0.499858 0.200437 0.136378
H19   H     H_    0.920108 0.406736 0.794370 0.205596
N1    N     N_R   0.290690 0.566960 0.557640 -0.256620
N2    N     N_R   0.709100 0.433710 0.442970 -0.219425
O1    O     O_R   0.545970 0.684450 0.528810 -0.514418
O2    O     O_R   0.687130 0.639470 0.490120 -0.626245
O3    O     O_R   0.519670 0.535100 0.660030 -0.591710
O4    O     O_R   0.660830 0.490120 0.621340 -0.553383
O5    O     O_R   0.312870 0.360530 0.509880 -0.570313
O6    O     O_R   0.454030 0.315550 0.471190 -0.583179
O7    O     O_R   0.339170 0.509880 0.378660 -0.544185
O8    O     O_R   0.480330 0.464900 0.339970 -0.606706
O9    O     O_3   0.798720 0.526077 0.162363 -0.759659
H20   H     H_    0.857314 0.534670 0.231101 0.319914
O10   O     O_3   0.377894 0.087989 0.407730 -0.718491
H21   H     H_    0.459403 0.140834 0.468047 0.343490
C49   C     C_2   0.599565 0.917775 0.554853 0.946343
O11   O     O_2   0.597043 0.976676 0.623278 -0.596262
O12   O     O_R   0.483688 0.842274 0.470521 -0.746476
H22   H     H_    0.404220 0.841487 0.476562 0.327935
O13   O     O_3   0.072260 0.155738 0.677497 -0.738019
H23   H     H_    0.141905 0.134917 0.693481 0.319605
C50   C     C_2   0.470207 0.711204 0.720075 0.886470
O14   O     O_2   0.568100 0.767974 0.703031 -0.572674
O15   O     O_R   0.482403 0.702128 0.818637 -0.786521
H24   H     H_    0.577303 0.743394 0.868195 0.335394
C51   C     C_2   0.099161 0.378051 0.441154 0.865019
O16   O     O_2   0.112369 0.358489 0.362223 -0.607477
O17   O     O_R   0.018339 0.284710 0.471890 -0.759669
H25   H     H_    0.976332 0.205585 0.422366 0.331577
O18   O     O_3   0.880122 0.564856 0.772966 -0.759405
H26   H     H_    0.973358 0.609904 0.820843 0.327018

loop_
_geom_bond_atom_site_label_1
_geom_bond_atom_site_label_2
_ccdc_geom_bond_type
C12   O3    A    
C17   C29   A    
C35   C36   A    
C23   O5    A    
C4    C8    A    
Cu2   O8    S    
C27   H6    S    
C8    H19   S    
C17   C23   S    
C31   C43   A    
C36   C37   A    
C49   O12   S    
C46   H16   S    
C3    C7    A    
C5    C6    A    
O18   H26   S    
C42   N1    A    
Cu1   O7    S    
C18   C19   A    
C31   H9    S    
C16   H3    S    
C1    C30   S    
C13   H1    S    
C11   C15   A    
C19   C20   A    
C8    C9    A    
Cu1   O1    S    
C18   C49   S    
C18   C30   A    
C14   C45   A    
C9    C10   A    
C44   C47   A    
O13   H23   S    
C6    H18   S    
C21   C22   A    
C15   H7    S    
C47   H17   S    
C32   N2    A    
C43   C50   S    
C40   H8    S    
C1    O1    A    
C24   C25   A    
Cu2   O2    S    
C39   C40   A    
C28   H4    S    
O12   H22   S    
C33   H12   S    
C2    C48   A    
C16   C29   A    
C23   O6    A    
C2    C4    A    
Cu2   N2    S    
C26   H2    S    
C34   O8    A    
C50   O15   S    
C14   H14   S    
O17   H25   S    
C26   C27   A    
Cu1   O5    S    
C35   H11   S    
C34   C45   S    
C49   O11   D    
C51   O17   S    
C40   C41   A    
O10   H21   S    
C43   N1    A    
C22   C27   A    
C37   N2    A    
C12   O4    A    
C41   H13   S    
Cu2   O6    S    
C19   H5    S    
C16   C25   A    
C46   C47   A    
C22   C30   A    
C42   C51   S    
C17   C28   A    
C24   C28   A    
O9    H20   S    
C10   C13   A    
C5    C11   A    
C6    C7    A    
C48   O18   S    
C3    C46   A    
Cu1   N1    S    
C1    O2    A    
C32   C33   A    
C36   C38   A    
C2    C3    A    
C25   C26   A    
C29   O10   S    
C12   C44   S    
Cu2   O4    S    
C34   O7    A    
C50   O14   D    
C38   C39   A    
C20   O13   S    
O15   H24   S    
C33   C35   A    
C31   C39   A    
C37   C41   A    
C51   O16   D    
C9    H15   S    
C10   C11   A    
C38   C42   A    
C4    C5    A    
C20   C21   A    
Cu1   Cu2   S    
C21   C24   A    
C32   H10   S    
Cu1   O3    S    
C13   C14   A    
C44   C48   A    
C7    O9    S    
C15   C45   A    
