data_mof_unit_57961.cif
_audit_creation_date              2012-12-10T19:44:35-0500
_audit_creation_method            fapswitch 2.2
_symmetry_space_group_name_H-M    P1
_symmetry_Int_Tables_number       1
_space_group_crystal_system       triclinic
_cell_length_a                    8.615447
_cell_length_b                    14.952812
_cell_length_c                    14.309841
_cell_angle_alpha                 89.875381
_cell_angle_beta                  97.366915
_cell_angle_gamma                 91.539396
_cell_volume                      1827.58906882

loop_
_atom_site_label
_atom_site_type_symbol
_atom_type_description
_atom_site_fract_x
_atom_site_fract_y
_atom_site_fract_z
_atom_type_partial_charge
C1    C     C_R   0.501166 0.327981 0.500290 1.011662
C2    C     C_R   0.500566 0.671605 0.500045 0.948753
C3    C     C_R   0.369426 0.468059 0.094565 0.330363
C4    C     C_R   0.554405 0.574702 0.899207 0.329361
C5    C     C_R   0.376501 0.462718 0.193818 -0.084492
C6    C     C_R   0.564511 0.570651 0.801428 -0.067765
C7    C     C_R   0.624768 0.536028 0.212929 0.496621
C8    C     C_R   0.440395 0.427376 0.791626 0.516408
C9    C     C_R   0.636783 0.526026 0.116251 0.364750
C10   C     C_R   0.456432 0.421035 0.890683 0.362797
C11   C     C_R   0.504159 0.496656 0.053472 -0.222461
C12   C     C_R   0.505364 0.497395 0.946945 -0.229810
C13   C     C_R   0.202546 0.502289 0.476498 0.913098
C14   C     C_R   0.797666 0.497601 0.523787 0.871659
C15   C     C_2   0.041199 0.518929 0.468406 0.233443
C16   C     C_2   0.959908 0.482202 0.533236 0.207515
C17   C     C_R   0.404818 0.090169 0.437855 -0.292430
C18   C     C_R   0.618676 0.910005 0.475444 -0.154639
C19   C     C_R   0.406407 0.182861 0.433106 0.380163
C20   C     C_R   0.624779 0.818085 0.472499 0.367872
C21   C     C_R   0.504040 0.231689 0.501882 -0.208024
C22   C     C_R   0.498685 0.767194 0.500845 -0.279357
C23   C     C_R   0.601003 0.189217 0.574539 0.375236
C24   C     C_R   0.369662 0.807525 0.532922 0.395758
C25   C     C_R   0.596457 0.095608 0.580056 0.384117
C26   C     C_R   0.366955 0.901008 0.538272 0.383182
C27   C     C_R   0.497439 0.047319 0.510434 -0.095175
C28   C     C_R   0.493260 0.951079 0.508807 -0.148405
H1    H     H_    0.330755 0.050934 0.385249 0.190003
H2    H     H_    0.714336 0.950059 0.453366 0.211816
N1    N     N_R   0.500000 0.499980 0.252470 -0.238756
N2    N     N_R   0.500000 0.500020 0.747530 -0.235019
O1    O     O_R   0.500010 0.369070 0.579480 -0.578781
O2    O     O_R   0.499990 0.630930 0.420520 -0.649697
O3    O     O_R   0.500010 0.369060 0.420520 -0.594730
O4    O     O_R   0.499990 0.630940 0.579480 -0.600565
O5    O     O_R   0.271750 0.500000 0.560890 -0.590889
O6    O     O_R   0.728250 0.500000 0.439110 -0.586557
O7    O     O_R   0.271750 0.499990 0.401930 -0.652794
O8    O     O_R   0.728250 0.500010 0.598070 -0.638177
Zn1   Zn    Zn3+2 0.500000 0.500010 0.606140 1.011440
Zn2   Zn    Zn3+2 0.500000 0.499990 0.393860 0.989760
O9    O     O_3   0.976901 0.581816 0.404658 -0.732127
H3    H     H_    0.059052 0.606674 0.368612 0.374279
O10   O     O_3   0.026544 0.422729 0.600514 -0.779510
H4    H     H_    0.944472 0.397613 0.636431 0.374862
O11   O     O_3   0.311332 0.227051 0.363766 -0.741572
H5    H     H_    0.250158 0.182555 0.321738 0.349200
O12   O     O_3   0.756627 0.781662 0.443581 -0.703971
H6    H     H_    0.760748 0.717286 0.459262 0.347493
O13   O     O_3   0.699131 0.241396 0.638066 -0.726309
H7    H     H_    0.762161 0.203146 0.684072 0.402661
O14   O     O_3   0.249026 0.753187 0.558246 -0.736274
H8    H     H_    0.164644 0.790030 0.577272 0.401421
O15   O     O_3   0.688755 0.054444 0.653281 -0.738643
H9    H     H_    0.661236 0.989932 0.655489 0.361896
O16   O     O_3   0.241710 0.940175 0.572567 -0.742849
H10   H     H_    0.261068 0.005289 0.580982 0.365302
O17   O     O_3   0.229542 0.444041 0.040806 -0.706934
H11   H     H_    0.223876 0.474418 0.979018 0.364167
O18   O     O_3   0.595244 0.654791 0.945181 -0.699708
H12   H     H_    0.541250 0.657911 0.002036 0.366054
C29   C     C_1   0.248772 0.417452 0.231646 0.475678
N3    N     N_1   0.144863 0.380532 0.260261 -0.136113
C30   C     C_1   0.647654 0.642116 0.759858 0.423100
N4    N     N_1   0.716052 0.699804 0.727900 -0.180530
O19   O     O_3   0.742079 0.583775 0.265879 -0.638243
H13   H     H_    0.695388 0.611572 0.317709 0.384525
O20   O     O_3   0.365455 0.357490 0.740845 -0.654879
H14   H     H_    0.310683 0.383210 0.682603 0.388208
O21   O     O_3   0.778438 0.549427 0.086155 -0.652662
H15   H     H_    0.786061 0.518854 0.025708 0.357185
O22   O     O_3   0.417677 0.339786 0.928879 -0.647966
H16   H     H_    0.469905 0.336269 0.994478 0.355005

loop_
_geom_bond_atom_site_label_1
_geom_bond_atom_site_label_2
_ccdc_geom_bond_type
C16   O10   S    
C2    C22   S    
C6    N2    A    
C11   C12   S    
O13   H7    S    
C18   C28   A    
C1    C21   S    
C20   O12   S    
C18   H2    S    
N1    Zn2   S    
O4    Zn1   S    
C4    C12   A    
C17   H1    S    
O22   H16   S    
C23   O13   S    
O11   H5    S    
O2    Zn2   S    
N2    Zn1   S    
O1    Zn1   S    
C7    C9    A    
C2    O2    A    
O15   H9    S    
C13   C15   S    
O16   H10   S    
C14   O8    A    
C15   O9    S    
O21   H15   S    
O14   H8    S    
C9    C11   A    
C5    C29   S    
C8    O20   S    
O20   H14   S    
C10   C12   A    
C13   O5    A    
C26   O16   S    
O8    Zn1   S    
C19   C21   A    
C7    N1    A    
C24   C26   A    
O6    Zn2   S    
O7    Zn2   S    
C18   C20   A    
C21   C23   A    
O9    H3    S    
O5    Zn1   S    
O18   H12   S    
C10   O22   S    
C22   C24   A    
C13   O7    A    
C4    C6    A    
C14   O6    A    
C1    O1    A    
O19   H13   S    
C17   C27   A    
C25   O15   S    
O17   H11   S    
C23   C25   A    
C3    C11   A    
C1    O3    A    
C7    O19   S    
C8    C10   A    
C30   N4    T    
C19   O11   S    
C2    O4    A    
C27   C28   S    
O12   H6    S    
O3    Zn2   S    
C3    O17   S    
C3    C5    A    
C9    O21   S    
C17   C19   A    
C14   C16   S    
O10   H4    S    
C26   C28   A    
C4    O18   S    
C6    C30   S    
C15   C16   D    
C24   O14   S    
C20   C22   A    
C29   N3    T    
C5    N1    A    
C25   C27   A    
C8    N2    A    
