data_mof_unit_37616.cif
_audit_creation_date              2012-12-11T17:06:31-0500
_audit_creation_method            fapswitch 2.2
_symmetry_space_group_name_H-M    P1
_symmetry_Int_Tables_number       1
_space_group_crystal_system       triclinic
_cell_length_a                    6.945373
_cell_length_b                    14.5227
_cell_length_c                    15.978339
_cell_angle_alpha                 90.48712
_cell_angle_beta                  90.00517
_cell_angle_gamma                 89.878604
_cell_volume                      1611.60237849

loop_
_atom_site_label
_atom_site_type_symbol
_atom_type_description
_atom_site_fract_x
_atom_site_fract_y
_atom_site_fract_z
_atom_type_partial_charge
O1    O     O_R   0.494400 0.415450 0.412630 -0.540051
O2    O     O_R   0.823940 0.405730 0.586760 -0.513770
O3    O     O_R   0.994240 0.584550 0.587370 -0.540281
C1    C     C_R   0.655313 0.382428 0.614492 0.732677
O4    O     O_R   0.824110 0.404430 0.413240 -0.544708
O5    O     O_R   0.994420 0.583240 0.412620 -0.542550
C2    C     C_R   0.655444 0.382586 0.384000 0.713893
O6    O     O_R   0.494230 0.416760 0.587380 -0.539298
O7    O     O_3   0.660800 0.558670 0.500000 -0.375541
V1    V     V_3+5 0.935650 0.489120 0.500000 1.432612
O8    O     O_R   0.324140 0.594270 0.413240 -0.540889
C3    C     C_R   0.155075 0.615597 0.383806 0.688558
O9    O     O_R   0.323960 0.595570 0.586760 -0.542874
C4    C     C_R   0.154818 0.617708 0.615637 0.679663
V2    V     V_3+5 0.435660 0.510880 0.500000 1.404964
O10   O     O_3   0.160640 0.441330 0.500000 -0.361256
C5    C     C_3   0.954846 0.720240 0.727674 -0.113682
C6    C     C_3   0.049915 0.709136 0.814736 -0.135565
H1    H     H_    0.981205 0.677358 0.870134 0.113743
H2    H     H_    0.807478 0.697133 0.710758 0.111590
C7    C     C_3   0.122756 0.808953 0.810053 -0.004205
C8    C     C_3   0.027767 0.820854 0.723767 -0.143456
C9    C     C_3   0.216084 0.787146 0.681186 -0.149002
C10   C     C_3   0.311165 0.776051 0.768253 -0.111979
C11   C     C_3   0.238221 0.675429 0.772171 -0.135626
C12   C     C_3   0.143244 0.687331 0.685884 -0.011270
H3    H     H_    0.940125 0.881062 0.704489 0.095320
H4    H     H_    0.285004 0.818678 0.625726 0.107090
H5    H     H_    0.458520 0.799206 0.785133 0.109862
H6    H     H_    0.325287 0.615108 0.791672 0.110987
C13   C     C_R   0.275230 0.812249 0.237028 0.097889
C14   C     C_R   0.119237 0.813574 0.181651 -0.111344
C15   C     C_R   0.966664 0.752556 0.197934 -0.183357
H7    H     H_    0.843674 0.750423 0.156662 0.136283
C16   C     C_R   0.977594 0.689075 0.264134 -0.169979
H8    H     H_    0.862161 0.640119 0.272012 0.130084
C17   C     C_R   0.141565 0.684619 0.316042 -0.107948
C18   C     C_R   0.286110 0.749850 0.302609 0.094088
C19   C     C_3   0.496842 0.736282 0.290132 -0.407556
C20   C     C_3   0.484747 0.804939 0.219043 -0.401862
H9    H     H_    0.531144 0.665115 0.268720 0.171576
H10   H     H_    0.582355 0.761800 0.344342 0.170659
H11   H     H_    0.512715 0.773924 0.156372 0.174505
H12   H     H_    0.561940 0.870431 0.232418 0.158177
C21   C     C_R   0.475691 0.296104 0.724258 0.017260
C22   C     C_R   0.644908 0.308979 0.678288 -0.177675
C23   C     C_R   0.797240 0.245148 0.691601 0.398568
C24   C     C_R   0.785121 0.181869 0.758758 -0.272323
H13   H     H_    0.906459 0.137418 0.771636 0.133836
C25   C     C_R   0.620261 0.177388 0.810027 -0.124027
C26   C     C_R   0.463587 0.232662 0.788035 0.037111
C27   C     C_3   0.331128 0.292960 0.838193 0.032320
C28   C     C_3   0.344438 0.362585 0.767370 -0.384161
H14   H     H_    0.185241 0.262356 0.844287 0.135027
H15   H     H_    0.418121 0.427922 0.784619 0.175162
H16   H     H_    0.206510 0.371391 0.733052 0.189886
C29   C     C_R   0.505376 0.320219 0.251929 0.106683
C30   C     C_R   0.648090 0.315934 0.313509 -0.168223
C31   C     C_R   0.792527 0.248804 0.303097 -0.260175
H17   H     H_    0.911382 0.247444 0.346481 0.133629
C32   C     C_R   0.778690 0.180020 0.239947 0.413655
C33   C     C_R   0.625070 0.182275 0.181232 -0.209091
C34   C     C_R   0.495761 0.256283 0.186925 0.086807
C35   C     C_3   0.281043 0.257980 0.187144 -0.360636
C36   C     C_3   0.291999 0.327458 0.258797 -0.396698
H18   H     H_    0.219660 0.190988 0.205557 0.217434
H19   H     H_    0.220787 0.287395 0.128734 0.205744
H20   H     H_    0.237141 0.300373 0.319096 0.176954
H21   H     H_    0.238140 0.396911 0.241642 0.173148
O11   O     O_R   0.771650 0.079500 0.908680 -0.542383
O12   O     O_R   0.441690 0.091800 0.082800 -0.539808
O13   O     O_R   0.271460 0.912980 0.083410 -0.540147
C37   C     C_R   0.610652 0.113012 0.112706 0.757445
O14   O     O_R   0.441930 0.090510 0.909280 -0.539389
O15   O     O_R   0.271690 0.911670 0.908660 -0.543708
C38   C     C_R   0.610690 0.112552 0.880710 0.750158
O16   O     O_R   0.771410 0.080810 0.083440 -0.510078
O17   O     O_3   0.605100 0.937580 0.996050 -0.382145
V3    V     V_3+5 0.330220 0.007110 0.996030 1.437536
O18   O     O_R   0.941980 0.900620 0.909250 -0.546738
C39   C     C_R   0.111134 0.878541 0.880340 0.666735
O19   O     O_R   0.941740 0.901920 0.082770 -0.545145
C40   C     C_R   0.110741 0.879494 0.111287 0.706851
V4    V     V_3+5 0.830220 0.985300 0.996000 1.434347
O20   O     O_3   0.105210 0.054870 0.996020 -0.356516
O21   O     O_3   0.963456 0.249955 0.643703 -0.566713
C41   C     C_3   0.000548 0.165189 0.601899 0.076432
H22   H     H_    0.008655 0.179385 0.533869 0.121129
H23   H     H_    0.885889 0.112065 0.609744 0.092468
C42   C     C_3   0.194964 0.126701 0.630362 -0.285307
H24   H     H_    0.310602 0.175569 0.612903 0.198720
H25   H     H_    0.195426 0.118834 0.699376 0.186489
C43   C     C_3   0.238635 0.033396 0.590198 -0.889451
H26   H     H_    0.120305 0.984071 0.602499 0.230687
H27   H     H_    0.374139 0.005325 0.616767 0.229617
H28   H     H_    0.257664 0.040984 0.521782 0.242411
I1    I     I_    0.454494 0.343070 0.953104 -0.464252
O22   O     O_3   0.915268 0.110454 0.235804 -0.564426
C44   C     C_3   0.882321 0.044313 0.299005 0.096651
H29   H     H_    0.889023 0.974730 0.269688 0.132634
H30   H     H_    0.737082 0.049512 0.328840 0.050071
C45   C     C_3   0.037492 0.050606 0.367165 -0.312601
H31   H     H_    0.039883 0.120741 0.394481 0.170356
H32   H     H_    0.999553 0.002805 0.418539 0.147591
C46   C     C_3   0.239162 0.026739 0.334946 -0.735353
H33   H     H_    0.265920 0.952162 0.342461 0.210450
H34   H     H_    0.349115 0.064276 0.372327 0.195926
H35   H     H_    0.258187 0.045095 0.268206 0.243069

loop_
_geom_bond_atom_site_label_1
_geom_bond_atom_site_label_2
_ccdc_geom_bond_type
C41   H22   S    
C43   H26   S    
C6    C7    S    
C32   O22   S    
O18   V4    S    
O12   V3    S    
C42   H24   S    
C19   H9    S    
C1    C22   S    
C21   C22   A    
C46   H34   S    
C17   C18   A    
O14   C38   A    
C5    C12   S    
C16   C17   A    
O13   V3    S    
O5    C3    A    
C18   C19   S    
C21   C26   A    
V2    O10   S    
C27   I1    S    
C5    H2    S    
C13   C20   S    
C45   C46   S    
C6    H1    S    
C9    C12   S    
C3    C17   S    
C10   H5    S    
C41   C42   S    
O8    V2    S    
C20   H11   S    
C23   C24   A    
C9    C10   S    
C33   C37   S    
C29   C34   A    
O1    V2    S    
O11   V4    S    
O7    V1    S    
C2    C30   S    
C1    O6    A    
C24   C25   A    
C21   C28   S    
C31   H17   S    
C43   H27   S    
O1    C2    A    
O9    C4    A    
C32   C33   A    
C6    C11   S    
C27   H14   S    
C5    C6    S    
C19   H10   S    
C28   H15   S    
C46   H35   S    
C31   C32   A    
C26   C27   S    
C35   H19   S    
C10   C11   S    
C19   C20   S    
O12   C37   A    
O17   V3    S    
O15   C39   A    
O16   V4    S    
C25   C26   A    
C11   C12   S    
C4    C12   S    
C16   H8    S    
C35   H18   S    
O2    C1    A    
C23   O21   S    
C33   C34   A    
C25   C38   S    
C42   H25   S    
C44   H29   S    
C36   H20   S    
C15   H7    S    
C9    H4    S    
V4    O20   S    
C45   H32   S    
O3    C4    A    
C24   H13   S    
C44   H30   S    
C7    C39   S    
O19   C40   A    
C43   H28   S    
O19   V4    S    
C8    H3    S    
C41   H23   S    
O11   C38   A    
C30   C31   A    
O2    V1    S    
V3    O20   S    
C27   C28   S    
C42   C43   S    
O4    C2    A    
C28   H16   S    
C11   H6    S    
C14   C40   S    
C22   C23   A    
O21   C41   S    
C13   C14   A    
C29   C36   S    
O18   C39   A    
O5    V1    S    
O8    C3    A    
O6    V2    S    
C46   H33   S    
C5    C8    S    
C13   C18   A    
O14   V3    S    
C14   C15   A    
O9    V2    S    
O7    V2    S    
O4    V1    S    
O3    V1    S    
V1    O10   S    
C35   C36   S    
C29   C30   A    
C36   H21   S    
C15   C16   A    
C45   H31   S    
O13   C40   A    
C34   C35   S    
O17   V4    S    
C20   H12   S    
C44   C45   S    
O22   C44   S    
C7    C10   S    
C37   O16   A    
C8    C9    S    
C7    C8    S    
O15   V3    S    
