data_mof_unit_21349.cif
_audit_creation_date              2012-12-11T19:30:50-0500
_audit_creation_method            fapswitch 2.2
_symmetry_space_group_name_H-M    P1
_symmetry_Int_Tables_number       1
_space_group_crystal_system       triclinic
_cell_length_a                    8.223458
_cell_length_b                    15.167457
_cell_length_c                    17.322023
_cell_angle_alpha                 100.978449
_cell_angle_beta                  97.079286
_cell_angle_gamma                 99.506287
_cell_volume                      2065.01730585

loop_
_atom_site_label
_atom_site_type_symbol
_atom_type_description
_atom_site_fract_x
_atom_site_fract_y
_atom_site_fract_z
_atom_type_partial_charge
Ba1   Ba    Ba6+2 0.844380 0.541120 0.463220 1.775712
Ba2   Ba    Ba6+2 0.345460 0.458950 0.536790 1.754105
C1    C     C_3   0.700872 0.866862 0.301362 -0.241868
C2    C     C_3   0.587144 0.775191 0.262336 0.735275
C3    C     C_3   0.336630 0.250122 0.283118 0.789881
C4    C     C_3   0.207441 0.161409 0.264365 -0.290798
C5    C     C_3   0.105574 0.277173 0.748131 0.345120
C6    C     C_3   0.134122 0.255264 0.830218 -0.304297
C7    C     C_3   0.562624 0.218839 0.693696 0.271347
C8    C     C_3   0.510829 0.123972 0.709192 -0.233474
C9    C     C_2   0.267392 0.504398 0.272808 -0.167509
C10   C     C_3   0.351109 0.573553 0.230331 -0.060149
C11   C     C_2   0.294111 0.547129 0.142039 -0.046801
C12   C     C_3   0.082615 0.723942 0.252570 0.308718
C13   C     C_2   0.140544 0.495381 0.112925 0.024916
C14   C     C_2   0.042451 0.454084 0.169954 -0.059747
C15   C     C_1   0.110705 0.461966 0.245599 0.030346
C16   C     C_R   0.891194 0.458066 0.858620 -0.082876
C17   C     C_R   0.827845 0.441427 0.777684 0.063686
C18   C     C_R   0.085535 0.528722 0.752797 0.066614
C19   C     C_R   0.149254 0.545241 0.834664 -0.067408
C20   C     C_R   0.054897 0.507342 0.887853 0.024613
C21   C     C_2   0.069597 0.475937 0.026146 -0.066387
C22   C     C_2   0.125443 0.526274 0.974291 -0.065847
C23   C     C_3   0.043656 0.745212 0.170675 -0.268348
C24   C     C_R   0.929879 0.470962 0.724492 -0.178162
C25   C     C_R   0.868037 0.173100 0.554009 0.003163
C26   C     C_R   0.801577 0.078872 0.544888 -0.062212
C27   C     C_R   0.662666 0.889436 0.527349 -0.037239
C28   C     C_R   0.823598 0.928015 0.569109 0.076280
C29   C     C_R   0.892516 0.020297 0.576987 -0.030290
C30   C     C_R   0.590932 0.795324 0.519522 -0.003319
C31   C     C_R   0.427967 0.762288 0.477906 -0.264486
C32   C     C_R   0.609124 0.195055 0.482086 -0.007751
C33   C     C_R   0.541911 0.100773 0.471832 -0.032048
C34   C     C_3   0.203267 0.752806 0.654945 0.219586
C35   C     C_R   0.637781 0.042493 0.503476 0.010473
C36   C     C_R   0.380407 0.063232 0.431258 -0.056403
C37   C     C_R   0.312774 0.971491 0.421858 -0.051965
C38   C     C_R   0.404434 0.912414 0.452845 0.020807
C39   C     C_R   0.569078 0.947679 0.493753 0.028410
C40   C     C_R   0.333228 0.819949 0.446399 0.045925
C41   C     C_R   0.768733 0.230266 0.525504 -0.288891
C42   C     C_3   0.310216 0.848876 0.674190 0.149064
C43   C     C_3   0.911089 0.258500 0.360476 0.319715
C44   C     C_3   0.833149 0.156204 0.336278 -0.377151
C45   C     C_3   0.663616 0.744852 0.725079 0.605013
C46   C     C_3   0.679689 0.830432 0.793560 0.320047
H1    H     H_    0.500059 0.760006 0.304480 -0.174085
H2    H     H_    0.314723 0.881692 0.737642 0.139866
H3    H     H_    0.437837 0.845150 0.662134 0.052055
H4    H     H_    0.826608 0.295765 0.392732 0.018212
H5    H     H_    0.030715 0.267522 0.400821 0.044822
H6    H     H_    0.695882 0.145126 0.321841 0.153606
H7    H     H_    0.865768 0.121645 0.385379 0.045540
H8    H     H_    0.876290 0.121925 0.282461 0.144904
H9    H     H_    0.534772 0.723689 0.693319 -0.076425
H10   H     H_    0.768644 0.862571 0.359525 0.096362
H11   H     H_    0.741665 0.820387 0.851102 0.107165
H12   H     H_    0.553196 0.840715 0.803951 -0.021561
H13   H     H_    0.625642 0.921177 0.312218 0.065723
H14   H     H_    0.287282 0.308099 0.315234 -0.098772
H15   H     H_    0.157674 0.150958 0.318723 0.002300
H16   H     H_    0.101704 0.164243 0.219035 0.143380
H17   H     H_    0.264333 0.102091 0.241445 0.136719
H18   H     H_    0.792854 0.886023 0.262611 0.144416
H19   H     H_    0.115654 0.813573 0.169628 0.167868
H20   H     H_    0.184488 0.344715 0.750085 0.062613
H21   H     H_    0.971927 0.280652 0.733775 -0.087056
H22   H     H_    0.267608 0.252483 0.847121 0.153474
H23   H     H_    0.100006 0.309025 0.874946 0.067915
H24   H     H_    0.055700 0.188129 0.830045 0.161412
H25   H     H_    0.696821 0.229226 0.687888 -0.059871
H26   H     H_    0.487486 0.222390 0.637040 0.096463
H27   H     H_    0.527260 0.072241 0.657669 0.149662
H28   H     H_    0.377748 0.111727 0.717091 0.173818
H29   H     H_    0.006507 0.656053 0.252280 0.060765
H30   H     H_    0.588848 0.117150 0.763985 0.172537
H31   H     H_    0.227819 0.584307 0.995013 0.109683
H32   H     H_    0.917761 0.413705 0.147914 0.109178
H33   H     H_    0.809531 0.435702 0.898388 0.069711
H34   H     H_    0.966790 0.418080 0.005254 0.090413
H35   H     H_    0.374167 0.575623 0.104134 0.103604
H36   H     H_    0.270831 0.588557 0.857031 0.124770
H37   H     H_    0.336140 0.490054 0.325174 0.066086
H38   H     H_    0.880861 0.456653 0.661571 0.074319
H39   H     H_    0.896321 0.888182 0.598866 0.186206
H40   H     H_    0.217016 0.721709 0.263928 -0.017510
H41   H     H_    0.016091 0.045687 0.610836 0.154056
H42   H     H_    0.186197 0.948716 0.390930 0.101362
H43   H     H_    0.301281 0.104653 0.408527 0.089752
H44   H     H_    0.370984 0.691499 0.473271 0.050222
H45   H     H_    0.820106 0.302333 0.532832 0.052772
H46   H     H_    0.078118 0.692726 0.124885 0.096962
H47   H     H_    0.908509 0.745135 0.155838 0.161986
H48   H     H_    0.216386 0.717571 0.594232 0.023751
H49   H     H_    0.073275 0.759293 0.658804 0.142618
O1    O     O_2   0.823660 0.438400 0.305670 -0.406031
O2    O     O_3   0.776441 0.757329 0.672191 -0.624512
O3    O     O_3   0.044285 0.792452 0.310209 -0.604191
O4    O     O_2   0.366060 0.561630 0.694380 -0.386440
O5    O     O_3   0.092190 0.555060 0.596110 -0.510353
O6    O     O_3   0.563040 0.391700 0.639900 -0.461309
O7    O     O_3   0.255233 0.707426 0.713932 -0.670613
O8    O     O_3   0.598290 0.387090 0.455760 -0.452373
O9    O     O_3   0.130180 0.342130 0.598490 -0.501850
O10   O     O_2   0.205849 0.180183 0.545963 -0.485007
O11   O     O_3   0.149787 0.208791 0.692384 -0.594758
O12   O     O_3   0.097530 0.445010 0.403900 -0.523034
O13   O     O_3   0.591420 0.612980 0.544250 -0.460039
O14   O     O_2   0.325830 0.273320 0.453470 -0.498483
O15   O     O_3   0.484968 0.236797 0.324975 -0.655452
O16   O     O_2   0.490686 0.452805 0.781530 -0.412998
O17   O     O_3   0.533640 0.283759 0.757185 -0.612076
O18   O     O_3   0.626680 0.608380 0.360110 -0.482913
O19   O     O_2   0.676190 0.530954 0.217933 -0.428688
O20   O     O_3   0.939810 0.292027 0.292417 -0.605210
O21   O     O_3   0.685151 0.708161 0.244886 -0.591097
O22   O     O_2   0.863890 0.726710 0.546580 -0.457877
O23   O     O_3   0.059540 0.657940 0.401520 -0.501151
O24   O     O_2   0.996887 0.819998 0.457437 -0.450875
P1    P     P_3+3 0.993930 0.412000 0.316950 1.030317
P2    P     P_3+3 0.694120 0.714590 0.569800 1.027655
P3    P     P_3+3 0.110385 0.773717 0.404743 0.974503
P4    P     P_3+3 0.195780 0.588080 0.683070 1.031524
P5    P     P_3+3 0.087681 0.225220 0.596709 0.944937
P6    P     P_3+3 0.583380 0.602829 0.259034 1.043832
P7    P     P_3+3 0.503371 0.271099 0.429182 0.931050
P8    P     P_3+3 0.604442 0.392808 0.741025 1.058470
Cl1   Cl    Cl    0.232465 0.920242 0.615079 -0.793012
S1    S     S_3+6 0.715755 0.655748 0.768969 -0.081325
O25   O     O_2   0.599838 0.635733 0.826709 -0.297427
O26   O     O_2   0.696535 0.575621 0.701139 -0.322352
O27   O     O_3   0.913369 0.683692 0.817602 -0.541660
H50   H     H_    0.976901 0.720693 0.785994 0.334023
S2    S     S_3+6 0.794675 0.935217 0.779582 -0.098775
O28   O     O_2   0.699571 0.966091 0.713678 -0.377752
O29   O     O_2   0.815752 0.006474 0.855241 -0.265786
O30   O     O_3   0.984180 0.921590 0.758392 -0.512768
H51   H     H_    0.040591 0.983138 0.754354 0.370963
Cl2   Cl    Cl    0.472801 0.786378 0.171485 -0.737179
S3    S     S_3+6 0.382103 0.275434 0.190665 -0.072128
O31   O     O_2   0.226414 0.287041 0.141505 -0.342584
O32   O     O_2   0.510118 0.361969 0.206793 -0.289572
O33   O     O_3   0.458300 0.189246 0.140532 -0.486040
H52   H     H_    0.488423 0.209769 0.092290 0.371259

loop_
_geom_bond_atom_site_label_1
_geom_bond_atom_site_label_2
_ccdc_geom_bond_type
C17   P8    S    
Ba2   O12   S    
C21   H34   S    
C23   H19   S    
O5    P4    S    
O14   P7    D    
O33   H52   S    
C8    H30   S    
C40   P3    S    
C5    C6    S    
C10   P6    S    
C43   C44   S    
O16   P8    D    
C3    C4    S    
C31   C40   A    
C26   C35   A    
C33   C35   A    
C32   C33   A    
C27   C30   A    
C36   C37   A    
Ba1   O13   S    
C25   P5    S    
O12   P1    S    
Ba2   O5    S    
C42   Cl1   S    
C13   C14   S    
C16   H33   S    
C45   O2    S    
Ba1   Ba2   S    
Ba1   O22   S    
C12   H29   S    
C4    H16   S    
C17   C24   A    
Ba1   P1    S    
O24   P3    D    
C42   H2    S    
Ba1   O12   S    
C5    H20   S    
C8    H28   S    
C4    H17   S    
Ba2   O13   S    
O7    P4    S    
C14   C15   D    
C29   H41   S    
O19   P6    D    
C44   H7    S    
O4    P4    D    
C21   C22   D    
C34   H49   S    
C7    C8    S    
C37   H42   S    
C1    H10   S    
S1    O27   S    
C38   C40   A    
O18   P6    S    
C43   H5    S    
C23   H46   S    
C19   C20   A    
S3    O33   S    
C2    O21   S    
C7    H25   S    
S2    O30   S    
C46   H12   S    
C1    H13   S    
Ba2   O14   S    
C6    H24   S    
C33   C36   A    
S2    O29   D    
C31   H44   S    
C2    Cl2   S    
C16   C17   A    
Ba2   O4    S    
C36   H43   S    
Ba2   O9    S    
C45   S1    S    
C14   H32   S    
Ba1   O23   S    
C30   P2    S    
C4    H15   S    
O20   P1    S    
Ba1   P2    S    
C27   C28   A    
O13   P2    S    
C45   H9    S    
C8    H27   S    
C34   H48   S    
C22   H31   S    
C45   C46   S    
C19   H36   S    
C24   H38   S    
C44   H6    S    
C18   C19   A    
O6    P8    S    
C5    O11   S    
C42   H3    S    
C38   C39   A    
C23   H47   S    
C11   C13   D    
O17   P8    S    
S3    O32   D    
C34   C42   S    
C1    H18   S    
C7    H26   S    
C7    O17   S    
C1    C2    S    
C37   C38   A    
C46   H11   S    
O2    P2    S    
C43   O20   S    
O1    P1    D    
O9    P5    S    
C9    C15   D    
C6    H23   S    
O8    P7    S    
C27   C39   A    
C16   C20   A    
C46   S2    S    
C26   C29   A    
C32   C41   A    
O10   P5    D    
S2    O28   D    
S1    O26   D    
Ba1   O1    S    
C5    H21   S    
O30   H51   S    
C12   O3    S    
O27   H50   S    
C3    O15   S    
O22   P2    D    
C11   H35   S    
Ba2   O8    S    
C6    H22   S    
C43   H4    S    
C2    H1    S    
C34   O7    S    
O11   P5    S    
C30   C31   A    
C12   H40   S    
C18   P4    S    
C3    S3    S    
C28   C29   A    
C18   C24   A    
Ba2   O6    S    
C9    H37   S    
C13   C21   S    
C41   H45   S    
C3    H14   S    
C20   C22   S    
C12   C23   S    
C35   C39   A    
O15   P7    S    
O23   P3    S    
Ba2   P4    S    
C25   C41   A    
C15   P1    S    
C10   C11   S    
C32   P7    S    
O21   P6    S    
C44   H8    S    
C25   C26   A    
S3    O31   D    
Ba1   O18   S    
O3    P3    S    
C28   H39   S    
Ba1   O5    S    
S1    O25   D    
C9    C10   S    
Ba1   O8    S    
