data_mof_unit_44999.cif
_audit_creation_date              2012-10-26T19:39:08-0400
_audit_creation_method            fapswitch 2.2
_symmetry_space_group_name_H-M    P1
_symmetry_Int_Tables_number       1
_space_group_crystal_system       triclinic
_cell_length_a                    12.095231
_cell_length_b                    12.981124
_cell_length_c                    7.439203
_cell_angle_alpha                 90.243464
_cell_angle_beta                  107.306421
_cell_angle_gamma                 90.15061
_cell_volume                      1115.12810568

loop_
_atom_site_label
_atom_site_type_symbol
_atom_type_description
_atom_site_fract_x
_atom_site_fract_y
_atom_site_fract_z
_atom_type_partial_charge
C1    C     C_R   0.346075 0.854376 0.453936 0.570961
C2    C     C_2   0.747991 0.782791 0.570908 0.161685
C3    C     C_2   0.751374 0.214279 0.567600 0.131521
C4    C     C_2   0.250995 0.783264 0.429845 0.156247
C5    C     C_2   0.752426 0.717705 0.429128 0.164717
C6    C     C_2   0.248250 0.282883 0.569991 0.178822
C7    C     C_2   0.247716 0.718110 0.571142 0.163565
C8    C     C_2   0.751880 0.282299 0.429536 0.170508
C9    C     C_R   0.654623 0.145004 0.545834 0.571108
C10   C     C_R   0.653525 0.854193 0.545724 0.573933
C11   C     C_R   0.345732 0.145139 0.454377 0.572537
C12   C     C_R   0.846528 0.353946 0.453897 0.578482
C13   C     C_R   0.153483 0.646031 0.546153 0.576587
C14   C     C_R   0.153547 0.354144 0.545670 0.584387
C15   C     C_R   0.846621 0.645970 0.454308 0.579092
C16   C     C_2   0.249803 0.214964 0.431181 0.110221
Cu1   Cu    Cu3+1 0.517640 0.000000 0.687200 1.230043
Cu2   Cu    Cu3+1 0.482360 0.000000 0.312800 1.210388
Cu3   Cu    Cu3+1 0.017640 0.500000 0.687200 1.202522
Cu4   Cu    Cu3+1 0.982360 0.500000 0.312800 1.198667
H1    H     H_    0.376717 0.000865 0.929386 0.263352
H2    H     H_    0.918751 0.917184 0.994413 0.434245
H3    H     H_    0.819281 0.269657 0.990163 0.369983
H4    H     H_    0.178323 0.881488 0.994901 0.391472
H5    H     H_    0.623285 0.000894 0.070635 0.273916
H6    H     H_    0.876713 0.498181 0.929386 0.262803
H7    H     H_    0.123284 0.501481 0.070633 0.254731
H8    H     H_    0.580306 0.583917 0.007611 0.419876
H9    H     H_    0.424643 0.419708 0.988069 0.423962
H10   H     H_    0.318014 0.627206 0.013392 0.391452
H11   H     H_    0.665343 0.385208 0.991446 0.373131
H12   H     H_    0.212023 0.306373 0.077719 0.364155
N1    N     N_2   0.455760 0.000000 0.031460 -0.187930
N2    N     N_2   0.544240 0.000000 0.968540 -0.178337
N3    N     N_2   0.955760 0.500000 0.031460 -0.177080
N4    N     N_2   0.044240 0.500000 0.968540 -0.180817
O1    O     O_R   0.398880 0.887420 0.621600 -0.491061
O2    O     O_R   0.630920 0.112580 0.694560 -0.454383
O3    O     O_R   0.630920 0.887420 0.694560 -0.419913
O4    O     O_R   0.369080 0.112580 0.305440 -0.449974
O5    O     O_R   0.869080 0.387420 0.305440 -0.472883
O6    O     O_R   0.130920 0.612580 0.694560 -0.451014
O7    O     O_R   0.130920 0.387420 0.694560 -0.431588
O8    O     O_R   0.869080 0.612580 0.305440 -0.414235
O9    O     O_2   0.525225 0.698781 0.244634 -0.266536
O10   O     O_2   0.643494 0.800165 0.091132 -0.189635
O11   O     O_3   0.659167 0.604014 0.084311 -0.442794
O12   O     O_R   0.601120 0.112580 0.378400 -0.485361
O13   O     O_2   0.366173 0.209127 0.910468 -0.222369
O14   O     O_2   0.477433 0.305295 0.737319 -0.268558
O15   O     O_3   0.347772 0.405843 0.897547 -0.484314
O16   O     O_2   0.475784 0.700189 0.746687 -0.233201
O17   O     O_2   0.361559 0.799311 0.909497 -0.271419
O18   O     O_3   0.346125 0.602093 0.909044 -0.480606
O19   O     O_2   0.629855 0.209311 0.089243 -0.260835
O20   O     O_2   0.522041 0.304079 0.268992 -0.244316
O21   O     O_3   0.649183 0.407017 0.108761 -0.506242
O22   O     O_2   0.144668 0.101199 0.118259 -0.168718
O23   O     O_R   0.601120 0.887420 0.378400 -0.498197
O24   O     O_2   0.019893 0.193281 0.267392 -0.214343
O25   O     O_3   0.130286 0.296918 0.074791 -0.427880
O26   O     O_2   0.858207 0.701651 0.909615 -0.192046
O27   O     O_2   0.975184 0.803245 0.754049 -0.258212
O28   O     O_3   0.840556 0.898087 0.913632 -0.433096
O29   O     O_2   0.861625 0.094282 0.863099 -0.218724
O30   O     O_2   0.982981 0.193359 0.718136 -0.193037
O31   O     O_3   0.877036 0.289627 0.926373 -0.454679
O32   O     O_2   0.134029 0.706436 0.089443 -0.272193
O33   O     O_2   0.022197 0.801962 0.260997 -0.229767
O34   O     O_R   0.398880 0.112580 0.621600 -0.487157
O35   O     O_3   0.149642 0.904305 0.100076 -0.448934
O36   O     O_R   0.898880 0.387420 0.621600 -0.488956
O37   O     O_R   0.101120 0.612580 0.378400 -0.494121
O38   O     O_R   0.101120 0.387420 0.378400 -0.502900
O39   O     O_R   0.898880 0.612580 0.621600 -0.499542
O40   O     O_R   0.369080 0.887420 0.305440 -0.459824
S1    S     S_3+6 0.640862 0.707028 0.208610 0.110751
S2    S     S_3+6 0.364491 0.298752 0.782729 0.072593
S3    S     S_3+6 0.361633 0.706741 0.787824 0.066269
S4    S     S_3+6 0.633926 0.298654 0.220224 0.043576
S5    S     S_3+6 0.132321 0.198076 0.220234 0.116439
S6    S     S_3+6 0.859824 0.794508 0.790888 0.114570
S7    S     S_3+6 0.872286 0.194480 0.770946 0.105160
S8    S     S_3+6 0.135339 0.797081 0.216199 0.069300

loop_
_geom_bond_atom_site_label_1
_geom_bond_atom_site_label_2
_ccdc_geom_bond_type
C15   O39   A    
H8    O11   S    
O31   S7    S    
Cu3   Cu4   S    
Cu4   O5    S    
C11   O34   A    
H10   O18   S    
C14   O38   A    
O17   S3    D    
C15   O8    A    
O18   S3    S    
Cu3   N4    S    
Cu1   O3    S    
O29   S7    D    
H1    N1    S    
O13   S2    D    
O24   S5    D    
H3    O31   S    
Cu2   O4    S    
C9    O2    A    
O30   S7    D    
Cu4   N3    S    
N3    N4    D    
O16   S3    D    
Cu3   O6    S    
C1    O1    A    
H5    N2    S    
O26   S6    D    
Cu1   O34   S    
O21   S4    S    
Cu3   O36   S    
C4    C7    D    
O14   S2    D    
C13   O6    A    
Cu4   O8    S    
Cu3   O7    S    
Cu1   Cu2   S    
O27   S6    D    
O32   S8    D    
C3    C8    D    
O22   S5    D    
C6    C16   D    
C10   O3    A    
C12   O5    A    
C3    C9    S    
C6    C14   S    
C11   C16   S    
Cu2   O23   S    
C4    S8    S    
C8    C12   S    
N1    N2    D    
Cu4   O38   S    
Cu1   O1    S    
O28   S6    S    
C13   O37   A    
C3    S7    S    
C2    S6    S    
C2    C5    D    
Cu1   N2    S    
O11   S1    S    
C5    S1    S    
C2    C10   S    
C7    S3    S    
O35   S8    S    
H9    O15   S    
Cu2   O40   S    
C1    O40   A    
Cu2   O12   S    
H12   O25   S    
O10   S1    D    
H7    N4    S    
O20   S4    D    
C1    C4    S    
H11   O21   S    
Cu3   O39   S    
C10   O23   A    
O15   S2    S    
O33   S8    D    
O25   S5    S    
O19   S4    D    
C16   S5    S    
Cu4   O37   S    
Cu1   O2    S    
C12   O36   A    
C11   O4    A    
Cu2   N1    S    
C5    C15   S    
C6    S2    S    
H2    O28   S    
H6    N3    S    
C7    C13   S    
C9    O12   A    
C8    S4    S    
O9    S1    D    
H4    O35   S    
C14   O7    A    
