data_mof_unit_44466.cif
_audit_creation_date              2012-12-10T19:06:27-0500
_audit_creation_method            fapswitch 2.2
_symmetry_space_group_name_H-M    P1
_symmetry_Int_Tables_number       1
_space_group_crystal_system       triclinic
_cell_length_a                    23.515492
_cell_length_b                    10.855183
_cell_length_c                    9.550714
_cell_angle_alpha                 90.191572
_cell_angle_beta                  90.066003
_cell_angle_gamma                 90.254003
_cell_volume                      2437.9234694

loop_
_atom_site_label
_atom_site_type_symbol
_atom_type_description
_atom_site_fract_x
_atom_site_fract_y
_atom_site_fract_z
_atom_type_partial_charge
C1    C     C_R   0.500284 0.262071 0.499356 0.888165
C2    C     C_R   0.971744 0.289208 0.611945 0.296436
C3    C     C_R   0.031117 0.292992 0.611448 -0.177246
C4    C     C_R   0.060730 0.393954 0.556416 -0.076913
C5    C     C_R   0.030317 0.493567 0.500754 -0.013979
C6    C     C_R   0.060032 0.595190 0.444747 -0.011933
C7    C     C_R   0.029599 0.694819 0.389754 -0.142026
C8    C     C_R   0.970407 0.693861 0.390407 -0.131297
C9    C     C_R   0.120419 0.397791 0.556027 0.577880
C10   C     C_R   0.119699 0.594411 0.444777 0.557563
C11   C     C_R   0.239559 0.587972 0.575537 -0.100824
C12   C     C_R   0.391212 0.499822 0.499947 0.889837
C13   C     C_R   0.298886 0.589511 0.575773 0.178440
C14   C     C_R   0.328995 0.499346 0.499714 -0.164845
C15   C     C_R   0.298881 0.408413 0.423782 0.189272
C16   C     C_R   0.239573 0.408777 0.423727 -0.099312
C17   C     C_R   0.209712 0.498014 0.499622 0.227222
C18   C     C_R   0.761314 0.498077 0.626656 -0.088595
C19   C     C_R   0.702042 0.499471 0.626863 -0.213605
C20   C     C_R   0.671710 0.497058 0.499972 -0.034061
C21   C     C_R   0.701815 0.491674 0.373005 -0.205190
C22   C     C_R   0.761094 0.489882 0.373064 -0.087765
C23   C     C_R   0.496635 0.737637 0.499362 0.868443
C24   C     C_R   0.791075 0.493425 0.499825 0.342482
C25   C     C_R   0.476410 0.065163 0.614327 0.088997
C26   C     C_R   0.494256 0.128622 0.495282 -0.232921
C27   C     C_R   0.501959 0.062949 0.368495 0.318926
C28   C     C_R   0.490132 0.935577 0.365946 0.389738
C29   C     C_R   0.487797 0.870734 0.494372 -0.247066
C30   C     C_R   0.476441 0.938119 0.615340 0.119045
C31   C     C_3   0.501757 0.931719 0.757840 -0.429428
C32   C     C_3   0.500280 0.071149 0.759144 -0.450227
C33   C     C_R   0.548227 0.528879 0.073847 0.230018
C34   C     C_R   0.609075 0.499288 0.500005 0.799126
C35   C     C_R   0.453962 0.460319 0.073959 -0.098748
C36   C     C_R   0.453920 0.460445 0.925363 -0.051520
C37   C     C_R   0.548319 0.528357 0.926658 0.248441
C38   C     C_3   0.580944 0.646195 0.922016 -0.494791
C39   C     C_3   0.581202 0.646030 0.080851 -0.457387
C40   C     C_R   0.880847 0.591385 0.446742 0.545358
C41   C     C_R   0.880057 0.392441 0.553326 0.574295
C42   C     C_R   0.940198 0.389428 0.556443 -0.091984
C43   C     C_R   0.970191 0.491805 0.501006 -0.054524
C44   C     C_R   0.940319 0.593013 0.445506 -0.000449
Cu1   Cu    Cu3+1 0.500000 0.499980 0.640670 0.966501
Cu2   Cu    Cu3+1 0.500000 0.500020 0.359330 0.972622
H1    H     H_    0.680089 0.502293 0.726292 0.151396
H2    H     H_    0.679664 0.488280 0.273656 0.151416
H3    H     H_    0.783809 0.485448 0.274622 0.148531
H4    H     H_    0.472533 0.888522 0.834695 0.210226
H5    H     H_    0.545903 0.895940 0.755779 0.192925
H6    H     H_    0.468980 0.109272 0.834675 0.198592
H7    H     H_    0.543300 0.114015 0.762703 0.207344
H8    H     H_    0.416418 0.429319 0.128677 0.187316
H9    H     H_    0.054149 0.215628 0.654539 0.217387
H10   H     H_    0.416360 0.429322 0.870166 0.169147
H11   H     H_    0.623929 0.634816 0.875939 0.193480
H12   H     H_    0.555477 0.721916 0.877502 0.215321
H13   H     H_    0.624282 0.632843 0.126017 0.191117
H14   H     H_    0.556668 0.722920 0.127234 0.267390
H15   H     H_    0.051386 0.774017 0.346242 0.198739
H16   H     H_    0.948313 0.772476 0.347328 0.201121
H17   H     H_    0.216463 0.657004 0.634290 0.190776
H18   H     H_    0.216485 0.338926 0.365391 0.190625
H19   H     H_    0.784204 0.500826 0.725074 0.149400
N1    N     N_R   0.852129 0.492331 0.499829 -0.477905
N2    N     N_R   0.148629 0.496774 0.500230 -0.455353
N3    N     N_R   0.500360 0.500930 0.147930 -0.189374
N4    N     N_R   0.500360 0.500890 0.852020 -0.187825
O1    O     O_R   0.500000 0.319640 0.618810 -0.593602
O2    O     O_2   0.849252 0.296814 0.601737 -0.466518
O3    O     O_2   0.150063 0.303833 0.612063 -0.509941
O4    O     O_2   0.148597 0.689898 0.388679 -0.515210
O5    O     O_R   0.500010 0.319680 0.381230 -0.549544
O6    O     O_R   0.417880 0.499940 0.618820 -0.560008
O7    O     O_R   0.417880 0.499980 0.381240 -0.585666
O8    O     O_R   0.499990 0.680320 0.618770 -0.573363
O9    O     O_R   0.500000 0.680360 0.381190 -0.538072
O10   O     O_R   0.582120 0.500020 0.618760 -0.590518
O11   O     O_R   0.582120 0.500060 0.381180 -0.587306
O12   O     O_2   0.851770 0.688596 0.396281 -0.517657
Br1   Br    Br    0.939025 0.142483 0.691845 -0.386606
O13   O     O_3   0.539235 0.110591 0.270091 -0.550762
C45   C     C_3   0.511336 0.140030 0.144183 0.121966
H20   H     H_    0.472085 0.194721 0.162813 0.157137
H21   H     H_    0.500737 0.055940 0.083683 0.161371
C46   C     C_3   0.552416 0.214948 0.055571 -0.764961
H22   H     H_    0.587052 0.154910 0.016155 0.244570
H23   H     H_    0.529865 0.255947 0.965263 0.190256
H24   H     H_    0.571762 0.289500 0.119658 0.261695
O14   O     O_3   0.488131 0.873727 0.239238 -0.585201
C47   C     C_3   0.432534 0.883806 0.182203 0.006940
H25   H     H_    0.436033 0.877323 0.066662 0.166377
H26   H     H_    0.411832 0.974088 0.204847 0.144557
C48   C     C_3   0.393952 0.778899 0.230349 -0.674089
H27   H     H_    0.388126 0.781998 0.345585 0.237979
H28   H     H_    0.351610 0.787593 0.179881 0.223232
H29   H     H_    0.412495 0.689186 0.199347 0.263398
Br2   Br    Br    0.336685 0.719703 0.676738 -0.512073
Br3   Br    Br    0.336572 0.277446 0.325324 -0.552346

loop_
_geom_bond_atom_site_label_1
_geom_bond_atom_site_label_2
_ccdc_geom_bond_type
C46   H22   S    
C37   N4    A    
C41   C42   A    
C48   H27   S    
C9    O3    S    
C15   Br3   S    
Cu2   O7    S    
C48   H29   S    
C7    C8    A    
C10   N2    A    
C18   H19   S    
C26   C27   A    
C29   C30   A    
C18   C24   A    
C1    O5    A    
C23   C29   S    
C28   C29   A    
C45   H21   S    
C11   H17   S    
C5    C6    A    
C10   O4    S    
C19   H1    S    
C15   C16   A    
C18   C19   A    
C7    H15   S    
C34   O11   A    
C38   H12   S    
C3    H9    S    
C32   H6    S    
O13   C45   S    
C16   C17   A    
C45   C46   S    
C24   N1    S    
C41   O2    S    
C21   H2    S    
C20   C34   S    
C25   C32   S    
C5    C43   A    
C40   N1    A    
C21   C22   A    
C35   H8    S    
C17   N2    S    
Cu1   N4    S    
C45   H20   S    
O14   C47   S    
Cu2   O9    S    
C25   C26   A    
Cu1   Cu2   S    
C47   C48   S    
C33   C37   A    
C35   C36   A    
C13   Br2   S    
C43   C44   A    
C9    N2    A    
Cu2   N3    S    
C37   C38   S    
C36   H10   S    
C34   O10   A    
C38   H11   S    
C31   C32   S    
C30   C31   S    
C39   H13   S    
C47   H26   S    
Cu1   O10   S    
C33   C39   S    
C23   O8    A    
C41   N1    A    
C22   H3    S    
C12   C14   S    
C12   O7    A    
C1    C26   S    
C22   C24   A    
C2    Br1   S    
C42   C43   A    
C31   H4    S    
C3    C4    A    
C32   H7    S    
Cu2   O5    S    
C36   N4    A    
C25   C30   A    
C11   C17   A    
Cu1   O1    S    
C40   O12   S    
C8    C44   A    
C31   H5    S    
C4    C5    A    
C6    C10   A    
C48   H28   S    
C6    C7    A    
C1    O1    A    
Cu1   O6    S    
C19   C20   A    
C46   H23   S    
C2    C3    A    
Cu2   O11   S    
C11   C13   A    
C38   C39   S    
C35   N3    A    
C2    C42   A    
C39   H14   S    
C27   O13   S    
C47   H25   S    
C28   O14   S    
C23   O9    A    
C12   O6    A    
C40   C44   A    
C20   C21   A    
C46   H24   S    
C27   C28   A    
C14   C15   A    
Cu1   O8    S    
C16   H18   S    
C4    C9    A    
C13   C14   A    
C33   N3    A    
C8    H16   S    
