data_mof_unit_32388.cif
_audit_creation_date              2012-12-10T17:18:57-0500
_audit_creation_method            fapswitch 2.2
_symmetry_space_group_name_H-M    P1
_symmetry_Int_Tables_number       1
_space_group_crystal_system       triclinic
_cell_length_a                    10.384815
_cell_length_b                    10.683093
_cell_length_c                    14.145388
_cell_angle_alpha                 94.271085
_cell_angle_beta                  101.487817
_cell_angle_gamma                 95.622652
_cell_volume                      1523.35570661

loop_
_atom_site_label
_atom_site_type_symbol
_atom_type_description
_atom_site_fract_x
_atom_site_fract_y
_atom_site_fract_z
_atom_type_partial_charge
C1    C     C_R   0.050721 0.732065 0.490661 0.892084
C2    C     C_R   0.945943 0.266993 0.502522 0.882725
C3    C     C_R   0.459491 0.567430 0.113007 -0.186118
C4    C     C_R   0.542131 0.431005 0.885907 -0.227390
C5    C     C_R   0.326340 0.581051 0.083399 -0.226903
C6    C     C_R   0.675740 0.418132 0.915480 -0.217130
C7    C     C_2   0.074038 0.863755 0.474030 0.003709
C8    C     C_2   0.909432 0.131438 0.492170 0.002160
C9    C     C_2   0.967899 0.924768 0.447460 -0.183900
C10   C     C_2   0.980987 0.059793 0.446057 -0.188155
C11   C     C_2   0.431360 0.517076 0.504220 0.189611
C12   C     C_2   0.568435 0.482473 0.496887 0.194451
C13   C     C_R   0.095945 0.517935 0.684004 0.896540
C14   C     C_R   0.903943 0.482109 0.315872 0.850334
C15   C     C_R   0.152605 0.534489 0.788418 -0.051907
C16   C     C_R   0.847751 0.466147 0.211179 -0.091529
C17   C     C_R   0.131961 0.571671 0.955010 -0.215764
C18   C     C_R   0.870383 0.429071 0.044635 -0.220078
C19   C     C_R   0.073397 0.552105 0.856693 -0.240382
C20   C     C_R   0.927891 0.448614 0.143343 -0.227487
C21   C     C_R   0.290138 0.535561 0.820056 0.053954
C22   C     C_R   0.710075 0.464979 0.177686 0.038674
C23   C     C_R   0.342067 0.522651 0.917645 0.053876
C24   C     C_R   0.660109 0.478517 0.080546 0.097765
C25   C     C_R   0.265597 0.555770 0.986038 0.152018
C26   C     C_R   0.736858 0.445044 0.012726 0.134665
C27   C     C_R   0.471599 0.489517 0.949461 0.046862
C28   C     C_R   0.530451 0.510990 0.048749 0.085142
H1    H     H_    0.272543 0.616770 0.135954 0.155659
H2    H     H_    0.729206 0.380717 0.863323 0.162313
H3    H     H_    0.032868 0.443049 0.166577 0.173702
H4    H     H_    0.968290 0.557460 0.834047 0.172980
H5    H     H_    0.073075 0.598075 0.006790 0.156405
H6    H     H_    0.929821 0.402252 0.993357 0.159154
H7    H     H_    0.505738 0.602699 0.186511 0.159769
H8    H     H_    0.494902 0.391650 0.813748 0.163848
H9    H     H_    0.060063 0.101925 0.414439 0.184997
H10   H     H_    0.868244 0.876102 0.435204 0.186127
N1    N     N_2   0.322180 0.446120 0.460900 -0.117817
N2    N     N_2   0.677820 0.553880 0.539100 -0.119154
O1    O     O_R   0.935190 0.693030 0.507870 -0.634753
O2    O     O_R   0.064810 0.306970 0.492130 -0.635407
O3    O     O_R   0.142080 0.658430 0.482770 -0.597080
O4    O     O_R   0.857920 0.341570 0.517230 -0.595463
O5    O     O_R   0.969700 0.527180 0.651960 -0.605783
O6    O     O_R   0.030300 0.472820 0.348040 -0.606404
O7    O     O_R   0.176600 0.492580 0.626860 -0.625567
O8    O     O_R   0.823400 0.507420 0.373140 -0.652718
Zn1   Zn    Zn3+2 0.861850 0.523100 0.516760 0.932284
Zn2   Zn    Zn3+2 0.138150 0.476900 0.483240 0.938807
N3    N     N_3   0.617920 0.417580 0.233209 -0.468676
H11   H     H_    0.611012 0.486152 0.287783 0.199508
H12   H     H_    0.647780 0.334654 0.260981 0.190537
N4    N     N_3   0.375891 0.584077 0.759858 -0.468571
H13   H     H_    0.460177 0.638722 0.801208 0.199401
H14   H     H_    0.402693 0.509708 0.718762 0.188923
I1    I     I_    0.751136 0.056786 0.554714 -0.340977
I2    I     I_    0.272970 0.951296 0.498776 -0.342369
N5    N     N_3   0.577217 0.363410 0.445401 -0.402279
H15   H     H_    0.512521 0.357373 0.378209 0.171644
H16   H     H_    0.666637 0.365580 0.424538 0.239065
N6    N     N_3   0.422196 0.635941 0.556070 -0.394684
H17   H     H_    0.488058 0.642784 0.622776 0.176986
H18   H     H_    0.333396 0.633321 0.578117 0.262980
N7    N     N_3   0.670132 0.683053 0.550629 -0.381715
H19   H     H_    0.749519 0.721716 0.605941 0.228636
H20   H     H_    0.685077 0.719883 0.486729 0.221502
N8    N     N_3   0.329326 0.316880 0.448993 -0.381871
H21   H     H_    0.313278 0.279653 0.512503 0.236580
H22   H     H_    0.250394 0.278838 0.393119 0.211653

loop_
_geom_bond_atom_site_label_1
_geom_bond_atom_site_label_2
_ccdc_geom_bond_type
O4    Zn1   S    
C12   N2    D    
C11   N1    D    
C11   C12   S    
C4    H8    S    
O3    Zn2   S    
N6    H17   S    
C23   C27   A    
C8    I1    S    
C1    O3    A    
N1    N8    S    
O6    Zn2   S    
C7    I2    S    
C5    H1    S    
C18   C26   A    
C3    H7    S    
C16   C20   A    
C11   N6    S    
C17   C25   A    
C4    C27   A    
C23   C25   A    
O5    Zn1   S    
C3    C5    A    
N5    H15   S    
C14   O6    A    
C1    C7    S    
C15   C19   A    
C18   H6    S    
C6    C26   A    
C17   H5    S    
C2    O2    A    
C10   H9    S    
C5    C25   A    
C19   H4    S    
C22   C24   A    
O1    Zn1   S    
O8    Zn1   S    
C17   C19   A    
O2    Zn2   S    
O7    Zn2   S    
C18   C20   A    
N2    N7    S    
C13   C15   S    
C21   C23   A    
C22   N3    S    
C21   N4    S    
C14   C16   S    
N5    H16   S    
C16   C22   A    
N2    Zn1   S    
C9    H10   S    
C24   C28   A    
C15   C21   A    
N1    Zn2   S    
C2    O4    A    
C13   O5    A    
C4    C6    A    
N7    H19   S    
C9    C10   S    
C1    O1    A    
C27   C28   A    
C7    C9    D    
N8    H22   S    
C14   O8    A    
N4    H13   S    
C3    C28   A    
N6    H18   S    
N3    H12   S    
N8    H21   S    
C12   N5    S    
C13   O7    A    
C6    H2    S    
C8    C10   D    
C2    C8    S    
N3    H11   S    
C24   C26   A    
N4    H14   S    
N7    H20   S    
C20   H3    S    
