data_mof_unit_52203.cif
_audit_creation_date              2012-12-10T17:27:53-0500
_audit_creation_method            fapswitch 2.2
_symmetry_space_group_name_H-M    P1
_symmetry_Int_Tables_number       1
_space_group_crystal_system       triclinic
_cell_length_a                    10.728242
_cell_length_b                    12.189353
_cell_length_c                    12.845909
_cell_angle_alpha                 95.320746
_cell_angle_beta                  93.575173
_cell_angle_gamma                 86.068659
_cell_volume                      1666.03590663

loop_
_atom_site_label
_atom_site_type_symbol
_atom_type_description
_atom_site_fract_x
_atom_site_fract_y
_atom_site_fract_z
_atom_type_partial_charge
C1    C     C_R   0.498468 0.523448 0.700409 0.875055
C2    C     C_R   0.952600 0.414758 0.562774 0.059210
C3    C     C_R   0.875669 0.492107 0.505558 -0.055571
C4    C     C_R   0.929550 0.569651 0.452458 -0.083088
C5    C     C_R   0.056316 0.574460 0.455874 -0.203865
C6    C     C_R   0.130983 0.505699 0.517804 -0.069325
C7    C     C_R   0.503419 0.459403 0.186944 -0.175381
C8    C     C_R   0.501174 0.539700 0.813174 -0.077528
C9    C     C_R   0.591313 0.619661 0.976980 -0.203791
C10   C     C_R   0.568986 0.622797 0.869163 0.441442
C11   C     C_R   0.445237 0.462365 0.865185 -0.285963
C12   C     C_R   0.740527 0.498460 0.502621 0.937543
C13   C     C_R   0.464241 0.461431 0.972278 0.113051
C14   C     C_R   0.545704 0.535398 0.027909 0.002566
C15   C     C_R   0.576560 0.524503 0.133625 0.408237
C16   C     C_R   0.419469 0.389236 0.131917 -0.181730
C17   C     C_R   0.404275 0.386432 0.024151 -0.165811
C18   C     C_R   0.402934 0.943084 0.382989 -0.211696
C19   C     C_R   0.402713 0.831036 0.401102 0.536151
C20   C     C_R   0.546763 0.864714 0.546605 0.537283
C21   C     C_R   0.518609 0.980512 0.547299 -0.315386
C22   C     C_R   0.458963 0.021027 0.457885 -0.143501
C23   C     C_R   0.502134 0.476484 0.299635 0.976520
C24   C     C_R   0.454273 0.137459 0.447448 0.500571
C25   C     C_R   0.571666 0.166953 0.610796 0.335240
C26   C     C_R   0.556900 0.057142 0.630305 0.411854
C27   C     C_R   0.261858 0.501670 0.506052 0.875018
C28   C     C_R   0.911520 0.318322 0.600523 -0.287083
C29   C     C_R   0.987583 0.256722 0.670349 0.522163
C30   C     C_R   0.106681 0.289778 0.700947 -0.095176
C31   C     C_R   0.153616 0.375750 0.654811 -0.254024
C32   C     C_R   0.079869 0.433044 0.579700 0.108109
H1    H     H_    0.874101 0.622281 0.402317 0.246569
H2    H     H_    0.340500 0.330319 0.982240 0.175191
H3    H     H_    0.389758 0.400548 0.821816 0.169182
H4    H     H_    0.359144 0.965726 0.309787 0.219232
H5    H     H_    0.827679 0.282375 0.569555 0.168339
H6    H     H_    0.165578 0.245093 0.756466 0.183825
H7    H     H_    0.248212 0.396512 0.677600 0.156075
H8    H     H_    0.096184 0.629978 0.407586 0.191829
H9    H     H_    0.362714 0.338974 0.171494 0.239269
H10   H     H_    0.642688 0.683950 0.020511 0.212536
N1    N     N_R   0.523130 0.207800 0.519340 -0.236716
N2    N     N_R   0.476870 0.792180 0.480660 -0.159956
O1    O     O_R   0.506170 0.421690 0.658830 -0.640992
O2    O     O_R   0.491330 0.609320 0.646410 -0.556883
O3    O     O_R   0.690660 0.406170 0.506210 -0.673569
O4    O     O_R   0.675810 0.593790 0.493790 -0.517901
O5    O     O_R   0.508670 0.390680 0.353590 -0.549994
O6    O     O_R   0.493830 0.578310 0.341170 -0.542621
O7    O     O_R   0.324190 0.406210 0.506210 -0.567755
O8    O     O_R   0.309340 0.593830 0.493790 -0.607831
Zn1   Zn    Zn3+2 0.509910 0.374720 0.508290 1.029007
Zn2   Zn    Zn3+2 0.490090 0.625280 0.491710 1.129356
O9    O     O_3   0.616967 0.702761 0.817220 -0.653766
H11   H     H_    0.664666 0.752642 0.867970 0.378254
S1    S     S_3+6 0.347730 0.181875 0.342931 0.036763
O10   O     O_2   0.227696 0.125796 0.347335 -0.315606
O11   O     O_2   0.310137 0.301337 0.341006 -0.282454
O12   O     O_3   0.413198 0.138344 0.229431 -0.565077
H12   H     H_    0.342102 0.128490 0.177121 0.382721
O13   O     O_3   0.629048 0.232909 0.689331 -0.733717
H13   H     H_    0.665881 0.291663 0.656502 0.363156
S2    S     S_3+6 0.560473 0.025136 0.762835 0.128103
O14   O     O_2   0.513510 0.913047 0.770246 -0.235819
O15   O     O_2   0.691261 0.028698 0.811903 -0.194120
O16   O     O_3   0.466637 0.119354 0.829674 -0.534621
H14   H     H_    0.521446 0.177839 0.859731 0.391609
O17   O     O_3   0.335345 0.757831 0.335542 -0.727380
H15   H     H_    0.285349 0.798661 0.282350 0.324730
S3    S     S_3+6 0.706701 0.827110 0.578629 0.096507
O18   O     O_2   0.775778 0.921783 0.631945 -0.283452
O19   O     O_2   0.722195 0.733495 0.646907 -0.214793
O20   O     O_3   0.771875 0.791033 0.464135 -0.552156
H16   H     H_    0.857030 0.818521 0.472634 0.376388
O21   O     O_3   0.949066 0.163116 0.708307 -0.686372
H17   H     H_    0.864395 0.148329 0.677153 0.374535
S4    S     S_3+6 0.718255 0.572654 0.194461 0.008533
O22   O     O_2   0.691871 0.682317 0.255174 -0.272314
O23   O     O_2   0.771635 0.489442 0.266943 -0.350387
O24   O     O_3   0.824248 0.585516 0.105884 -0.545277
H18   H     H_    0.899116 0.611299 0.147647 0.388728

loop_
_geom_bond_atom_site_label_1
_geom_bond_atom_site_label_2
_ccdc_geom_bond_type
C6    C32   A    
C21   C26   A    
C1    C8    S    
C12   O4    A    
C25   N1    A    
O24   H18   S    
C29   O21   S    
C19   N2    A    
O4    Zn2   S    
C9    H10   S    
O6    Zn2   S    
C28   C29   A    
C30   C31   A    
O5    Zn1   S    
C1    O2    A    
S1    O11   D    
C15   S4    S    
C30   H6    S    
C2    C32   A    
C18   C19   A    
C26   S2    S    
C3    C12   S    
N1    Zn1   S    
C31   C32   A    
C27   O7    A    
C16   C17   A    
C20   S3    S    
C29   C30   A    
C9    C10   A    
O3    Zn1   S    
C7    C15   A    
O1    Zn1   S    
C21   C22   A    
C12   O3    A    
C20   N2    A    
O8    Zn2   S    
O20   H16   S    
O16   H14   S    
S2    O16   S    
O21   H17   S    
S3    O19   D    
S4    O22   D    
C24   S1    S    
S1    O12   S    
C25   C26   A    
O12   H12   S    
O7    Zn1   S    
S2    O15   D    
C9    C14   A    
O13   H13   S    
C6    C27   S    
O2    Zn2   S    
O9    H11   S    
C10   O9    S    
C7    C16   A    
C22   C24   A    
C19   O17   S    
C17   H2    S    
C3    C4    A    
C27   O8    A    
C4    H1    S    
C18   C22   A    
C4    C5    A    
C23   O6    A    
S3    O20   S    
C13   C17   A    
S2    O14   D    
C11   H3    S    
C2    C3    A    
S3    O18   D    
C11   C13   A    
S4    O24   S    
C1    O1    A    
S1    O10   D    
C5    C6    A    
C28   H5    S    
C8    C11   A    
C7    C23   S    
C31   H7    S    
S4    O23   D    
C25   O13   S    
O17   H15   S    
C23   O5    A    
N2    Zn2   S    
C20   C21   A    
C8    C10   A    
C5    H8    S    
C24   N1    A    
C14   C15   A    
C2    C28   A    
C13   C14   A    
C18   H4    S    
C16   H9    S    
