data_mof_unit_40949.cif
_audit_creation_date              2012-12-11T16:58:13-0500
_audit_creation_method            fapswitch 2.2
_symmetry_space_group_name_H-M    P1
_symmetry_Int_Tables_number       1
_space_group_crystal_system       triclinic
_cell_length_a                    16.91076
_cell_length_b                    7.249012
_cell_length_c                    16.928739
_cell_angle_alpha                 90.012645
_cell_angle_beta                  100.613899
_cell_angle_gamma                 90.022894
_cell_volume                      2039.72549474

loop_
_atom_site_label
_atom_site_type_symbol
_atom_type_description
_atom_site_fract_x
_atom_site_fract_y
_atom_site_fract_z
_atom_type_partial_charge
O1    O     O_R   0.413450 0.494370 0.415710 -0.534081
O2    O     O_R   0.586550 0.994370 0.584290 -0.534560
O3    O     O_R   0.578420 0.819350 0.429360 -0.540436
O4    O     O_R   0.421580 0.319350 0.570640 -0.539786
C1    C     C_R   0.605191 0.654061 0.414464 0.705718
C2    C     C_R   0.394804 0.154029 0.585525 0.708736
O5    O     O_R   0.413570 0.823780 0.406240 -0.544475
O6    O     O_R   0.586430 0.323780 0.593760 -0.543830
O7    O     O_R   0.420530 0.998740 0.561000 -0.536478
O8    O     O_R   0.579470 0.498740 0.439000 -0.537013
C3    C     C_R   0.385841 0.655318 0.383889 0.690835
C4    C     C_R   0.613928 0.155379 0.616351 0.689101
O9    O     O_3   0.502480 0.662320 0.550800 -0.376889
O10   O     O_3   0.497520 0.162320 0.449200 -0.377609
V1    V     V_3+5 0.499540 0.935370 0.490580 1.415382
V2    V     V_3+5 0.500460 0.435370 0.509420 1.416733
C5    C     C_R   0.695516 0.989060 0.735034 0.129844
C6    C     C_R   0.264894 0.490804 0.305415 0.119836
C7    C     C_R   0.680857 0.146998 0.686788 -0.107481
C8    C     C_R   0.314590 0.647063 0.317817 -0.109917
C9    C     C_R   0.731226 0.300397 0.709485 -0.179355
C10   C     C_R   0.291328 0.800096 0.267520 -0.178588
H1    H     H_    0.722153 0.426380 0.674947 0.142629
H2    H     H_    0.326382 0.925617 0.275330 0.147636
C11   C     C_R   0.797398 0.288745 0.773624 -0.168192
C12   C     C_R   0.225466 0.788981 0.203118 -0.165510
H3    H     H_    0.836522 0.407205 0.786761 0.145513
H4    H     H_    0.212152 0.907049 0.163871 0.139470
C13   C     C_R   0.815583 0.122896 0.816959 -0.101729
C14   C     C_R   0.180756 0.624160 0.186718 -0.105945
C15   C     C_R   0.760825 0.977408 0.798300 0.118819
C16   C     C_R   0.199960 0.479568 0.241747 0.132383
C17   C     C_3   0.774627 0.779291 0.781679 -0.426762
C18   C     C_3   0.214770 0.280348 0.228261 -0.419778
C19   C     C_3   0.703242 0.792009 0.712580 -0.408888
C20   C     C_3   0.285668 0.292536 0.297879 -0.410580
H5    H     H_    0.763198 0.688487 0.831279 0.177970
H6    H     H_    0.232953 0.254279 0.169378 0.171011
H7    H     H_    0.832828 0.755686 0.761593 0.189639
H8    H     H_    0.165177 0.191668 0.241505 0.193019
H9    H     H_    0.650784 0.708409 0.722406 0.184663
H10   H     H_    0.344877 0.273349 0.279301 0.181274
H11   H     H_    0.720152 0.775611 0.652510 0.173197
H12   H     H_    0.276862 0.210824 0.351156 0.174917
C21   C     C_R   0.330601 0.132082 0.634309 -0.098589
C22   C     C_R   0.669412 0.632231 0.365689 -0.098063
C23   C     C_R   0.162510 0.133489 0.857542 -0.184090
C24   C     C_R   0.837467 0.633407 0.142417 -0.184380
C25   C     C_R   0.267264 0.322487 0.816516 0.624914
C26   C     C_R   0.732428 0.821793 0.183163 0.624522
C27   C     C_R   0.215522 0.284270 0.869380 -0.220737
C28   C     C_R   0.784204 0.783580 0.130330 -0.219272
C29   C     C_R   0.163004 0.015817 0.790584 -0.105305
C30   C     C_R   0.837211 0.516359 0.209591 -0.105966
C31   C     C_R   0.218676 0.048792 0.737256 0.002253
C32   C     C_R   0.781448 0.549165 0.262837 0.002537
C33   C     C_R   0.269658 0.207574 0.750435 0.027532
C34   C     C_R   0.730229 0.707397 0.249435 0.027432
C35   C     C_R   0.323937 0.248683 0.698471 -0.148743
C36   C     C_R   0.675913 0.748443 0.301366 -0.149014
C37   C     C_R   0.280717 0.976298 0.621044 -0.172126
C38   C     C_R   0.719471 0.476873 0.379118 -0.173384
C39   C     C_R   0.226372 0.931924 0.671149 -0.013715
C40   C     C_R   0.773879 0.432618 0.329062 -0.013531
H13   H     H_    0.363442 0.367312 0.709724 0.176864
H14   H     H_    0.636248 0.866679 0.289963 0.176379
H15   H     H_    0.285716 0.884012 0.571684 0.124883
H16   H     H_    0.714559 0.384824 0.428568 0.124011
H17   H     H_    0.216107 0.376546 0.919855 0.158804
H18   H     H_    0.783462 0.875394 0.079691 0.159336
O11   O     O_R   0.920630 0.775410 0.061150 -0.535223
O12   O     O_R   0.079370 0.275410 0.938850 -0.536117
O13   O     O_R   0.086500 0.441450 0.093690 -0.538281
O14   O     O_R   0.913500 0.941450 0.906310 -0.538009
C41   C     C_R   0.113977 0.610357 0.116281 0.685861
C42   C     C_R   0.886063 0.110232 0.883702 0.686231
O15   O     O_R   0.921670 0.445960 0.070740 -0.532763
O16   O     O_R   0.078330 0.945960 0.929260 -0.533640
O17   O     O_R   0.913380 0.271130 0.915780 -0.540313
O18   O     O_R   0.086620 0.771130 0.084220 -0.540273
C43   C     C_R   0.897116 0.615402 0.087500 0.716678
C44   C     C_R   0.102882 0.115421 0.912491 0.711924
O19   O     O_3   0.997500 0.603030 0.949220 -0.372324
O20   O     O_3   0.002500 0.103030 0.050780 -0.371066
V3    V     V_3+5 0.000470 0.329940 0.009420 1.460408
V4    V     V_3+5 0.999530 0.829940 0.990580 1.459952
C45   C     C_1   0.184850 0.757937 0.654171 0.330866
N1    N     N_1   0.152369 0.617926 0.639955 -0.325468
C46   C     C_1   0.815535 0.258920 0.346132 0.329898
N2    N     N_1   0.848123 0.119128 0.360408 -0.325281
C47   C     C_1   0.101724 0.873923 0.774606 0.352734
N3    N     N_1   0.052291 0.761522 0.762475 -0.333857
C48   C     C_1   0.898890 0.375551 0.225919 0.351878
N4    N     N_1   0.948649 0.264047 0.238333 -0.330043
F1    F     F_    0.315601 0.473224 0.830531 -0.688399
F2    F     F_    0.683850 0.971974 0.168919 -0.688370

loop_
_geom_bond_atom_site_label_1
_geom_bond_atom_site_label_2
_ccdc_geom_bond_type
C45   N1    T    
C48   N4    T    
C2    C21   S    
C20   H10   S    
O1    C3    A    
C42   O17   A    
O2    C4    A    
C2    O7    A    
O12   V3    S    
C13   C42   S    
C24   C30   A    
C17   H7    S    
O14   C42   A    
C22   C38   A    
C18   H8    S    
C7    C9    A    
C33   C35   A    
C34   C36   A    
C25   C33   A    
C24   C43   S    
C23   C44   S    
C37   C39   A    
O16   C44   A    
C30   C48   S    
C38   C40   A    
C17   C19   S    
C25   C27   A    
C31   C39   A    
C29   C47   S    
C26   C28   A    
C32   C40   A    
C19   H11   S    
C41   O18   A    
C18   C20   S    
C23   C29   A    
C39   C45   S    
O16   V4    S    
O5    V1    S    
C36   H14   S    
O6    V2    S    
O13   C41   A    
C40   C46   S    
C29   C31   A    
C11   C13   A    
C30   C32   A    
C3    C8    S    
C26   C34   A    
O20   V3    S    
O4    C2    A    
C47   N3    T    
C23   C27   A    
C25   F1    S    
C16   C18   S    
O4    V2    S    
O5    C3    A    
O11   V4    S    
C37   H15   S    
O15   C43   A    
O6    C4    A    
C15   C17   S    
O1    V2    S    
O14   V4    S    
O2    V1    S    
O13   V3    S    
C8    C10   A    
C12   C14   A    
C9    H1    S    
C5    C15   A    
C10   H2    S    
C20   H12   S    
C6    C16   A    
O17   V3    S    
O3    V1    S    
C9    C11   A    
C21   C35   A    
C22   C36   A    
C18   H6    S    
C12   H4    S    
O3    C1    A    
C11   H3    S    
C27   H17   S    
C1    C22   S    
O18   V4    S    
C38   H16   S    
C31   C33   A    
O7    V1    S    
C1    O8    A    
C13   C15   A    
O8    V2    S    
C35   H13   S    
C14   C16   A    
C14   C41   S    
C26   F2    S    
C4    C7    S    
C21   C37   A    
C5    C7    A    
C32   C34   A    
C6    C8    A    
C19   H9    S    
C17   H5    S    
C28   H18   S    
O15   V3    S    
C24   C28   A    
O19   V4    S    
C10   C12   A    
O9    V2    S    
O10   V1    S    
C5    C19   S    
C46   N2    T    
C6    C20   S    
O12   C44   A    
O11   C43   A    
