data_mof_unit_64454.cif
_audit_creation_date              2012-12-10T19:24:28-0500
_audit_creation_method            fapswitch 2.2
_symmetry_space_group_name_H-M    P1
_symmetry_Int_Tables_number       1
_space_group_crystal_system       triclinic
_cell_length_a                    18.016971
_cell_length_b                    16.497979
_cell_length_c                    10.765096
_cell_angle_alpha                 91.994777
_cell_angle_beta                  90.738504
_cell_angle_gamma                 89.148083
_cell_volume                      3197.3183406

loop_
_atom_site_label
_atom_site_type_symbol
_atom_type_description
_atom_site_fract_x
_atom_site_fract_y
_atom_site_fract_z
_atom_type_partial_charge
C1    C     C_R   0.354726 0.500501 0.503657 0.879944
C2    C     C_R   0.645196 0.499753 0.496169 0.877507
C3    C     C_R   0.886473 0.502820 0.505968 -0.084170
C4    C     C_R   0.113083 0.501587 0.510860 -0.082926
C5    C     C_1   0.966374 0.502414 0.509057 0.107954
C6    C     C_1   0.033184 0.501883 0.510084 0.107882
C7    C     C_R   0.541488 0.831334 0.588673 -0.226359
C8    C     C_R   0.459307 0.168473 0.410674 -0.229292
C9    C     C_R   0.459333 0.829598 0.413415 -0.195588
C10   C     C_R   0.540629 0.170432 0.586915 -0.189632
C11   C     C_R   0.541539 0.745726 0.586936 0.332471
C12   C     C_R   0.459266 0.254080 0.412120 0.331719
C13   C     C_R   0.459477 0.744205 0.412572 0.341620
C14   C     C_R   0.540282 0.255834 0.587827 0.337990
C15   C     C_R   0.500180 0.874062 0.501621 0.068001
C16   C     C_R   0.500148 0.125862 0.498394 0.067053
C17   C     C_1   0.500314 0.962945 0.500823 0.072649
C18   C     C_1   0.500085 0.036979 0.499265 0.073672
C19   C     C_R   0.511043 0.497644 0.261582 0.843432
C20   C     C_R   0.489817 0.502246 0.738894 0.844509
C21   C     C_R   0.586538 0.621766 0.104773 0.151255
C22   C     C_R   0.419440 0.374546 0.893484 0.153879
C23   C     C_R   0.478410 0.658001 0.926562 0.165508
C24   C     C_R   0.526478 0.341407 0.075506 0.165064
C25   C     C_R   0.575181 0.703207 0.073773 -0.107275
C26   C     C_R   0.432395 0.293442 0.925233 -0.106957
C27   C     C_R   0.514868 0.722313 0.993205 -0.231716
C28   C     C_R   0.492015 0.276127 0.008194 -0.230795
C29   C     C_R   0.498102 0.576730 0.950474 0.026961
C30   C     C_R   0.505269 0.422177 0.050775 0.028678
C31   C     C_R   0.536001 0.563707 0.062189 -0.007804
C32   C     C_R   0.467454 0.434671 0.938541 -0.006757
C33   C     C_R   0.476305 0.507714 0.877076 -0.135163
C34   C     C_R   0.526122 0.491412 0.124066 -0.135773
C35   C     C_R   0.847242 0.572246 0.470405 0.150000
C36   C     C_R   0.152305 0.429462 0.484987 0.143353
C37   C     C_R   0.150998 0.573126 0.540135 0.145260
C38   C     C_R   0.848788 0.432190 0.531951 0.141674
C39   C     C_R   0.768856 0.574037 0.473433 0.151613
C40   C     C_R   0.229959 0.426952 0.500644 0.151773
C41   C     C_R   0.228820 0.575133 0.527849 0.132882
C42   C     C_R   0.771813 0.428106 0.510429 0.130944
C43   C     C_R   0.729044 0.500542 0.492758 -0.224915
C44   C     C_R   0.270790 0.501060 0.510269 -0.227169
Cu1   Cu    Cu3+1 0.500000 0.580420 0.500000 1.044874
Cu2   Cu    Cu3+1 0.500000 0.419580 0.500000 1.045122
H1    H     H_    0.574686 0.864450 0.657376 0.189307
H2    H     H_    0.426685 0.135233 0.341318 0.189081
H3    H     H_    0.427304 0.861441 0.344009 0.191310
H4    H     H_    0.572455 0.138652 0.656644 0.192937
N1    N     N_R   0.500000 0.701220 0.500000 -0.211895
N2    N     N_R   0.500000 0.298780 0.500000 -0.212154
O1    O     O_R   0.391260 0.567930 0.500000 -0.549228
O2    O     O_R   0.608740 0.432070 0.500000 -0.548899
O3    O     O_R   0.608740 0.567930 0.500000 -0.551222
O4    O     O_R   0.391260 0.432070 0.500000 -0.548953
O5    O     O_R   0.500000 0.567910 0.319660 -0.566102
O6    O     O_R   0.500000 0.432090 0.680340 -0.566532
O7    O     O_R   0.500000 0.567910 0.680340 -0.560604
O8    O     O_R   0.500000 0.432090 0.319660 -0.561024
C45   C     C_2   0.515795 0.190852 0.029008 0.982352
O9    O     O_2   0.579533 0.169501 0.006719 -0.467390
O10   O     O_R   0.466357 0.133689 0.071253 -0.685269
H5    H     H_    0.415333 0.157331 0.089525 0.308465
C46   C     C_2   0.492472 0.808214 0.974119 0.980224
O11   O     O_2   0.429422 0.830913 0.998712 -0.469478
O12   O     O_R   0.542497 0.864457 0.930963 -0.685333
H6    H     H_    0.592834 0.839755 0.910663 0.308860
C47   C     C_2   0.388148 0.227896 0.864413 0.884536
O13   O     O_2   0.419473 0.171804 0.808225 -0.567589
O14   O     O_R   0.310810 0.229529 0.872548 -0.686458
H7    H     H_    0.287066 0.181494 0.827132 0.366461
C48   C     C_2   0.621764 0.767199 0.133123 0.888515
O15   O     O_2   0.592582 0.823404 0.192316 -0.561960
O16   O     O_R   0.698840 0.763898 0.120414 -0.685957
H8    H     H_    0.724377 0.811047 0.165183 0.368067
I1    I     I_    0.691404 0.573814 0.160409 -0.215298
I2    I     I_    0.316269 0.417319 0.822140 -0.219689
I3    I     I_    0.381845 0.681827 0.819311 -0.178573
I4    I     I_    0.621187 0.319505 0.189358 -0.178620
I5    I     I_    0.909208 0.673024 0.407139 -0.133277
I6    I     I_    0.092652 0.324486 0.418899 -0.133085
I7    I     I_    0.088299 0.677103 0.608039 -0.131403
I8    I     I_    0.909589 0.331977 0.607479 -0.131828
I9    I     I_    0.718212 0.691104 0.441965 -0.184103
I10   I     I_    0.274770 0.308265 0.535827 -0.174830
I11   I     I_    0.274674 0.694040 0.534153 -0.158199
I12   I     I_    0.730716 0.308296 0.478657 -0.152627
I13   I     I_    0.614239 0.695284 0.722419 -0.281916
I14   I     I_    0.388985 0.303844 0.272636 -0.280439
I15   I     I_    0.392906 0.694116 0.264153 -0.200388
I16   I     I_    0.606397 0.305752 0.736935 -0.202744

loop_
_geom_bond_atom_site_label_1
_geom_bond_atom_site_label_2
_ccdc_geom_bond_type
C4    C36   A    
Cu2   N2    S    
C48   O15   D    
C21   I1    S    
C35   I5    S    
Cu1   Cu2   S    
C19   O5    A    
C7    C11   A    
C21   C31   A    
Cu1   O5    S    
C22   C32   A    
C23   C29   A    
C12   I14   S    
C1    O4    A    
C38   C42   A    
C2    O3    A    
C5    C6    T    
Cu1   N1    S    
C29   C33   A    
C47   O14   S    
C40   I10   S    
C45   O10   S    
C1    O1    A    
C9    C13   A    
C13   N1    A    
C24   I4    S    
C14   N2    A    
C3    C38   A    
C36   I6    S    
C46   O12   S    
C23   C27   A    
Cu2   O8    S    
C28   C45   S    
C7    C15   A    
Cu1   O1    S    
C8    C16   A    
Cu2   O6    S    
C48   O16   S    
C45   O9    D    
C12   N2    A    
C41   I11   S    
C30   C34   A    
O12   H6    S    
C36   C40   A    
C9    H3    S    
C22   I2    S    
C4    C6    S    
C10   C14   A    
C39   C43   A    
C7    H1    S    
C35   C39   A    
O16   H8    S    
C8    H2    S    
C27   C46   S    
C11   I13   S    
C1    C44   S    
C3    C35   A    
C2    C43   S    
C8    C12   A    
Cu2   O2    S    
C17   C18   T    
C31   C34   A    
C20   O7    A    
C14   I16   S    
C20   C33   S    
C2    O2    A    
C41   C44   A    
C42   I12   S    
C42   C43   A    
C39   I9    S    
C20   O6    A    
C10   H4    S    
C15   C17   S    
C21   C25   A    
Cu1   O7    S    
C38   I8    S    
C24   C28   A    
C3    C5    S    
C19   C34   S    
C19   O8    A    
C25   C27   A    
C26   C28   A    
C32   C33   A    
C9    C15   A    
O14   H7    S    
C29   C31   A    
C10   C16   A    
C30   C32   A    
C25   C48   S    
C37   C41   A    
C47   O13   D    
C24   C30   A    
C11   N1    A    
O10   H5    S    
C40   C44   A    
C4    C37   A    
Cu1   O3    S    
C16   C18   S    
C46   O11   D    
C22   C26   A    
Cu2   O4    S    
C26   C47   S    
C37   I7    S    
C23   I3    S    
C13   I15   S    
