data_mof_unit_34040.cif
_audit_creation_date              2012-10-26T18:54:53-0400
_audit_creation_method            fapswitch 2.2
_symmetry_space_group_name_H-M    P1
_symmetry_Int_Tables_number       1
_space_group_crystal_system       triclinic
_cell_length_a                    10.896054
_cell_length_b                    9.59642
_cell_length_c                    10.987049
_cell_angle_alpha                 90.380884
_cell_angle_beta                  92.252103
_cell_angle_gamma                 91.198032
_cell_volume                      1147.66962986

loop_
_atom_site_label
_atom_site_type_symbol
_atom_type_description
_atom_site_fract_x
_atom_site_fract_y
_atom_site_fract_z
_atom_type_partial_charge
C1    C     C_R   0.262236 0.498357 0.502512 0.561280
C2    C     C_R   0.529914 0.617288 0.940798 0.008427
C3    C     C_R   0.513959 0.495399 0.130563 -0.024400
C4    C     C_R   0.499991 0.497951 0.870770 -0.021483
C5    C     C_R   0.512203 0.368806 0.062364 0.007785
C6    C     C_R   0.475570 0.372937 0.936836 0.009640
C7    C     C_3   0.568822 0.769798 0.937118 0.065114
C8    C     C_3   0.547821 0.770562 0.080796 0.065338
C9    C     C_R   0.060049 0.376668 0.458799 0.237263
C10   C     C_R   0.931610 0.382445 0.444227 0.189443
C11   C     C_R   0.871018 0.504726 0.478455 -0.091777
C12   C     C_R   0.737213 0.501501 0.491690 0.524839
C13   C     C_R   0.127586 0.495185 0.502858 -0.060616
C14   C     C_R   0.941127 0.625536 0.511043 0.217695
C15   C     C_R   0.065789 0.616592 0.535594 0.220217
C16   C     C_3   0.578540 0.240474 0.110063 -0.256605
C17   C     C_3   0.681199 0.198898 0.026364 -0.453416
C18   C     C_3   0.405016 0.247533 0.881677 -0.251861
C19   C     C_3   0.275745 0.285736 0.835983 -0.408067
C20   C     C_3   0.706936 0.794081 0.900329 -0.262049
C21   C     C_3   0.767430 0.671859 0.836677 -0.391852
C22   C     C_3   0.431764 0.851064 0.121706 -0.237171
C23   C     C_R   0.411841 0.073276 0.435003 0.309198
C24   C     C_3   0.310233 0.766412 0.127574 -0.390566
C25   C     C_3   0.484080 0.862274 0.853828 -0.246427
C26   C     C_3   0.346577 0.826922 0.836211 -0.415955
C27   C     C_3   0.661424 0.804281 0.170230 -0.252283
C28   C     C_3   0.761417 0.693442 0.182705 -0.434210
C29   C     C_R   0.592069 0.075553 0.559990 0.283544
C30   C     C_R   0.405754 0.923735 0.443830 0.276832
C31   C     C_R   0.595002 0.927221 0.553984 0.317275
C32   C     C_R   0.506196 0.499115 0.263168 0.520244
C33   C     C_R   0.498691 0.500058 0.737412 0.509090
C34   C     C_R   0.522130 0.617437 0.063945 0.016716
Cu1   Cu    Cu3+1 0.500000 0.640660 0.500000 1.014171
Cu2   Cu    Cu3+1 0.500000 0.359340 0.500000 1.023943
H1    H     H_    0.643193 0.152126 0.940073 0.149640
H2    H     H_    0.391907 0.166375 0.951475 0.127600
H3    H     H_    0.719801 0.646520 0.748657 0.234413
H4    H     H_    0.864027 0.700942 0.817914 0.164490
H5    H     H_    0.768381 0.577407 0.894257 0.117323
H6    H     H_    0.713756 0.886067 0.840405 0.160243
H7    H     H_    0.769808 0.827324 0.975959 0.138515
H8    H     H_    0.312529 0.694165 0.205566 0.219500
H9    H     H_    0.233253 0.838662 0.139474 0.135016
H10   H     H_    0.290022 0.702900 0.044606 0.132103
H11   H     H_    0.449502 0.897151 0.212979 0.151439
H12   H     H_    0.739220 0.291562 0.005167 0.156904
H13   H     H_    0.416542 0.944048 0.065305 0.114176
H14   H     H_    0.313566 0.868656 0.747010 0.162905
H15   H     H_    0.327109 0.713221 0.835444 0.148824
H16   H     H_    0.291916 0.879965 0.904639 0.139926
H17   H     H_    0.496854 0.972270 0.882290 0.096213
H18   H     H_    0.519298 0.858294 0.761727 0.203811
H19   H     H_    0.736601 0.614609 0.251026 0.142265
H20   H     H_    0.776256 0.637421 0.096695 0.151071
H21   H     H_    0.849642 0.743911 0.214478 0.133217
H22   H     H_    0.703044 0.905716 0.145438 0.117895
H23   H     H_    0.741175 0.121796 0.072136 0.137272
H24   H     H_    0.631043 0.822534 0.264112 0.173714
H25   H     H_    0.063556 0.180861 0.405608 0.377334
H26   H     H_    0.802552 0.306175 0.336581 0.321521
H27   H     H_    0.842309 0.770586 0.445265 0.341495
H28   H     H_    0.184712 0.693538 0.651998 0.308295
H29   H     H_    0.303313 0.082028 0.291036 0.295940
H30   H     H_    0.651727 0.225213 0.664808 0.363010
H31   H     H_    0.233262 0.909152 0.394453 0.337452
H32   H     H_    0.756364 0.920320 0.636757 0.378264
H33   H     H_    0.626301 0.260588 0.199137 0.172488
H34   H     H_    0.513163 0.152382 0.122063 0.138525
H35   H     H_    0.278143 0.362866 0.761458 0.163461
H36   H     H_    0.226102 0.190642 0.800733 0.155241
H37   H     H_    0.223963 0.329740 0.911883 0.142587
H38   H     H_    0.455751 0.197163 0.808604 0.164795
N1    N     N_R   0.500000 0.852070 0.500000 -0.227384
N2    N     N_R   0.500000 0.147940 0.500000 -0.246769
O1    O     O_R   0.319640 0.618740 0.499990 -0.437449
O2    O     O_3   0.868572 0.269785 0.391431 -0.673019
O3    O     O_3   0.890903 0.754601 0.521901 -0.610633
O4    O     O_3   0.124719 0.730111 0.590832 -0.622143
O5    O     O_3   0.333772 0.145128 0.357737 -0.616210
O6    O     O_3   0.685713 0.143362 0.625513 -0.698140
O7    O     O_3   0.306339 0.849417 0.394746 -0.670734
O8    O     O_3   0.688358 0.855519 0.610899 -0.663062
O9    O     O_R   0.680360 0.618740 0.500010 -0.456488
O10   O     O_R   0.319620 0.381170 0.499990 -0.398944
O11   O     O_R   0.680380 0.381170 0.500010 -0.470539
O12   O     O_R   0.499990 0.618810 0.319660 -0.500906
O13   O     O_R   0.500010 0.618810 0.680340 -0.498542
O14   O     O_R   0.499960 0.381240 0.319650 -0.481949
O15   O     O_R   0.500040 0.381240 0.680350 -0.553249
O16   O     O_3   0.121926 0.258387 0.426898 -0.622035

loop_
_geom_bond_atom_site_label_1
_geom_bond_atom_site_label_2
_ccdc_geom_bond_type
H31   O7    S    
C1    O1    A    
C19   H35   S    
Cu1   Cu2   S    
C17   H12   S    
C23   N2    A    
C10   O2    S    
C7    C8    S    
C29   N2    A    
H27   O3    S    
C28   H21   S    
Cu1   N1    S    
C12   O9    A    
C24   H9    S    
C25   H17   S    
C33   O13   A    
C27   H24   S    
C26   H14   S    
C5    C6    A    
C11   C14   A    
C32   O12   A    
C18   C19   S    
C30   O7    S    
C9    C13   A    
C5    C16   S    
Cu2   N2    S    
C31   N1    A    
C32   O14   A    
C2    C7    S    
C16   C17   S    
C8    C22   S    
C9    C10   A    
H25   O16   S    
C2    C34   A    
C22   H11   S    
C18   H38   S    
H28   O4    S    
C19   H36   S    
C9    O16   S    
C28   H19   S    
Cu2   O11   S    
C28   H20   S    
C6    C18   S    
H32   O8    S    
C23   C30   A    
C19   H37   S    
C16   H34   S    
C25   H18   S    
C4    C6    A    
C8    C34   S    
C3    C34   A    
Cu2   O10   S    
C25   C26   S    
Cu1   O1    S    
C31   O8    S    
C2    C4    A    
C26   H16   S    
H30   O6    S    
Cu1   O12   S    
H29   O5    S    
C15   O4    S    
C21   H3    S    
C17   H1    S    
C14   O3    S    
C17   H23   S    
C22   H13   S    
C21   H5    S    
Cu1   O13   S    
Cu2   O15   S    
C13   C15   A    
C24   H8    S    
C22   C24   S    
C1    C13   S    
C20   H7    S    
Cu2   O14   S    
C1    O10   A    
C4    C33   S    
C23   O5    S    
C12   O11   A    
H26   O2    S    
C16   H33   S    
C3    C5    A    
C27   H22   S    
C20   H6    S    
C11   C12   S    
C7    C25   S    
C24   H10   S    
C33   O15   A    
C18   H2    S    
C29   O6    S    
C29   C31   A    
C26   H15   S    
C30   N1    A    
Cu1   O9    S    
C21   H4    S    
C3    C32   S    
C10   C11   A    
C20   C21   S    
C7    C20   S    
C27   C28   S    
C8    C27   S    
C14   C15   A    
