data_mof_unit_43646.cif
_audit_creation_date              2012-12-11T15:57:03-0500
_audit_creation_method            fapswitch 2.2
_symmetry_space_group_name_H-M    P1
_symmetry_Int_Tables_number       1
_space_group_crystal_system       triclinic
_cell_length_a                    17.498966
_cell_length_b                    24.547666
_cell_length_c                    14.852283
_cell_angle_alpha                 89.616796
_cell_angle_beta                  125.635868
_cell_angle_gamma                 90.448356
_cell_volume                      5185.02216322

loop_
_atom_site_label
_atom_site_type_symbol
_atom_type_description
_atom_site_fract_x
_atom_site_fract_y
_atom_site_fract_z
_atom_type_partial_charge
C1    C     C_R   0.316249 0.131406 0.907000 -0.102454
C2    C     C_R   0.547434 0.153635 0.907080 0.784721
C3    C     C_R   0.816567 0.358066 0.003092 0.156723
C4    C     C_R   0.583872 0.999782 0.377083 -0.301761
C5    C     C_R   0.083872 0.499782 0.377083 -0.301761
C6    C     C_R   0.183767 0.000476 0.650841 0.212063
C7    C     C_R   0.683767 0.500476 0.650842 0.212064
C8    C     C_R   0.521403 0.046267 0.753670 -0.133590
C9    C     C_R   0.521558 0.954828 0.753584 -0.135259
C10   C     C_R   0.021403 0.546268 0.753670 -0.133589
C11   C     C_R   0.021558 0.454828 0.753584 -0.135256
C12   C     C_R   0.768798 0.954445 0.249385 0.695980
C13   C     C_R   0.048697 0.347762 0.905256 0.801534
C14   C     C_R   0.769109 0.045611 0.248446 0.725624
C15   C     C_R   0.268798 0.454445 0.249385 0.695986
C16   C     C_R   0.269109 0.545611 0.248446 0.725622
C17   C     C_3   0.060618 0.875882 0.390349 -0.127160
C18   C     C_3   0.064227 0.117703 0.369288 -0.163172
C19   C     C_3   0.560618 0.375882 0.390351 -0.127168
C20   C     C_3   0.564227 0.617702 0.369288 -0.163172
C21   C     C_3   0.144579 0.804020 0.214723 0.042874
C22   C     C_3   0.098010 0.168946 0.127491 -0.036855
C23   C     C_3   0.644579 0.304020 0.214723 0.042870
C24   C     C_R   0.047434 0.653635 0.907080 0.784721
C25   C     C_3   0.598009 0.668946 0.127489 -0.036853
C26   C     C_3   0.844518 0.261137 0.296299 -0.032061
C27   C     C_3   0.770735 0.737653 0.285608 -0.087891
C28   C     C_3   0.344518 0.761137 0.296299 -0.032061
C29   C     C_3   0.270736 0.237654 0.285608 -0.087893
C30   C     C_3   0.834592 0.135948 0.049405 -0.042169
C31   C     C_3   0.840318 0.875568 0.070236 0.017694
C32   C     C_3   0.334592 0.635948 0.049405 -0.042167
C33   C     C_3   0.340328 0.375565 0.070239 0.017680
C34   C     C_3   0.529495 0.811518 0.210858 -0.129320
C35   C     C_R   0.552416 0.000952 0.728190 -0.035597
C36   C     C_3   0.481490 0.169711 0.273564 -0.033480
C37   C     C_3   0.029495 0.311517 0.210858 -0.129320
C38   C     C_3   0.981490 0.669711 0.273564 -0.033478
C39   C     C_3   0.942783 0.815239 0.791131 0.154291
C40   C     C_3   0.954321 0.196067 0.753136 0.120630
C41   C     C_3   0.442783 0.315239 0.791132 0.154289
C42   C     C_3   0.454322 0.696068 0.753135 0.120630
C43   C     C_R   0.052416 0.500952 0.728190 -0.035596
C44   C     C_R   0.824618 0.999997 0.274611 -0.302983
C45   C     C_R   0.324618 0.499997 0.274611 -0.302978
C46   C     C_R   0.602110 0.187267 0.997268 0.067988
C47   C     C_R   0.607454 0.815176 0.993988 0.089646
C48   C     C_R   0.102110 0.687267 0.997268 0.067988
C49   C     C_R   0.310148 0.874844 0.908994 -0.095997
C50   C     C_R   0.107454 0.315176 0.993988 0.089646
C51   C     C_3   0.018378 0.957706 0.517978 0.704111
C52   C     C_3   0.020795 0.046320 0.510920 0.702383
C53   C     C_3   0.518378 0.457707 0.517979 0.704109
C54   C     C_3   0.520795 0.546320 0.510920 0.702383
C55   C     C_3   0.945827 0.003037 0.481517 -0.473430
C56   C     C_3   0.445826 0.503037 0.481517 -0.473432
C57   C     C_3   0.923362 0.999883 0.364269 -0.120598
C58   C     C_3   0.423362 0.499882 0.364270 -0.120600
C59   C     C_3   0.996156 0.954585 0.402254 0.608113
C60   C     C_R   0.816249 0.631407 0.907000 -0.102455
C61   C     C_3   0.998305 0.043165 0.394920 0.615046
C62   C     C_3   0.496155 0.454585 0.402255 0.608117
C63   C     C_3   0.498305 0.543165 0.394920 0.615046
C64   C     C_3   0.072125 0.997790 0.430870 -0.696330
C65   C     C_3   0.572125 0.497790 0.430871 -0.696330
C66   C     C_R   0.408030 0.869105 0.094181 0.616421
C67   C     C_R   0.416830 0.138109 0.095216 0.587214
C68   C     C_R   0.908030 0.369105 0.094181 0.616421
C69   C     C_R   0.916830 0.638109 0.095216 0.587214
C70   C     C_3   0.093061 0.000923 0.547365 -0.340754
C71   C     C_R   0.810148 0.374844 0.908994 -0.095997
C72   C     C_3   0.593061 0.500923 0.547366 -0.340754
C73   C     C_3   0.234050 0.826639 0.090024 1.036077
C74   C     C_3   0.227955 0.175491 0.066203 1.020342
C75   C     C_3   0.734050 0.326639 0.090024 1.036077
C76   C     C_3   0.727955 0.675491 0.066203 1.020341
C77   C     C_3   0.696929 0.271526 0.108493 0.675198
C78   C     C_3   0.689119 0.727273 0.088368 0.745040
C79   C     C_3   0.196929 0.771526 0.108493 0.675195
C80   C     C_3   0.189120 0.227273 0.088369 0.745039
C81   C     C_3   0.803494 0.260519 0.019612 0.367710
C82   C     C_R   0.636466 0.154202 0.089388 0.046012
C83   C     C_3   0.816381 0.748584 0.029369 0.448444
C84   C     C_3   0.303494 0.760519 0.019612 0.367708
C85   C     C_3   0.316381 0.248584 0.029368 0.448429
C86   C     C_3   0.156456 0.815044 0.887669 -0.616601
C87   C     C_3   0.171508 0.199305 0.874309 -0.629530
C88   C     C_3   0.656456 0.315044 0.887669 -0.616601
C89   C     C_3   0.671509 0.699306 0.874309 -0.629527
C90   C     C_3   0.254193 0.816447 0.001277 -0.375993
C91   C     C_3   0.263062 0.192883 0.994147 -0.404694
C92   C     C_3   0.754193 0.316447 0.001277 -0.375993
C93   C     C_R   0.641111 0.846483 0.087897 -0.102299
C94   C     C_3   0.763062 0.692883 0.994147 -0.404701
C95   C     C_3   0.654799 0.235845 0.998308 -0.479590
C96   C     C_3   0.660077 0.769392 0.990599 -0.501179
C97   C     C_3   0.154799 0.735845 0.998308 -0.479589
C98   C     C_3   0.160077 0.269392 0.990599 -0.501178
C99   C     C_3   0.737387 0.212941 0.995572 0.962794
C100  C     C_3   0.749369 0.795148 0.003694 0.932256
C101  C     C_3   0.237388 0.712941 0.995572 0.962794
C102  C     C_3   0.249369 0.295148 0.003693 0.932265
C103  C     C_3   0.591548 0.273190 0.891107 1.173841
C104  C     C_R   0.136466 0.654202 0.089388 0.046012
C105  C     C_3   0.602369 0.737955 0.875083 1.181776
C106  C     C_3   0.091549 0.773190 0.891107 1.173841
C107  C     C_3   0.102369 0.237955 0.875083 1.181776
C108  C     C_3   0.616084 0.055065 0.640373 -0.434958
C109  C     C_3   0.633061 0.953527 0.655903 -0.438562
C110  C     C_3   0.116084 0.555065 0.640373 -0.434958
C111  C     C_3   0.133061 0.453527 0.655903 -0.438560
C112  C     C_R   0.563586 0.044554 0.310886 0.554727
C113  C     C_R   0.557542 0.955188 0.309507 0.687019
C114  C     C_R   0.063586 0.544554 0.310886 0.554727
C115  C     C_R   0.141112 0.346483 0.087897 -0.102293
C116  C     C_R   0.057542 0.455188 0.309507 0.687018
C117  C     C_3   0.626222 0.054135 0.544147 -0.292917
C118  C     C_3   0.639163 0.952019 0.556542 -0.296389
C119  C     C_3   0.126222 0.554135 0.544147 -0.292917
C120  C     C_3   0.139163 0.452019 0.556542 -0.296390
C121  C     C_3   0.471016 0.995428 0.530057 -0.355290
C122  C     C_3   0.971016 0.495428 0.530056 -0.355291
C123  C     C_3   0.569232 0.001317 0.641747 0.363300
C124  C     C_3   0.069232 0.501317 0.641747 0.363300
C125  C     C_3   0.583862 0.000511 0.476795 0.332477
C126  C     C_R   0.548697 0.847762 0.905256 0.801532
C127  C     C_3   0.083862 0.500511 0.476795 0.332477
C128  C     C_3   0.479345 0.996262 0.433748 -0.440586
C129  C     C_3   0.979345 0.496262 0.433748 -0.440585
C130  C     C_R   0.235800 0.954479 0.702699 -0.096671
C131  C     C_R   0.235980 0.046146 0.704099 -0.095010
C132  C     C_R   0.735800 0.454479 0.702700 -0.096671
C133  C     C_R   0.735980 0.546146 0.704100 -0.095011
C134  C     C_R   0.327381 0.152372 0.000296 0.200443
C135  C     C_R   0.316567 0.858066 0.003092 0.156723
C136  C     C_R   0.827381 0.652372 0.000296 0.200443
F1    F     F_    0.030408 0.913693 0.583676 -0.685562
F2    F     F_    0.159212 0.135546 0.009416 -0.684479
F3    F     F_    0.664558 0.365980 0.049884 -0.652067
F4    F     F_    0.659212 0.635546 0.009414 -0.684478
F5    F     F_    0.550250 0.243302 0.793896 -0.645969
F6    F     F_    0.569098 0.773202 0.785653 -0.658963
F7    F     F_    0.050250 0.743302 0.793896 -0.645968
F8    F     F_    0.069098 0.273201 0.785653 -0.658961
F9    F     F_    0.835928 0.255971 0.953933 -0.638708
F10   F     F_    0.859858 0.757696 0.976589 -0.615496
F11   F     F_    0.335928 0.755971 0.953933 -0.638707
F12   F     F_    0.034952 0.093581 0.569096 -0.692640
F13   F     F_    0.359857 0.257695 0.976588 -0.615499
F14   F     F_    0.700006 0.192676 0.889759 -0.657241
F15   F     F_    0.720959 0.819130 0.903002 -0.671183
F16   F     F_    0.200006 0.692676 0.889759 -0.657241
F17   F     F_    0.220958 0.319129 0.903001 -0.671181
F18   F     F_    0.617681 0.089984 0.351107 -0.709078
F19   F     F_    0.591838 0.904871 0.348320 -0.699547
F20   F     F_    0.117681 0.589984 0.351107 -0.709078
F21   F     F_    0.091838 0.404871 0.348320 -0.699547
F22   F     F_    0.798903 0.902713 0.282222 -0.641612
F23   F     F_    0.530407 0.413693 0.583677 -0.685562
F24   F     F_    0.799511 0.097777 0.276633 -0.630148
F25   F     F_    0.298903 0.402713 0.282223 -0.641611
F26   F     F_    0.299511 0.597777 0.276634 -0.630148
F27   F     F_    0.471619 0.830226 0.807179 -0.673991
F28   F     F_    0.471072 0.169945 0.807380 -0.663038
F29   F     F_    0.971619 0.330226 0.807179 -0.673992
F30   F     F_    0.971072 0.669945 0.807380 -0.663038
F31   F     F_    0.534952 0.593582 0.569096 -0.692640
F32   F     F_    0.309531 0.849511 0.185789 -0.715924
F33   F     F_    0.297030 0.151602 0.164676 -0.777600
F34   F     F_    0.809531 0.349511 0.185789 -0.715924
F35   F     F_    0.797030 0.651602 0.164675 -0.777599
F36   F     F_    0.164558 0.865980 0.049884 -0.652066
H1    H     H_    0.261056 0.138832 0.821020 0.146719
H2    H     H_    0.371776 0.248969 0.119325 0.108766
H3    H     H_    0.283250 0.609480 0.978498 0.144276
H4    H     H_    0.380778 0.608699 0.120620 0.180562
H5    H     H_    0.287119 0.401806 0.000135 0.130066
H6    H     H_    0.390435 0.358550 0.054829 0.166403
H7    H     H_    0.380223 0.402531 0.142938 0.178591
H8    H     H_    0.589092 0.838072 0.231758 0.183746
H9    H     H_    0.507160 0.786466 0.137019 0.155568
H10   H     H_    0.555037 0.783208 0.281417 0.150121
H11   H     H_    0.439055 0.201779 0.276872 0.163815
H12   H     H_    0.554587 0.177723 0.346115 0.182527
H13   H     H_    0.164846 0.802566 0.822004 0.270174
H14   H     H_    0.459731 0.128906 0.284298 0.150090
H15   H     H_    0.089092 0.338072 0.231758 0.183746
H16   H     H_    0.007160 0.286467 0.137019 0.155568
H17   H     H_    0.055038 0.283208 0.281417 0.150122
H18   H     H_    0.939055 0.701778 0.276872 0.163814
H19   H     H_    0.054587 0.677723 0.346115 0.182526
H20   H     H_    0.959731 0.628905 0.284297 0.150090
H21   H     H_    0.898338 0.779033 0.745836 0.177542
H22   H     H_    0.962200 0.836771 0.740962 0.098588
H23   H     H_    0.899964 0.843577 0.802476 0.129189
H24   H     H_    0.189564 0.216666 0.819371 0.270420
H25   H     H_    0.981047 0.179276 0.707069 0.115459
H26   H     H_    0.911047 0.232792 0.710110 0.185650
H27   H     H_    0.907738 0.164781 0.752105 0.120895
H28   H     H_    0.398338 0.279033 0.745837 0.177543
H29   H     H_    0.462200 0.336772 0.740962 0.098589
H30   H     H_    0.399964 0.343577 0.802476 0.129189
H31   H     H_    0.481048 0.679276 0.707068 0.115459
H32   H     H_    0.411047 0.732792 0.710109 0.185649
H33   H     H_    0.407739 0.664781 0.752103 0.120896
H34   H     H_    0.664846 0.302566 0.822004 0.270174
H35   H     H_    0.689565 0.716667 0.819371 0.270420
H36   H     H_    0.124310 0.856267 0.864213 0.239593
H37   H     H_    0.137683 0.159100 0.838698 0.239894
H38   H     H_    0.624310 0.356267 0.864214 0.239593
H39   H     H_    0.637683 0.659100 0.838697 0.239894
H40   H     H_    0.572709 0.090937 0.628317 0.185778
H41   H     H_    0.252664 0.868439 0.823665 0.156634
H42   H     H_    0.605120 0.913705 0.660796 0.196889
H43   H     H_    0.072709 0.590937 0.628317 0.185778
H44   H     H_    0.105120 0.413705 0.660796 0.196889
H45   H     H_    0.686261 0.060425 0.720510 0.179076
H46   H     H_    0.704624 0.958514 0.734225 0.177259
H47   H     H_    0.186261 0.560425 0.720510 0.179076
H48   H     H_    0.204624 0.458515 0.734225 0.177259
H49   H     H_    0.701651 0.057838 0.576834 0.188513
H50   H     H_    0.713967 0.953573 0.586059 0.171834
H51   H     H_    0.201651 0.557838 0.576834 0.188513
H52   H     H_    0.761056 0.638832 0.821020 0.146719
H53   H     H_    0.213967 0.453573 0.586059 0.171834
H54   H     H_    0.588790 0.090227 0.490931 0.187389
H55   H     H_    0.609029 0.912490 0.514133 0.232885
H56   H     H_    0.088790 0.590227 0.490931 0.187389
H57   H     H_    0.109029 0.412490 0.514133 0.232885
H58   H     H_    0.424127 0.029167 0.519350 0.165562
H59   H     H_    0.436946 0.956496 0.528103 0.171812
H60   H     H_    0.924127 0.529167 0.519350 0.165562
H61   H     H_    0.936946 0.456496 0.528103 0.171812
H62   H     H_    0.439008 0.031443 0.378578 0.168704
H63   H     H_    0.752664 0.368439 0.823665 0.156634
H64   H     H_    0.446490 0.958510 0.383995 0.206147
H65   H     H_    0.939008 0.531443 0.378578 0.168704
H66   H     H_    0.946490 0.458510 0.383995 0.206147
H67   H     H_    0.219464 0.913369 0.670776 0.132681
H68   H     H_    0.220339 0.087540 0.673412 0.140635
H69   H     H_    0.719463 0.413369 0.670776 0.132680
H70   H     H_    0.720339 0.587540 0.673412 0.140636
H71   H     H_    0.528974 0.088709 0.740816 0.169845
H72   H     H_    0.528188 0.912716 0.738788 0.171237
H73   H     H_    0.028974 0.588709 0.740816 0.169845
H74   H     H_    0.126108 0.995917 0.414087 0.210512
H75   H     H_    0.028188 0.412716 0.738787 0.171236
H76   H     H_    0.668085 0.167243 0.173301 0.243958
H77   H     H_    0.684064 0.833190 0.172644 0.236746
H78   H     H_    0.168085 0.667243 0.173301 0.243958
H79   H     H_    0.184064 0.333191 0.172644 0.236745
H80   H     H_    0.893370 0.005099 0.500786 0.207999
H81   H     H_    0.393370 0.505100 0.500786 0.208000
H82   H     H_    0.094662 0.867614 0.479780 0.161346
H83   H     H_    0.110429 0.896909 0.378123 0.099335
H84   H     H_    0.042693 0.835936 0.347889 0.154802
H85   H     H_    0.626108 0.495917 0.414088 0.210511
H86   H     H_    0.113684 0.094344 0.360489 0.111348
H87   H     H_    0.098547 0.129348 0.457258 0.167187
H88   H     H_    0.046910 0.155989 0.321131 0.145982
H89   H     H_    0.594661 0.367614 0.479783 0.161348
H90   H     H_    0.610429 0.396908 0.378126 0.099336
H91   H     H_    0.542693 0.335935 0.347891 0.154802
H92   H     H_    0.613684 0.594344 0.360489 0.111348
H93   H     H_    0.598548 0.629347 0.457258 0.167187
H94   H     H_    0.546910 0.655988 0.321131 0.145982
H95   H     H_    0.187762 0.841522 0.236308 0.133180
H96   H     H_    0.865007 0.257251 0.107045 0.073195
H97   H     H_    0.179333 0.773233 0.282230 0.111488
H98   H     H_    0.079157 0.816159 0.204853 0.131223
H99   H     H_    0.070016 0.177358 0.176390 0.070260
H100  H     H_    0.164483 0.146286 0.181826 0.147214
H101  H     H_    0.045698 0.142650 0.057163 0.202352
H102  H     H_    0.687762 0.341522 0.236308 0.133181
H103  H     H_    0.679334 0.273233 0.282231 0.111489
H104  H     H_    0.579158 0.316159 0.204853 0.131218
H105  H     H_    0.570016 0.677358 0.176389 0.070259
H106  H     H_    0.664482 0.646285 0.181824 0.147214
H107  H     H_    0.871776 0.748969 0.119326 0.108766
H108  H     H_    0.545697 0.642649 0.057162 0.202350
H109  H     H_    0.900200 0.271258 0.284930 0.185566
H110  H     H_    0.875039 0.229969 0.362913 0.186167
H111  H     H_    0.827160 0.296320 0.327248 0.130429
H112  H     H_    0.828574 0.761854 0.355537 0.191280
H113  H     H_    0.789975 0.694318 0.308101 0.146337
H114  H     H_    0.706105 0.748384 0.278922 0.120458
H115  H     H_    0.400200 0.771258 0.284930 0.185566
H116  H     H_    0.375039 0.729969 0.362913 0.186167
H117  H     H_    0.327160 0.796320 0.327248 0.130429
H118  H     H_    0.365007 0.757251 0.107045 0.073195
H119  H     H_    0.328575 0.261855 0.355537 0.191281
H120  H     H_    0.289977 0.194319 0.308102 0.146338
H121  H     H_    0.206106 0.248384 0.278923 0.120459
H122  H     H_    0.879676 0.158510 0.031540 0.156385
H123  H     H_    0.783250 0.109480 0.978498 0.144276
H124  H     H_    0.880778 0.108699 0.120619 0.180562
H125  H     H_    0.787103 0.901809 0.000135 0.130055
H126  H     H_    0.890424 0.858559 0.054820 0.166403
H127  H     H_    0.880213 0.902535 0.142936 0.178590
H128  H     H_    0.379676 0.658510 0.031541 0.156385
N1    N     N_R   0.392450 0.103580 0.942190 -0.091738
N2    N     N_R   0.525490 0.971610 0.207550 -0.152286
N3    N     N_R   0.025490 0.528390 0.207550 -0.145248
N4    N     N_R   0.025490 0.471610 0.207550 -0.152286
N5    N     N_R   0.317450 0.971190 0.792000 -0.061388
N6    N     N_R   0.317450 0.028810 0.792000 -0.061529
N7    N     N_R   0.817450 0.471190 0.792000 -0.061388
N8    N     N_R   0.817450 0.528810 0.792000 -0.061529
N9    N     N_R   0.473900 0.028390 0.792280 -0.041695
N10   N     N_R   0.473900 0.971610 0.792280 -0.042096
N11   N     N_R   0.973900 0.528390 0.792280 -0.041695
N12   N     N_R   0.392450 0.896420 0.942190 -0.087306
N13   N     N_R   0.973900 0.471610 0.792280 -0.042096
N14   N     N_R   0.682310 0.971180 0.208170 -0.164263
N15   N     N_R   0.682310 0.028820 0.208170 -0.150261
N16   N     N_R   0.182310 0.471180 0.208170 -0.164264
N17   N     N_R   0.182310 0.528820 0.208170 -0.150262
N18   N     N_R   0.606470 0.103570 0.057210 -0.128594
N19   N     N_R   0.606470 0.896430 0.057210 -0.118216
N20   N     N_R   0.106470 0.603570 0.057210 -0.128594
N21   N     N_R   0.106470 0.396430 0.057210 -0.118215
N22   N     N_R   0.549740 0.896000 0.943240 -0.146042
N23   N     N_R   0.892450 0.603580 0.942190 -0.091738
N24   N     N_R   0.549740 0.104000 0.943240 -0.155666
N25   N     N_R   0.049740 0.396000 0.943240 -0.146041
N26   N     N_R   0.049740 0.604000 0.943240 -0.155666
N27   N     N_R   0.892450 0.396420 0.942190 -0.087306
N28   N     N_R   0.450490 0.896000 0.057360 -0.141866
N29   N     N_R   0.450490 0.104000 0.057360 -0.114881
N30   N     N_R   0.950490 0.396000 0.057360 -0.141866
N31   N     N_R   0.950490 0.604000 0.057360 -0.114881
N32   N     N_R   0.525490 0.028390 0.207550 -0.145248
Ni1   Ni    Ni4+2 0.433780 0.065390 0.868430 0.258009
Ni2   Ni    Ni4+2 0.433780 0.934610 0.868430 0.258625
Ni3   Ni    Ni4+2 0.933780 0.565390 0.868430 0.258010
Ni4   Ni    Ni4+2 0.933780 0.434610 0.868430 0.258625
Ni5   Ni    Ni4+2 0.565800 0.934190 0.131570 0.234878
Ni6   Ni    Ni4+2 0.565800 0.065810 0.131570 0.282099
Ni7   Ni    Ni4+2 0.065800 0.434190 0.131570 0.234879
Ni8   Ni    Ni4+2 0.065800 0.565810 0.131570 0.282099
O1    O     O_3   0.977208 0.905969 0.342641 -0.556151
O2    O     O_3   0.764553 0.752111 0.189381 -0.655584
O3    O     O_3   0.266115 0.737465 0.199264 -0.655176
O4    O     O_3   0.264554 0.252112 0.189381 -0.655585
O5    O     O_3   0.788018 0.171399 0.077100 -0.624012
O6    O     O_3   0.796542 0.833922 0.091630 -0.623578
O7    O     O_3   0.288018 0.671399 0.077100 -0.624013
O8    O     O_3   0.296541 0.333922 0.091628 -0.623578
O9    O     O_3   0.455001 0.842609 0.195422 -0.568152
O10   O     O_3   0.477961 0.175228 0.176613 -0.622626
O11   O     O_3   0.955002 0.342609 0.195422 -0.568152
O12   O     O_3   0.980362 0.088150 0.325878 -0.563845
O13   O     O_3   0.977961 0.675228 0.176614 -0.622626
O14   O     O_3   0.022379 0.799852 0.896668 -0.585962
O15   O     O_3   0.027271 0.208263 0.864595 -0.606183
O16   O     O_3   0.522379 0.299852 0.896668 -0.585963
O17   O     O_3   0.527271 0.708264 0.864594 -0.606183
O18   O     O_3   0.477207 0.405969 0.342643 -0.556150
O19   O     O_3   0.480362 0.588150 0.325878 -0.563845
O20   O     O_3   0.119287 0.781232 0.113994 -0.540485
O21   O     O_3   0.106302 0.219076 0.085995 -0.611183
O22   O     O_3   0.619287 0.281232 0.113994 -0.540487
O23   O     O_3   0.606302 0.719075 0.085994 -0.611182
O24   O     O_3   0.766115 0.237465 0.199264 -0.655176

loop_
_geom_bond_atom_site_label_1
_geom_bond_atom_site_label_2
_ccdc_geom_bond_type
C128  H64   S    
C63   C65   S    
C87   C91   S    
C54   F31   S    
N2    N32   A    
C4    C125  S    
N19   Ni5   S    
C66   O9    S    
C7    C133  A    
C83   H107  S    
C52   C61   S    
N16   Ni7   S    
C95   C99   S    
N21   Ni7   S    
C40   H25   S    
C105  F6    S    
C49   H41   S    
C89   C94   S    
C26   H109  S    
C109  H46   S    
C31   H125  S    
C76   C94   S    
C23   H103  S    
C28   H115  S    
C78   C96   S    
C38   H18   S    
C81   H96   S    
N20   N26   A    
C22   O21   S    
C88   H38   S    
C13   N25   A    
C113  F19   S    
C73   F32   S    
C114  F20   S    
N27   Ni4   S    
C79   C97   S    
C21   H98   S    
C69   N31   A    
C130  H67   S    
C53   F23   S    
C104  H78   S    
C21   H97   S    
C36   O10   S    
C4    C113  A    
C121  C128  S    
C86   C90   S    
N14   Ni5   S    
C2    F28   S    
C81   C99   S    
C16   F26   S    
N14   N15   A    
C98   C102  S    
C39   H23   S    
C3    C92   S    
C62   O18   S    
C8    C35   A    
N9    Ni1   S    
N2    Ni5   S    
C18   O12   S    
N3    N4    A    
C34   O9    S    
C44   C57   S    
C119  H51   S    
C47   C93   A    
C20   O19   S    
C102  F17   S    
C18   H87   S    
C108  H45   S    
C131  N6    A    
C83   C100  S    
C93   N19   A    
C132  N7    A    
C29   H121  S    
C27   H112  S    
C37   O11   S    
C47   C126  A    
C84   F11   S    
C129  H65   S    
C111  C124  S    
C21   O20   S    
C15   F25   S    
C16   C45   A    
C57   C61   S    
C40   H27   S    
C126  N22   A    
C82   H76   S    
C78   O2    S    
C12   C44   A    
C20   H92   S    
C27   H114  S    
C30   H123  S    
C37   H15   S    
C51   C55   S    
C121  C123  S    
C57   C59   S    
C84   H118  S    
C86   H13   S    
C63   O19   S    
C54   C63   S    
C41   H30   S    
C99   O5    S    
C22   H99   S    
C118  H50   S    
C42   H32   S    
N30   Ni7   S    
C6    C130  A    
C115  N21   A    
C120  C127  S    
C89   H35   S    
C82   N18   A    
C39   H21   S    
C1    H1    S    
C76   C78   S    
C73   C90   S    
C115  H79   S    
C116  N4    A    
N5    Ni2   S    
C42   H33   S    
N1    N29   A    
C15   N16   A    
N20   Ni8   S    
C46   C82   A    
C81   C92   S    
C113  N2    A    
N12   N28   A    
C71   H63   S    
C60   C136  A    
C22   H101  S    
C49   C135  A    
C52   F12   S    
C112  F18   S    
C86   C106  S    
C84   C90   S    
C103  F5    S    
C108  H40   S    
C95   C103  S    
C119  H56   S    
C32   H3    S    
C117  H54   S    
C50   C98   S    
C33   H5    S    
C24   C48   A    
C67   C134  A    
C109  H42   S    
C20   H94   S    
C7    C72   S    
C109  C123  S    
C127  C129  S    
C133  H70   S    
C131  H68   S    
C40   O15   S    
C85   H2    S    
C73   C79   S    
C87   C107  S    
C36   H11   S    
C73   F36   S    
C110  H47   S    
C75   C77   S    
C29   H120  S    
C17   O1    S    
N11   N13   A    
C32   O7    S    
C122  C124  S    
C126  F27   S    
C53   C56   S    
C108  C117  S    
C25   H106  S    
C105  O17   S    
C110  C119  S    
C67   O10   S    
C65   C72   S    
C81   F9    S    
N18   N24   A    
C12   N14   A    
C35   C123  S    
C75   F3    S    
C19   H90   S    
C90   C135  S    
C91   C134  S    
C40   H26   S    
C38   O13   S    
C96   C100  S    
C114  N3    A    
C56   C58   S    
C26   H110  S    
C68   O11   S    
C13   C50   A    
C28   H116  S    
C51   C59   S    
C38   H19   S    
C33   O8    S    
C89   C105  S    
C55   H80   S    
N25   Ni4   S    
C12   F22   S    
C23   O22   S    
C117  C125  S    
C80   O21   S    
C85   C102  S    
C119  C127  S    
C58   C62   S    
C27   O2    S    
C96   C105  S    
C17   H84   S    
C71   N27   A    
C121  H59   S    
C33   H7    S    
C34   H8    S    
C3    C68   A    
C102  O8    S    
C32   H128  S    
C30   H124  S    
C106  F7    S    
C89   H39   S    
C48   C97   S    
C74   F2    S    
C28   H117  S    
C41   H28   S    
C129  H66   S    
C79   O20   S    
N12   Ni2   S    
C25   O23   S    
C34   H9    S    
C50   C115  A    
N7    Ni4   S    
C74   F33   S    
C110  C124  S    
C109  C118  S    
C47   C96   S    
C118  C125  S    
C49   N12   A    
C122  C129  S    
C18   H88   S    
C52   C55   S    
C10   C43   A    
C74   C80   S    
C87   H37   S    
N13   Ni4   S    
C25   H108  S    
C99   F14   S    
C45   C58   S    
N7    N8    A    
N23   Ni3   S    
C111  H44   S    
C86   H36   S    
C9    N10   A    
C8    H71   S    
C83   C94   S    
C98   C107  S    
C74   C91   S    
C61   C64   S    
C3    C71   A    
C106  O14   S    
C133  N8    A    
C31   H126  S    
C27   H113  S    
C83   F10   S    
C23   H104  S    
C13   F29   S    
C5    C127  S    
C75   F34   S    
C79   O3    S    
C61   O12   S    
C24   N26   A    
C10   H73   S    
C14   N15   A    
C97   C106  S    
C51   F1    S    
C77   O22   S    
C69   C136  A    
C2    N24   A    
C108  C123  S    
C41   H29   S    
N6    Ni1   S    
C30   H122  S    
C14   C44   A    
C22   H100  S    
N24   Ni1   S    
C6    C70   S    
C29   O4    S    
C80   C98   S    
N26   Ni3   S    
C66   N28   A    
C60   N23   A    
C6    C131  A    
N17   Ni8   S    
C120  H57   S    
C130  N5    A    
C118  H55   S    
C122  H60   S    
C101  O7    S    
C101  F16   S    
N4    Ni7   S    
C110  H43   S    
C11   N13   A    
C30   O5    S    
C24   F30   S    
C18   H86   S    
C19   H91   S    
C66   C135  A    
C132  H69   S    
C122  H61   S    
N5    N6    A    
C26   O24   S    
C9    C35   A    
N16   N17   A    
C39   O14   S    
C107  F8    S    
C53   C72   S    
C107  O15   S    
C37   H17   S    
C59   O1    S    
C5    C114  A    
C117  H49   S    
N15   Ni6   S    
C31   O6    S    
C28   O3    S    
C85   C91   S    
C41   O16   S    
N9    N10   A    
C2    C46   A    
C10   N11   A    
C32   H4    S    
C59   C64   S    
C64   H74   S    
C87   H24   S    
C23   H102  S    
N31   Ni8   S    
C37   H16   S    
C16   N17   A    
C48   C104  A    
C42   O17   S    
C103  O16   S    
C77   O24   S    
C46   C95   S    
C88   C92   S    
C8    N9    A    
C125  C128  S    
C94   C136  S    
C11   C43   A    
C36   H12   S    
C51   C70   S    
C64   C70   S    
N8    Ni3   S    
C29   H119  S    
N28   Ni5   S    
C4    C112  A    
N19   N22   A    
C80   O4    S    
C56   H81   S    
C84   C101  S    
C1    N1    A    
C42   H31   S    
C60   H52   S    
C93   H77   S    
C76   F4    S    
C100  F15   S    
C128  H62   S    
N22   Ni2   S    
C39   H22   S    
C54   C56   S    
C104  N20   A    
C25   H105  S    
N32   Ni6   S    
C21   H95   S    
C77   C95   S    
C14   F24   S    
C111  C120  S    
C69   O13   S    
C76   F35   S    
C17   H82   S    
C19   H89   S    
N11   Ni3   S    
C53   C62   S    
C7    C132  A    
C100  O6    S    
N3    Ni8   S    
C26   H111  S    
C31   H127  S    
C75   C92   S    
C38   H20   S    
C5    C116  A    
C19   O18   S    
N23   N31   A    
C111  H48   S    
C15   C45   A    
C1    C134  A    
N29   Ni6   S    
C88   C103  S    
C58   C63   S    
C65   H85   S    
C17   H83   S    
C121  H58   S    
C62   C65   S    
C33   H6    S    
C88   H34   S    
C20   H93   S    
N27   N30   A    
C67   N29   A    
C11   H75   S    
C55   C57   S    
C116  F21   S    
N21   N25   A    
C43   C124  S    
C34   H10   S    
C36   H14   S    
N18   Ni6   S    
C85   F13   S    
C52   C70   S    
C112  N32   A    
C54   C72   S    
N1    Ni1   S    
C9    H72   S    
C68   N30   A    
C120  H53   S    
C97   C101  S    
C78   O23   S    
N10   Ni2   S    
