data_mof_unit_21033.cif
_audit_creation_date              2012-10-26T20:03:01-0400
_audit_creation_method            fapswitch 2.2
_symmetry_space_group_name_H-M    P1
_symmetry_Int_Tables_number       1
_space_group_crystal_system       triclinic
_cell_length_a                    10.724417
_cell_length_b                    12.296844
_cell_length_c                    13.215263
_cell_angle_alpha                 116.33173
_cell_angle_beta                  77.959833
_cell_angle_gamma                 101.061833
_cell_volume                      1517.74986894

loop_
_atom_site_label
_atom_site_type_symbol
_atom_type_description
_atom_site_fract_x
_atom_site_fract_y
_atom_site_fract_z
_atom_type_partial_charge
C1    C     C_R   0.512073 0.854508 0.286655 0.552200
C2    C     C_R   0.535694 0.561522 0.015472 0.028138
C3    C     C_R   0.485563 0.643716 0.126050 -0.020327
C4    C     C_R   0.739644 0.000379 0.501221 0.577920
C5    C     C_R   0.495106 0.434435 0.980977 -0.019335
C6    C     C_R   0.429115 0.389994 0.062479 0.047876
C7    C     C_R   0.378899 0.472345 0.169435 -0.123097
C8    C     C_R   0.396750 0.596096 0.196007 -0.140221
C9    C     C_R   0.508859 0.351375 0.866543 -0.136655
C10   C     C_R   0.428417 0.181985 0.917544 -0.122871
C11   C     C_R   0.527419 0.770840 0.164532 -0.017066
C12   C     C_3   0.122325 0.002788 0.499646 0.038748
C13   C     C_R   0.703382 0.346764 0.328500 -0.163920
C14   C     C_R   0.326369 0.759151 0.644937 0.047562
C15   C     C_R   0.289934 0.662663 0.676949 -0.160741
C16   C     C_R   0.484230 0.144874 0.713109 0.540950
C17   C     C_R   0.355893 0.559736 0.622956 -0.140686
C18   C     C_R   0.459546 0.551827 0.535380 -0.004895
C19   C     C_R   0.493625 0.653325 0.505788 0.180056
C20   C     C_R   0.530564 0.447650 0.476140 -0.009364
C21   C     C_R   0.632875 0.447129 0.388564 0.040381
C22   C     C_R   0.664914 0.546957 0.361645 -0.178039
C23   C     C_3   0.043346 0.998614 0.611099 -0.306901
C24   C     C_R   0.597549 0.647814 0.419419 -0.103213
C25   C     C_R   0.505105 0.343072 0.499454 0.050983
C26   C     C_R   0.672084 0.246321 0.354474 0.024946
C27   C     C_R   0.260121 0.001035 0.500159 0.551556
C28   C     C_3   0.954358 0.118922 0.495196 -0.163561
C29   C     C_3   0.098675 0.121239 0.493385 0.169366
C30   C     C_3   0.899159 0.996879 0.611559 -0.307024
C31   C     C_3   0.929230 0.887180 0.395954 0.159601
C32   C     C_3   0.877780 0.000320 0.500724 0.038618
C33   C     C_3   0.447918 0.168174 0.132605 -0.127027
C34   C     C_3   0.074215 0.889066 0.396303 -0.169366
C35   C     C_3   0.807784 0.513861 0.876687 -0.136245
C36   C     C_3   0.186240 0.251886 0.405870 -0.112111
C37   C     C_3   0.886198 0.771062 0.209335 -0.135463
C38   C     C_R   0.406147 0.263340 0.032385 0.267825
C39   C     C_R   0.474747 0.226445 0.834377 -0.066660
C40   C     C_R   0.603630 0.815492 0.088236 -0.187470
C41   C     C_R   0.652873 0.735723 0.980397 -0.118064
C42   C     C_R   0.627770 0.609782 0.946178 0.275750
Cu1   Cu    Cu3+1 0.529690 0.098270 0.475420 0.951760
Cu2   Cu    Cu3+1 0.470310 0.901730 0.524580 0.904432
H1    H     H_    0.089760 0.804157 0.400254 0.066206
H2    H     H_    0.781669 0.345752 0.261410 0.090633
H3    H     H_    0.430506 0.336149 0.565572 0.112835
H4    H     H_    0.274939 0.838846 0.687558 0.125567
H5    H     H_    0.323685 0.487965 0.651361 0.088275
H6    H     H_    0.631032 0.719673 0.393234 0.182974
H7    H     H_    0.129756 0.200538 0.571434 0.086393
H8    H     H_    0.861846 0.076800 0.687340 0.121363
H9    H     H_    0.076030 0.079359 0.686686 0.109881
H10   H     H_    0.876389 0.803944 0.406000 0.091938
H11   H     H_    0.131037 0.889064 0.315544 0.181604
H12   H     H_    0.845939 0.913020 0.618973 0.140301
H13   H     H_    0.918903 0.200553 0.570192 0.067074
H14   H     H_    0.409077 0.141617 0.204080 0.174505
H15   H     H_    0.534380 0.235210 0.157084 0.118488
H16   H     H_    0.475019 0.083999 0.056561 0.113586
H17   H     H_    0.634408 0.912216 0.114944 0.134149
H18   H     H_    0.779649 0.465745 0.933652 0.113082
H19   H     H_    0.870997 0.599897 0.917173 0.104424
H20   H     H_    0.864245 0.453515 0.797547 0.137385
H21   H     H_    0.938171 0.125454 0.417632 0.198375
H22   H     H_    0.743640 0.547510 0.295274 0.092957
H23   H     H_    0.058208 0.915670 0.618931 0.142864
H24   H     H_    0.210403 0.667735 0.743971 0.100135
H25   H     H_    0.248109 0.310105 0.472336 0.100827
H26   H     H_    0.093700 0.290452 0.426956 0.095650
H27   H     H_    0.234733 0.255198 0.324578 0.186186
H28   H     H_    0.961928 0.713357 0.195240 0.096453
H29   H     H_    0.885980 0.776686 0.127890 0.147088
H30   H     H_    0.790093 0.727888 0.231745 0.108555
H31   H     H_    0.403298 0.084930 0.893406 0.139223
H32   H     H_    0.318234 0.440910 0.230026 0.149536
H33   H     H_    0.536589 0.383700 0.800608 0.206016
H34   H     H_    0.719277 0.771851 0.925829 0.133075
H35   H     H_    0.339742 0.652997 0.272541 0.150758
H36   H     H_    0.725419 0.168079 0.307990 0.130081
N1    N     N_R   0.574690 0.246280 0.438200 -0.234402
N2    N     N_R   0.426100 0.754320 0.561190 -0.237899
O1    O     O_R   0.537340 0.972510 0.318130 -0.496872
O2    O     O_3   0.699470 0.536758 0.847337 -0.584223
O3    O     O_3   0.168115 0.129441 0.392379 -0.540890
O4    O     O_3   0.910287 0.890355 0.294047 -0.558047
O5    O     O_R   0.487200 0.806530 0.359650 -0.531309
O6    O     O_R   0.707380 0.082980 0.479220 -0.497645
O7    O     O_R   0.657240 0.917000 0.520740 -0.530322
O8    O     O_R   0.512800 0.193470 0.640350 -0.512410
O9    O     O_R   0.462660 0.027490 0.681870 -0.509169
O10   O     O_R   0.342760 0.083000 0.479260 -0.466986
O11   O     O_R   0.292620 0.917020 0.520780 -0.527879
O12   O     O_3   0.352806 0.219586 0.113851 -0.588728

loop_
_geom_bond_atom_site_label_1
_geom_bond_atom_site_label_2
_ccdc_geom_bond_type
C1    O5    A    
C37   H30   S    
C16   O8    A    
C33   H14   S    
C12   C29   S    
C4    C32   S    
Cu1   O1    S    
C41   C42   A    
C1    C11   S    
C33   O12   S    
C7    C8    A    
C28   H13   S    
C12   C23   S    
Cu1   O6    S    
C28   C29   S    
Cu2   N2    S    
C13   H2    S    
C20   C25   A    
C9    C39   A    
C18   C19   A    
C23   H23   S    
C22   H22   S    
C30   H8    S    
Cu2   O11   S    
C8    H35   S    
C6    C38   A    
C35   H20   S    
Cu2   O5    S    
C25   H3    S    
C29   O3    S    
C36   H27   S    
C34   H11   S    
C33   H15   S    
C31   O4    S    
C21   C22   A    
C25   N1    A    
C36   H26   S    
C23   H9    S    
C24   H6    S    
Cu1   O8    S    
C12   C27   S    
C23   C30   S    
C37   O4    S    
C28   C32   S    
C42   O2    S    
C3    C8    A    
C17   H5    S    
C41   H34   S    
C14   H4    S    
C30   H12   S    
C26   H36   S    
C40   H17   S    
C10   C39   A    
Cu1   Cu2   S    
C5    C9    A    
C10   H31   S    
C31   C32   S    
C38   O12   S    
C17   C18   A    
C31   C34   S    
C13   C21   A    
C27   O10   A    
C34   H1    S    
C9    H33   S    
C6    C7    A    
Cu2   O9    S    
C40   C41   A    
C33   H16   S    
Cu1   N1    S    
C22   C24   A    
C13   C26   A    
C27   O11   A    
C2    C5    A    
C1    O1    A    
C14   N2    A    
C12   C34   S    
C19   N2    A    
C36   H25   S    
C4    O7    A    
C29   H7    S    
C15   C17   A    
C37   H29   S    
C19   C24   A    
C35   O2    S    
C7    H32   S    
C4    O6    A    
C36   O3    S    
C26   N1    A    
Cu1   O10   S    
C10   C38   A    
C28   H21   S    
C30   C32   S    
C5    C6    A    
C2    C42   A    
C15   H24   S    
C2    C3    A    
C35   H18   S    
C18   C20   A    
C31   H10   S    
C11   C40   A    
C3    C11   A    
C16   C39   S    
C20   C21   A    
C16   O9    A    
C37   H28   S    
C14   C15   A    
C35   H19   S    
Cu2   O7    S    
