data_mof_unit_50390.cif
_audit_creation_date              2012-12-11T16:48:32-0500
_audit_creation_method            fapswitch 2.2
_symmetry_space_group_name_H-M    P1
_symmetry_Int_Tables_number       1
_space_group_crystal_system       triclinic
_cell_length_a                    17.301843
_cell_length_b                    24.409283
_cell_length_c                    14.954234
_cell_angle_alpha                 90.229567
_cell_angle_beta                  125.440466
_cell_angle_gamma                 89.714299
_cell_volume                      5145.33096783

loop_
_atom_site_label
_atom_site_type_symbol
_atom_type_description
_atom_site_fract_x
_atom_site_fract_y
_atom_site_fract_z
_atom_type_partial_charge
C1    C     C_R   0.355080 0.347909 0.908068 -0.147993
C2    C     C_R   0.436355 0.497878 0.634289 0.079169
C3    C     C_R   0.054963 0.846840 0.908764 -0.139194
C4    C     C_R   0.383918 0.315865 0.997533 0.085204
C5    C     C_R   0.619015 0.316141 0.999574 0.077752
C6    C     C_R   0.878782 0.817233 0.998682 0.073836
C7    C     C_R   0.113783 0.814887 0.000575 0.089139
C8    C     C_R   0.062290 0.997981 0.365233 0.077489
C9    C     C_R   0.042032 0.997029 0.715496 0.072028
C10   C     C_R   0.188904 0.498445 0.645074 0.137900
C11   C     C_R   0.824414 0.497377 0.277055 0.133880
C12   C     C_R   0.688268 0.998357 0.645552 0.136928
C13   C     C_R   0.324089 0.997363 0.274692 0.133985
C14   C     C_2   0.978062 0.452817 0.368824 -0.111069
C15   C     C_2   0.075772 0.456669 0.466508 -0.114253
C16   C     C_2   0.477763 0.952665 0.368477 -0.111586
C17   C     C_R   0.646058 0.347587 0.090062 -0.159435
C18   C     C_2   0.575116 0.956472 0.466963 -0.115824
C19   C     C_2   0.925011 0.497971 0.324581 -0.192426
C20   C     C_2   0.102252 0.499086 0.535804 -0.196707
C21   C     C_2   0.424952 0.997829 0.323209 -0.192560
C22   C     C_2   0.601284 0.998861 0.536304 -0.196290
C23   C     C_R   0.262775 0.691608 0.102143 0.167290
C24   C     C_R   0.730802 0.693258 0.894495 0.163535
C25   C     C_R   0.761296 0.188676 0.102737 0.166089
C26   C     C_R   0.224724 0.198605 0.895557 0.162995
C27   C     C_R   0.244780 0.673300 0.002744 0.035569
C28   C     C_R   0.851626 0.848636 0.908515 -0.144117
C29   C     C_R   0.752127 0.672777 0.993685 0.037691
C30   C     C_R   0.740052 0.166979 0.003913 0.033266
C31   C     C_R   0.242300 0.182632 0.995497 0.042475
C32   C     C_R   0.156249 0.686160 0.905245 -0.199945
C33   C     C_R   0.840429 0.685868 0.090997 -0.200664
C34   C     C_R   0.653234 0.182096 0.906090 -0.198748
C35   C     C_R   0.332710 0.192533 0.092276 -0.201950
C36   C     C_R   0.603960 0.227990 0.905319 -0.202817
C37   C     C_R   0.391658 0.230668 0.090803 -0.204234
C38   C     C_R   0.101389 0.728204 0.905748 -0.205239
C39   C     C_R   0.142857 0.847016 0.090501 -0.163033
C40   C     C_R   0.892170 0.729727 0.091391 -0.201541
C41   C     C_R   0.641376 0.258134 0.002622 0.031947
C42   C     C_R   0.358251 0.259033 0.992964 0.030458
C43   C     C_R   0.135905 0.757028 0.003743 0.029292
C44   C     C_R   0.854791 0.759882 0.994403 0.033514
C45   C     C_R   0.407139 0.631680 0.090280 -0.141410
C46   C     C_R   0.595235 0.625859 0.907058 -0.146077
C47   C     C_R   0.901067 0.122913 0.091523 -0.147035
C48   C     C_R   0.085151 0.136870 0.908308 -0.143464
C49   C     C_R   0.712176 0.233518 0.101987 0.161505
C50   C     C_R   0.318420 0.646244 0.999507 0.071238
C51   C     C_R   0.282082 0.236701 0.893970 0.157628
C52   C     C_R   0.208373 0.732784 0.102713 0.164346
C53   C     C_R   0.781645 0.736488 0.894823 0.155238
C54   C     C_3   0.798767 0.257318 0.202973 -0.524315
C55   C     C_3   0.199077 0.262859 0.791806 -0.517507
C56   C     C_3   0.291920 0.757086 0.206433 -0.525217
C57   C     C_3   0.695000 0.761662 0.795455 -0.515870
C58   C     C_3   0.351289 0.712311 0.205450 -0.530219
C59   C     C_3   0.639451 0.714277 0.795151 -0.522007
C60   C     C_3   0.852764 0.208581 0.203624 -0.522403
C61   C     C_R   0.680029 0.644932 0.997202 0.072931
C62   C     C_3   0.136974 0.220669 0.793563 -0.528192
C63   C     C_R   0.400760 0.445894 0.472250 0.154542
C64   C     C_R   0.408120 0.445776 0.385428 0.164978
C65   C     C_R   0.092833 0.945348 0.614999 0.165085
C66   C     C_R   0.098078 0.945726 0.526618 0.155345
C67   C     C_R   0.400125 0.495575 0.518968 0.033974
C68   C     C_R   0.415069 0.495309 0.343864 0.036751
C69   C     C_R   0.087906 0.994759 0.659197 0.036195
C70   C     C_R   0.098339 0.995504 0.480550 0.033441
C71   C     C_R   0.380291 0.543913 0.458090 -0.201181
C72   C     C_R   0.812837 0.138471 0.000621 0.071416
C73   C     C_R   0.387741 0.543746 0.369906 -0.200243
C74   C     C_R   0.114565 0.043149 0.632969 -0.200678
C75   C     C_R   0.119411 0.043586 0.542843 -0.203524
C76   C     C_3   0.471377 0.396361 0.427672 -0.523320
C77   C     C_3   0.463458 0.396464 0.522772 -0.517586
C78   C     C_3   0.034549 0.896872 0.475585 -0.516676
C79   C     C_3   0.028680 0.896532 0.572181 -0.523797
C80   C     C_R   0.483919 0.452462 0.251470 -0.146134
C81   C     C_R   0.451653 0.453031 0.698127 -0.143602
C82   C     C_R   0.047402 0.953087 0.301274 -0.142142
C83   C     C_R   0.169239 0.156207 0.998671 0.071135
C84   C     C_R   0.017827 0.952280 0.750223 -0.147686
C85   C     C_R   0.239604 0.544574 0.702326 -0.158389
C86   C     C_R   0.770194 0.543609 0.256659 -0.144580
C87   C     C_R   0.739295 0.044513 0.702474 -0.161268
C88   C     C_R   0.269811 0.043689 0.253621 -0.142707
C89   C     C_R   0.493167 0.543654 0.264958 -0.126951
C90   C     C_R   0.451846 0.544172 0.696569 -0.138123
C91   C     C_R   0.047625 0.044238 0.303475 -0.143424
C92   C     C_R   0.010591 0.043605 0.739294 -0.120775
C93   C     C_R   0.240754 0.452925 0.704580 -0.119449
C94   C     C_R   0.461480 0.497331 0.288313 0.072535
C95   C     C_R   0.766678 0.452255 0.247838 -0.117864
C96   C     C_R   0.740440 0.952881 0.704988 -0.118736
C97   C     C_R   0.266494 0.952249 0.246863 -0.118249
C98   C     C_R   0.312789 0.629006 0.907163 -0.126691
C99   C     C_R   0.682351 0.633290 0.089639 -0.129275
C100  C     C_R   0.810330 0.125760 0.908023 -0.121977
C101  C     C_R   0.176598 0.138229 0.091029 -0.133965
C102  C     C_R   0.444134 0.347080 0.090289 -0.139577
C103  C     C_R   0.558317 0.347991 0.907842 -0.122132
C104  C     C_R   0.940816 0.848312 0.091318 -0.123657
H1    H     H_    0.322467 0.334472 0.824607 0.097151
H2    H     H_    0.455296 0.243165 0.168302 0.124127
H3    H     H_    0.040331 0.742531 0.827774 0.124141
H4    H     H_    0.953577 0.743730 0.169370 0.123070
H5    H     H_    0.793841 0.257782 0.273870 0.189446
H6    H     H_    0.202976 0.258190 0.720518 0.187422
H7    H     H_    0.285688 0.753690 0.276139 0.189688
H8    H     H_    0.698144 0.761544 0.723264 0.187466
H9    H     H_    0.379842 0.683243 0.275012 0.186615
H10   H     H_    0.610786 0.686919 0.722849 0.190863
H11   H     H_    0.879427 0.181238 0.275303 0.191725
H12   H     H_    0.678551 0.333149 0.172787 0.100926
H13   H     H_    0.105797 0.191346 0.723803 0.186499
H14   H     H_    0.371442 0.582824 0.485979 0.124222
H15   H     H_    0.383775 0.582399 0.332261 0.123711
H16   H     H_    0.119800 0.081710 0.672070 0.125494
H17   H     H_    0.127766 0.082519 0.515177 0.124757
H18   H     H_    0.437021 0.360188 0.373057 0.190629
H19   H     H_    0.532353 0.405187 0.602313 0.205197
H20   H     H_    0.965208 0.906327 0.397041 0.204944
H21   H     H_    0.062982 0.859928 0.625382 0.190640
H22   H     H_    0.544669 0.405101 0.453434 0.201053
H23   H     H_    0.817332 0.834791 0.824995 0.098289
H24   H     H_    0.424633 0.360326 0.522855 0.186496
H25   H     H_    0.072331 0.860481 0.473397 0.186875
H26   H     H_    0.955982 0.905870 0.548206 0.200981
H27   H     H_    0.438754 0.642305 0.173745 0.099155
H28   H     H_    0.569602 0.627126 0.822103 0.109929
H29   H     H_    0.926454 0.124237 0.176346 0.111476
H30   H     H_    0.050962 0.147965 0.824276 0.097995
H31   H     H_    0.468841 0.410014 0.254108 0.110596
H32   H     H_    0.430595 0.411272 0.670924 0.097450
H33   H     H_    0.068052 0.911236 0.328096 0.099087
H34   H     H_    0.173675 0.833114 0.173191 0.100246
H35   H     H_    0.032920 0.909746 0.747254 0.110835
H36   H     H_    0.225001 0.586047 0.671252 0.090963
H37   H     H_    0.797281 0.584474 0.281336 0.087147
H38   H     H_    0.724493 0.085972 0.671299 0.093590
H39   H     H_    0.296569 0.084748 0.274932 0.087350
H40   H     H_    0.227002 0.410554 0.678616 0.083250
H41   H     H_    0.785915 0.409655 0.253560 0.091749
H42   H     H_    0.726530 0.910488 0.679199 0.084433
H43   H     H_    0.285580 0.909595 0.252738 0.091035
H44   H     H_    0.254696 0.634689 0.822233 0.091242
H45   H     H_    0.957752 0.537945 0.339619 0.128406
H46   H     H_    0.732703 0.648766 0.171223 0.086977
H47   H     H_    0.752594 0.132538 0.823324 0.091960
H48   H     H_    0.226288 0.152393 0.173922 0.084968
H49   H     H_    0.489881 0.332673 0.173932 0.083253
H50   H     H_    0.513570 0.334379 0.823482 0.081530
H51   H     H_    0.985299 0.834390 0.175413 0.082909
H52   H     H_    0.008620 0.832747 0.824893 0.081786
H53   H     H_    0.134622 0.669128 0.827097 0.125746
H54   H     H_    0.863779 0.667253 0.168467 0.123893
H55   H     H_    0.629678 0.163509 0.828412 0.125957
H56   H     H_    0.057296 0.534646 0.516125 0.129607
H57   H     H_    0.353869 0.175845 0.170374 0.123551
H58   H     H_    0.821906 0.296485 0.187730 0.200511
H59   H     H_    0.182070 0.304876 0.804673 0.205016
H60   H     H_    0.312869 0.798155 0.195479 0.199689
H61   H     H_    0.674361 0.801452 0.812619 0.204703
H62   H     H_    0.404090 0.728907 0.192865 0.199526
H63   H     H_    0.587474 0.727208 0.812282 0.200834
H64   H     H_    0.906233 0.220463 0.188488 0.200352
H65   H     H_    0.086122 0.239020 0.808048 0.200379
H66   H     H_    0.497297 0.584240 0.295456 0.085088
H67   H     H_    0.457984 0.037745 0.338745 0.129120
H68   H     H_    0.433060 0.585847 0.667299 0.084289
H69   H     H_    0.066339 0.085869 0.333193 0.086106
H70   H     H_    0.010276 0.084516 0.713093 0.084444
H71   H     H_    0.946346 0.412403 0.348314 0.117612
H72   H     H_    0.120878 0.420820 0.489499 0.117091
H73   H     H_    0.445935 0.912280 0.347761 0.117952
H74   H     H_    0.620317 0.920652 0.490125 0.118151
H75   H     H_    0.556102 0.034364 0.516294 0.130012
H76   H     H_    0.544323 0.243101 0.827087 0.123251
N1    N     N_R   0.395410 0.396350 0.944340 -0.037467
N2    N     N_R   0.474920 0.471030 0.794350 -0.038386
N3    N     N_R   0.025080 0.971030 0.205650 -0.038817
N4    N     N_R   0.974920 0.971030 0.794350 -0.040959
N5    N     N_R   0.320260 0.527820 0.794570 -0.038322
N6    N     N_R   0.679740 0.527820 0.205430 -0.041486
N7    N     N_R   0.820260 0.027820 0.794570 -0.039833
N8    N     N_R   0.179740 0.027820 0.205430 -0.040387
N9    N     N_R   0.524590 0.527840 0.205200 -0.039904
N10   N     N_R   0.475410 0.527840 0.794800 -0.038407
N11   N     N_R   0.024590 0.027840 0.205200 -0.039185
N12   N     N_R   0.604590 0.396350 0.055660 -0.037450
N13   N     N_R   0.975410 0.027840 0.794800 -0.039318
N14   N     N_R   0.320750 0.471000 0.795020 -0.042587
N15   N     N_R   0.679250 0.471000 0.204980 -0.046074
N16   N     N_R   0.820750 0.971000 0.795020 -0.043585
N17   N     N_R   0.179250 0.971000 0.204980 -0.045181
N18   N     N_R   0.393620 0.602490 0.942710 -0.040809
N19   N     N_R   0.606380 0.602490 0.057290 -0.039182
N20   N     N_R   0.893620 0.102490 0.942710 -0.041544
N21   N     N_R   0.106380 0.102490 0.057290 -0.037670
N22   N     N_R   0.451720 0.396350 0.057510 -0.037566
N23   N     N_R   0.895410 0.896350 0.944340 -0.038155
N24   N     N_R   0.548280 0.396350 0.942490 -0.037842
N25   N     N_R   0.951720 0.896350 0.057510 -0.038348
N26   N     N_R   0.048280 0.896350 0.942490 -0.036882
N27   N     N_R   0.104590 0.896350 0.055660 -0.036835
N28   N     N_R   0.449930 0.602500 0.055880 -0.040513
N29   N     N_R   0.550070 0.602500 0.944120 -0.041177
N30   N     N_R   0.949930 0.102500 0.055880 -0.042099
N31   N     N_R   0.050070 0.102500 0.944120 -0.038670
N32   N     N_R   0.525080 0.471030 0.205650 -0.041179
Ni1   Ni    Ni4+2 0.435420 0.434270 0.870230 0.203413
Ni2   Ni    Ni4+2 0.564580 0.434270 0.129770 0.206505
Ni3   Ni    Ni4+2 0.935420 0.934270 0.870230 0.204958
Ni4   Ni    Ni4+2 0.064580 0.934270 0.129770 0.204479
Ni5   Ni    Ni4+2 0.563430 0.564580 0.128740 0.214601
Ni6   Ni    Ni4+2 0.436570 0.564580 0.871260 0.210323
Ni7   Ni    Ni4+2 0.063430 0.064580 0.128740 0.211152
Ni8   Ni    Ni4+2 0.936570 0.064580 0.871260 0.213751

loop_
_geom_bond_atom_site_label_1
_geom_bond_atom_site_label_2
_ccdc_geom_bond_type
N26   Ni3   S    
N13   Ni8   S    
C5    C103  A    
C10   C85   A    
C16   C21   D    
C65   C79   S    
C12   C22   S    
N7    N16   A    
C23   C58   S    
C76   H22   S    
C93   N14   A    
C95   H41   S    
N5    N14   A    
N14   Ni1   S    
C1    N1    A    
N20   N30   A    
N3    N11   A    
C54   C60   S    
C16   H73   S    
N31   Ni8   S    
N23   N25   A    
C11   C19   S    
C60   H64   S    
C80   H31   S    
C4    C42   S    
C15   H72   S    
C8    C82   A    
N29   Ni6   S    
C61   C99   A    
C48   H30   S    
C35   C37   A    
C78   H25   S    
C9    C69   S    
C89   H66   S    
C82   H33   S    
C3    C7    A    
C24   C59   S    
C46   H28   S    
C43   C52   A    
C57   C59   S    
C57   H8    S    
C57   H61   S    
C11   C86   A    
C11   C95   A    
C49   C54   S    
C55   C62   S    
C29   C33   A    
C37   C42   A    
C31   C83   S    
C91   H69   S    
C28   N23   A    
C41   C49   A    
C38   H3    S    
C2    C90   A    
C103  N24   A    
C3    H52   S    
C62   H13   S    
C19   H45   S    
C24   C29   A    
C52   C56   S    
C44   C53   A    
C6    C28   A    
C23   C27   A    
N1    N22   A    
C84   H35   S    
C10   C20   S    
N15   Ni2   S    
C36   H76   S    
C58   H9    S    
C25   C60   S    
C7    C43   S    
C83   C101  A    
C56   H7    S    
C34   C36   A    
C71   H14   S    
C27   C50   S    
C42   C51   A    
C40   H4    S    
C34   H55   S    
C64   C76   S    
C63   C77   S    
C79   H21   S    
C39   H34   S    
C26   C31   A    
C17   N12   A    
C6    C44   S    
C47   H29   S    
C13   C97   A    
C97   H43   S    
C36   C41   A    
N18   Ni6   S    
C81   N2    A    
N10   Ni6   S    
C9    C92   A    
N12   Ni2   S    
C99   H46   S    
N9    Ni5   S    
C29   C61   S    
N7    Ni8   S    
C100  H47   S    
C85   N5    A    
C15   C20   D    
C66   C78   S    
N6    Ni5   S    
C63   C67   A    
C50   C98   A    
C33   C40   A    
N5    Ni6   S    
C98   N18   A    
C46   C61   A    
N18   N28   A    
C97   N17   A    
N6    N15   A    
C84   N4    A    
C76   C77   S    
N25   Ni4   S    
C2    C67   S    
C74   C75   A    
N11   Ni7   S    
C71   C73   A    
N16   Ni3   S    
C30   C34   A    
N26   N27   A    
C25   C30   A    
N4    Ni3   S    
C87   N7    A    
C10   C93   A    
C92   H70   S    
C68   C73   A    
C21   H67   S    
C79   H26   S    
C91   N11   A    
C82   N3    A    
C68   C94   S    
N30   Ni7   S    
C63   C64   A    
C54   H5    S    
C39   N27   A    
N19   N29   A    
C96   N16   A    
C14   H71   S    
C77   H19   S    
N2    Ni1   S    
C86   N6    A    
C103  H50   S    
C85   H36   S    
C48   N31   A    
C88   N8    A    
N19   Ni5   S    
C38   C43   A    
C17   H12   S    
N12   N24   A    
C13   C21   S    
C69   C74   A    
C8    C91   A    
C35   H57   S    
C104  N25   A    
N22   Ni2   S    
C77   H24   S    
C102  H49   S    
N21   Ni7   S    
C90   N10   A    
N17   Ni4   S    
C100  N20   A    
N32   Ni2   S    
C92   N13   A    
C45   N28   A    
C32   C38   A    
C55   H6    S    
N20   Ni8   S    
C31   C35   A    
C99   N19   A    
C80   C94   A    
C64   C68   A    
C59   H63   S    
C33   H54   S    
C81   H32   S    
C32   H53   S    
C72   C100  A    
N8    Ni7   S    
N23   Ni3   S    
N28   Ni5   S    
C62   H65   S    
C5    C41   S    
C95   N15   A    
C88   H39   S    
C12   C87   A    
C27   C32   A    
C75   H17   S    
C3    N26   A    
C14   C19   D    
C22   H75   S    
C60   H11   S    
N9    N32   A    
C53   C57   S    
C89   C94   A    
C30   C72   S    
C28   H23   S    
C45   H27   S    
C54   H58   S    
C46   N29   A    
C96   H42   S    
C56   H60   S    
C101  H48   S    
C8    C70   S    
C6    C104  A    
C48   C83   A    
C80   N32   A    
C1    C4    A    
C76   H18   S    
C18   C22   D    
C24   C53   A    
C55   H59   S    
C37   H2    S    
C101  N21   A    
C26   C51   A    
N3    Ni4   S    
C45   C50   A    
C78   C79   S    
C23   C52   A    
C66   C70   A    
C98   H44   S    
N8    N17   A    
C59   H10   S    
C65   C69   A    
C26   C62   S    
N24   Ni1   S    
C13   C88   A    
C93   H40   S    
N27   Ni4   S    
C74   H16   S    
C56   C58   S    
C51   C55   S    
C87   H38   S    
C102  N22   A    
C58   H62   S    
C25   C49   A    
C47   C72   A    
C9    C84   A    
C73   H15   S    
C4    C102  A    
C67   C71   A    
C104  H51   S    
C40   C44   A    
C5    C17   A    
C89   N9    A    
C18   H74   S    
C16   C18   S    
C65   C66   A    
C20   H56   S    
C47   N30   A    
C90   H68   S    
C70   C75   A    
C7    C39   A    
C14   C15   S    
C12   C96   A    
C2    C81   A    
N1    Ni1   S    
N2    N10   A    
N21   N31   A    
N4    N13   A    
C86   H37   S    
C1    H1    S    
C78   H20   S    
