data_mof_unit_60187.cif
_audit_creation_date              2012-10-26T17:14:08-0400
_audit_creation_method            fapswitch 2.2
_symmetry_space_group_name_H-M    P1
_symmetry_Int_Tables_number       1
_space_group_crystal_system       triclinic
_cell_length_a                    19.089585
_cell_length_b                    18.852981
_cell_length_c                    19.130633
_cell_angle_alpha                 109.39782
_cell_angle_beta                  110.136863
_cell_angle_gamma                 109.229263
_cell_volume                      5276.78115042

loop_
_atom_site_label
_atom_site_type_symbol
_atom_type_description
_atom_site_fract_x
_atom_site_fract_y
_atom_site_fract_z
_atom_type_partial_charge
C1    C     C_R   0.382794 0.381872 0.499787 0.544933
C2    C     C_R   0.603694 0.334149 0.615948 0.024268
C3    C     C_2   0.254698 0.258529 0.576783 -0.028704
C4    C     C_R   0.617475 0.499328 0.618247 0.535082
C5    C     C_2   0.181507 0.190397 0.504334 -0.083225
C6    C     C_2   0.312386 0.328973 0.571521 -0.140868
C7    C     C_2   0.322063 0.313238 0.502699 -0.139803
C8    C     C_2   0.170238 0.425806 0.186902 -0.139061
C9    C     C_2   0.185789 0.485924 0.162214 -0.008637
C10   C     C_2   0.240708 0.421504 0.246447 -0.162577
C11   C     C_2   0.306792 0.494402 0.319127 -0.120996
C12   C     C_R   0.754729 0.579601 0.757728 0.001929
C13   C     C_2   0.735581 0.765017 0.433966 -0.144885
C14   C     C_2   0.820358 0.799518 0.483273 -0.128652
C15   C     C_2   0.674361 0.689541 0.430173 -0.015065
C16   C     C_R   0.616996 0.618382 0.500419 0.569172
C17   C     C_2   0.682298 0.689376 0.503745 0.018450
C18   C     C_R   0.991985 0.381690 0.875374 0.559528
C19   C     C_R   0.879347 0.501255 0.880100 0.528118
C20   C     C_R   0.000080 0.617477 0.117048 0.549528
C21   C     C_R   0.115511 0.495690 0.110257 0.573572
C22   C     C_R   0.003422 0.121061 0.616877 0.554405
C23   C     C_R   0.813985 0.501458 0.813290 -0.015865
C24   C     C_R   0.117244 0.119778 0.502157 0.552890
C25   C     C_R   0.006073 0.888234 0.383128 0.569575
C26   C     C_R   0.883223 0.878135 0.495276 0.560004
C27   C     C_2   0.006173 0.260997 0.679982 -0.050524
C28   C     C_R   0.378554 0.496825 0.382246 0.554890
C29   C     C_2   0.012380 0.193725 0.685418 -0.135021
C30   C     C_2   0.015741 0.329687 0.754430 -0.143856
C31   C     C_2   0.973702 0.311754 0.795902 -0.024904
C32   C     C_2   0.078530 0.811986 0.329580 -0.027315
C33   C     C_2   0.020402 0.840366 0.315238 -0.005001
C34   C     C_R   0.750524 0.422609 0.736201 0.001522
C35   C     C_2   0.080884 0.755494 0.256122 -0.033318
C36   C     C_2   0.007415 0.681556 0.191633 -0.139940
C37   C     C_R   0.768256 0.660626 0.763834 -0.107223
C38   C     C_R   0.832550 0.738781 0.839450 -0.102028
C39   C     C_R   0.885711 0.738660 0.910824 0.013728
C40   C     C_R   0.877421 0.659777 0.903803 -0.078602
C41   C     C_R   0.815321 0.580078 0.825768 -0.007520
C42   C     C_3   0.274870 0.540488 0.178077 -0.382094
C43   C     C_3   0.598344 0.617580 0.342149 -0.372791
C44   C     C_3   0.748974 0.768689 0.593040 -0.404442
C45   C     C_R   0.677526 0.418644 0.678395 0.024036
C46   C     C_1   0.998297 0.272342 0.607043 0.230019
C47   C     C_3   0.899557 0.221507 0.758637 -0.393956
C48   C     C_3   0.138231 0.830238 0.417569 -0.364650
C49   C     C_3   0.970786 0.831475 0.228012 -0.401576
C50   C     C_1   0.162273 0.778831 0.258462 0.230917
C51   C     C_3   0.952780 0.822085 0.993977 -0.406088
C52   C     C_3   0.512705 0.316479 0.579595 -0.365805
C53   C     C_3   0.276784 0.269247 0.664730 -0.362693
C54   C     C_R   0.682920 0.498624 0.685887 -0.019525
C55   C     C_R   0.758058 0.347110 0.716225 -0.093259
C56   C     C_R   0.690860 0.267505 0.645059 -0.130635
C57   C     C_R   0.612979 0.260389 0.597000 -0.097129
Cu1   Cu    Cu3+1 0.500390 0.438990 0.439360 0.917509
Cu2   Cu    Cu3+1 0.499610 0.561010 0.560640 0.923004
Cu3   Cu    Cu3+1 0.935830 0.439030 0.996840 0.927987
Cu4   Cu    Cu3+1 0.057850 0.561040 0.996790 0.948453
Cu5   Cu    Cu3+1 0.061410 0.000010 0.561410 0.910665
Cu6   Cu    Cu3+1 0.938590 0.999990 0.438590 0.954923
H1    H     H_    0.558252 0.196371 0.547387 0.113581
H2    H     H_    0.730647 0.665368 0.710454 0.137881
H3    H     H_    0.029974 0.194499 0.746225 0.106680
H4    H     H_    0.060266 0.396585 0.776863 0.141355
H5    H     H_    0.950206 0.663980 0.197421 0.105825
H6    H     H_    0.840030 0.799375 0.842353 0.105667
H7    H     H_    0.920338 0.661911 0.959949 0.136536
H8    H     H_    0.816226 0.349121 0.754838 0.129782
H9    H     H_    0.697438 0.210248 0.630467 0.111439
H10   H     H_    0.269676 0.539078 0.117943 0.147525
H11   H     H_    0.303871 0.608840 0.228364 0.138808
H12   H     H_    0.163039 0.190518 0.443972 0.093765
H13   H     H_    0.319617 0.516064 0.196784 0.133827
H14   H     H_    0.599772 0.633270 0.291403 0.119079
H15   H     H_    0.600138 0.556239 0.326426 0.159364
H16   H     H_    0.536962 0.608028 0.340260 0.133464
H17   H     H_    0.732281 0.765877 0.642544 0.136473
H18   H     H_    0.812585 0.772559 0.615056 0.116649
H19   H     H_    0.754046 0.829253 0.593482 0.140874
H20   H     H_    0.844250 0.225944 0.762370 0.137842
H21   H     H_    0.873478 0.178170 0.689414 0.137797
H22   H     H_    0.920840 0.190983 0.795920 0.131738
H23   H     H_    0.351019 0.394153 0.627193 0.150760
H24   H     H_    0.179451 0.800626 0.414514 0.126229
H25   H     H_    0.181612 0.901363 0.461930 0.153596
H26   H     H_    0.100255 0.801622 0.443551 0.152131
H27   H     H_    0.975588 0.894557 0.237006 0.146029
H28   H     H_    0.996132 0.814462 0.184643 0.124839
H29   H     H_    0.901810 0.781912 0.195326 0.132565
H30   H     H_    0.952603 0.879205 0.989298 0.128556
H31   H     H_    0.939857 0.820840 0.045985 0.126337
H32   H     H_    0.017657 0.829762 0.011120 0.140151
H33   H     H_    0.483407 0.291761 0.509515 0.170076
H34   H     H_    0.290274 0.247231 0.450126 0.101656
H35   H     H_    0.474447 0.265366 0.588962 0.112020
H36   H     H_    0.508640 0.373964 0.613355 0.139031
H37   H     H_    0.335500 0.332768 0.716299 0.114739
H38   H     H_    0.222847 0.266278 0.676072 0.144997
H39   H     H_    0.289866 0.217514 0.669939 0.155964
H40   H     H_    0.104499 0.379839 0.164746 0.140305
H41   H     H_    0.235882 0.358892 0.233131 0.141709
H42   H     H_    0.305036 0.554611 0.336132 0.121472
H43   H     H_    0.710322 0.791859 0.395975 0.148314
H44   H     H_    0.844991 0.767825 0.515037 0.115192
N1    N     N_1   0.992066 0.281456 0.548692 -0.287860
N2    N     N_1   0.227352 0.797519 0.260445 -0.301337
O1    O     O_R   0.411310 0.359450 0.448800 -0.523348
O2    O     O_R   0.947570 0.089010 0.536620 -0.484755
O3    O     O_R   0.140880 0.089030 0.551840 -0.515698
O4    O     O_R   0.410660 0.462490 0.551220 -0.500795
O5    O     O_R   0.037150 0.089020 0.448130 -0.503135
O6    O     O_R   0.052430 0.910990 0.463380 -0.519524
O7    O     O_R   0.948700 0.910980 0.359670 -0.512579
O8    O     O_R   0.962850 0.910980 0.551870 -0.506891
O9    O     O_R   0.859120 0.910970 0.448160 -0.505912
O10   O     O_R   0.589930 0.448490 0.538390 -0.500987
O11   O     O_R   0.589280 0.551530 0.640800 -0.521780
O12   O     O_R   0.048900 0.462510 0.908320 -0.515541
O13   O     O_R   0.589340 0.537510 0.448780 -0.508799
O14   O     O_R   0.588690 0.640550 0.551200 -0.517655
O15   O     O_R   0.410720 0.448470 0.359200 -0.504908
O16   O     O_R   0.410070 0.551510 0.461610 -0.502190
O17   O     O_R   0.945860 0.359480 0.908360 -0.515362
O18   O     O_R   0.855710 0.448510 0.907250 -0.511818
O19   O     O_R   0.958760 0.551540 0.907200 -0.516400
O20   O     O_R   0.944780 0.537560 0.085320 -0.505704
O21   O     O_R   0.047820 0.640590 0.085270 -0.495331
O22   O     O_R   0.034920 0.448530 0.086440 -0.512092
O23   O     O_R   0.137970 0.551560 0.086390 -0.499951
O24   O     O_R   0.051300 0.089020 0.640330 -0.513141

loop_
_geom_bond_atom_site_label_1
_geom_bond_atom_site_label_2
_ccdc_geom_bond_type
C39   C51   S    
C55   C56   A    
C24   O5    A    
Cu2   O11   S    
C22   C29   S    
C27   C29   D    
C35   C36   D    
C24   O3    A    
C26   O8    A    
C20   O20   A    
C3    C6    S    
C2    C57   A    
C43   H15   S    
C9    C42   S    
C37   C38   A    
C40   H7    S    
C47   H22   S    
Cu5   O24   S    
C16   O14   A    
C44   H19   S    
C10   H41   S    
C25   O6    A    
C30   C31   D    
C43   H16   S    
C19   O19   A    
C56   C57   A    
Cu4   O12   S    
C19   O18   A    
C12   C37   A    
C16   O13   A    
C21   O22   A    
Cu5   O8    S    
Cu4   O23   S    
Cu6   O5    S    
C53   H38   S    
C8    C9    D    
C56   H9    S    
C37   H2    S    
C11   H42   S    
C48   H25   S    
C4    O10   A    
C47   H20   S    
C49   H27   S    
C30   H4    S    
C38   H6    S    
C34   C55   A    
C53   H37   S    
C1    C7    S    
C13   C14   D    
C27   C30   S    
C32   C48   S    
C1    O4    A    
C49   H28   S    
Cu3   O22   S    
C2    C45   A    
Cu2   O14   S    
C42   H11   S    
Cu1   O13   S    
C22   O24   A    
C32   C35   S    
C44   H17   S    
C44   H18   S    
C25   O7    A    
C39   C40   A    
Cu6   O9    S    
C16   C17   S    
C51   H31   S    
Cu1   Cu2   S    
C50   N2    T    
C46   N1    T    
Cu3   Cu4   S    
C5    H12   S    
C19   C23   S    
C21   O23   A    
Cu5   Cu6   S    
C1    O1    A    
C53   H39   S    
Cu2   O4    S    
C23   C34   A    
C35   C50   S    
C28   O15   A    
C48   H24   S    
C34   C45   A    
C47   H21   S    
C14   C26   S    
C2    C52   S    
Cu4   O21   S    
C51   H30   S    
Cu6   O7    S    
C27   C46   S    
C40   C41   A    
C45   C54   A    
C48   H26   S    
C13   C15   S    
Cu2   O16   S    
C49   H29   S    
C28   O16   A    
C57   H1    S    
C15   C17   D    
C14   H44   S    
C42   H10   S    
C7    H34   S    
C4    C54   S    
Cu1   O1    S    
C42   H13   S    
Cu3   O18   S    
C26   O9    A    
C20   O21   A    
C13   H43   S    
C3    C5    D    
C23   C41   A    
Cu3   O20   S    
C36   H5    S    
C6    C7    D    
C12   C41   A    
C43   H14   S    
C52   H36   S    
Cu1   O15   S    
C6    H23   S    
C32   C33   D    
Cu3   O17   S    
C17   C44   S    
C15   C43   S    
Cu5   O6    S    
C18   O17   A    
C3    C53   S    
C9    C21   S    
C38   C39   A    
C5    C24   S    
C11   C28   S    
C52   H35   S    
Cu1   O10   S    
C52   H33   S    
Cu4   O19   S    
Cu6   O2    S    
C8    H40   S    
C12   C54   A    
C10   C11   D    
C18   O12   A    
C29   H3    S    
C20   C36   S    
Cu5   O3    S    
C8    C10   S    
C22   O2    A    
C51   H32   S    
C4    O11   A    
C31   C47   S    
C18   C31   S    
C33   C49   S    
C55   H8    S    
C25   C33   S    
