data_mof_unit_66848.cif
_audit_creation_date              2012-12-11T17:06:58-0500
_audit_creation_method            fapswitch 2.2
_symmetry_space_group_name_H-M    P1
_symmetry_Int_Tables_number       1
_space_group_crystal_system       triclinic
_cell_length_a                    8.430532
_cell_length_b                    15.263996
_cell_length_c                    16.610769
_cell_angle_alpha                 99.539675
_cell_angle_beta                  93.543785
_cell_angle_gamma                 98.498803
_cell_volume                      2076.64815946

loop_
_atom_site_label
_atom_site_type_symbol
_atom_type_description
_atom_site_fract_x
_atom_site_fract_y
_atom_site_fract_z
_atom_type_partial_charge
Ba1   Ba    Ba6+2 0.163640 0.544330 0.462610 1.783821
Ba2   Ba    Ba6+2 0.646540 0.455660 0.537320 1.812410
C1    C     C_3   0.364224 0.709592 0.181451 -0.155143
C2    C     C_R   0.100057 0.075726 0.534116 -0.019961
C3    C     C_R   0.957950 0.889190 0.524386 -0.068065
C4    C     C_3   0.895698 0.785868 0.247469 0.441623
C5    C     C_R   0.112908 0.922664 0.559534 -0.055491
C6    C     C_R   0.190272 0.010648 0.556903 0.399683
C7    C     C_R   0.890812 0.794648 0.517980 -0.002810
C8    C     C_R   0.738108 0.766654 0.475464 -0.231389
C9    C     C_R   0.915095 0.204912 0.481309 0.123166
C10   C     C_R   0.850697 0.108860 0.468217 0.018017
C11   C     C_R   0.940149 0.045727 0.498751 0.002795
C12   C     C_3   0.464896 0.778163 0.249224 0.693182
C13   C     C_R   0.697339 0.073389 0.428181 0.030022
C14   C     C_R   0.630579 0.982365 0.422421 -0.040952
C15   C     C_R   0.715588 0.920126 0.452440 -0.055932
C16   C     C_3   0.971741 0.881158 0.242122 0.286023
C17   C     C_R   0.871656 0.951411 0.491224 0.021132
C18   C     C_R   0.648657 0.827506 0.444946 0.001808
C19   C     C_R   0.069362 0.231740 0.522063 -0.262847
C20   C     C_R   0.601645 0.554416 0.271194 -0.375198
C21   C     C_R   0.463323 0.490463 0.242031 0.013974
C22   C     C_R   0.416983 0.469076 0.157444 0.225467
C23   C     C_3   0.603988 0.739003 0.742339 0.792773
C24   C     C_R   0.510043 0.510456 0.102238 0.194742
C25   C     C_R   0.661113 0.563724 0.131519 0.254842
C26   C     C_R   0.709634 0.583967 0.216157 -0.129552
C27   C     C_R   0.391482 0.509805 0.854642 0.302761
C28   C     C_3   0.758137 0.268677 0.265596 0.755175
C29   C     C_R   0.347634 0.492100 0.769662 -0.004730
C30   C     C_R   0.280364 0.483454 0.910099 0.224009
C31   C     C_R   0.198837 0.439409 0.740423 -0.326886
C32   C     C_R   0.078420 0.427646 0.794003 -0.011048
C33   C     C_R   0.118180 0.451820 0.879519 0.323982
C34   C     C_3   0.651219 0.800576 0.828995 0.564912
C35   C     C_3   0.747280 0.205138 0.182861 0.759496
C36   C     C_3   0.101087 0.710120 0.725554 0.893332
C37   C     C_3   0.068507 0.715872 0.817637 0.530233
C38   C     C_3   0.238425 0.276091 0.350840 0.420764
C39   C     C_3   0.201854 0.174596 0.326363 0.336591
C40   C     C_3   0.923292 0.162762 0.087157 0.252775
C41   C     C_3   0.246016 0.856797 0.747603 0.251824
C42   C     C_3   0.314549 0.046802 0.299976 0.260708
C43   C     C_3   0.674774 0.855854 0.667932 0.098681
C44   C     C_3   0.534430 0.872501 0.939815 0.319300
C45   C     C_3   0.878793 0.215470 0.739994 0.642744
C46   C     C_3   0.523799 0.233202 0.952728 0.288177
C47   C     C_3   0.430877 0.998903 0.625393 0.245973
C48   C     C_3   0.960932 0.386522 0.967838 0.279557
C49   C     C_3   0.929155 0.906176 0.108847 0.242168
C50   C     C_3   0.814321 0.419241 0.279911 0.288839
C51   C     C_3   0.883604 0.138850 0.789704 0.942547
C52   C     C_3   0.382670 0.262197 0.747445 0.482029
C53   C     C_3   0.377014 0.234586 0.831558 0.316701
C54   C     C_R   0.164050 0.169668 0.545506 0.030866
Cl1   Cl    Cl    0.596743 0.109070 0.178288 -0.677111
Cl2   Cl    Cl    0.992518 0.178413 0.886706 -0.777649
Cl3   Cl    Cl    0.568559 0.583886 0.893152 -0.494587
Cl4   Cl    Cl    0.793769 0.601033 0.061805 -0.491670
Cl5   Cl    Cl    0.252716 0.382978 0.119823 -0.678401
Cl6   Cl    Cl    0.101010 0.595166 0.686986 -0.663115
Cl7   Cl    Cl    0.235199 0.698213 0.880267 -0.600210
Cl8   Cl    Cl    0.903728 0.637720 0.834028 -0.528189
Cl9   Cl    Cl    0.544011 0.873109 0.206453 -0.756527
Cl10  Cl    Cl    0.831208 0.881902 0.837966 -0.711949
Cl11  Cl    Cl    0.776018 0.171353 0.643401 -0.680373
Cl12  Cl    Cl    0.687054 0.087956 0.806629 -0.595253
Cl13  Cl    Cl    0.984681 0.054410 0.737351 -0.702773
H1    H     H_    0.566946 0.747344 0.271117 -0.170928
H2    H     H_    0.705695 0.704481 0.723888 -0.038076
H3    H     H_    0.677187 0.754650 0.871597 0.093440
H4    H     H_    0.262831 0.738367 0.155903 0.205378
H5    H     H_    0.884388 0.928773 0.255165 0.022685
H6    H     H_    0.004309 0.242188 0.730986 -0.126871
H7    H     H_    0.261862 0.276731 0.730511 -0.356762
H8    H     H_    0.472096 0.324454 0.752023 0.065014
H9    H     H_    0.299032 0.276650 0.867247 -0.014626
H10   H     H_    0.848978 0.787240 0.308816 -0.157091
H11   H     H_    0.322547 0.162313 0.823863 0.130319
H12   H     H_    0.709052 0.243286 0.135149 -0.172396
H13   H     H_    0.179756 0.877241 0.583059 0.096769
H14   H     H_    0.509563 0.960973 0.394571 0.102275
H15   H     H_    0.624627 0.115889 0.402328 0.148779
H16   H     H_    0.683329 0.697112 0.470847 0.055056
H17   H     H_    0.121363 0.302178 0.530778 0.028733
H18   H     H_    0.795911 0.762996 0.198277 0.033515
H19   H     H_    0.638394 0.569529 0.336231 0.087092
H20   H     H_    0.167118 0.421886 0.674940 0.112913
H21   H     H_    0.069983 0.901747 0.292032 0.042763
H22   H     H_    0.633240 0.283069 0.274641 -0.083834
H23   H     H_    0.042783 0.782168 0.844043 0.063009
H24   H     H_    0.937711 0.227622 0.064193 0.095400
H25   H     H_    0.823902 0.113720 0.050129 0.089737
H26   H     H_    0.036534 0.134610 0.079442 0.115293
H27   H     H_    0.243795 0.871647 0.814960 0.096568
H28   H     H_    0.360332 0.895519 0.736183 0.101364
H29   H     H_    0.145059 0.882650 0.718328 0.054868
H30   H     H_    0.233719 0.024237 0.242575 0.103508
H31   H     H_    0.264819 0.018098 0.352187 0.002087
H32   H     H_    0.428098 0.021396 0.288226 0.173918
H33   H     H_    0.798088 0.840467 0.673398 0.099767
H34   H     H_    0.124602 0.302161 0.361751 -0.048981
H35   H     H_    0.663901 0.918308 0.710026 0.187266
H36   H     H_    0.652290 0.869466 0.605799 0.035315
H37   H     H_    0.642651 0.923942 0.961819 0.088471
H38   H     H_    0.534348 0.814168 0.972082 0.099859
H39   H     H_    0.427633 0.903836 0.956495 0.100873
H40   H     H_    0.647684 0.239278 0.981934 0.062804
H41   H     H_    0.461738 0.163768 0.953617 0.087507
H42   H     H_    0.462826 0.283736 0.989802 0.067966
H43   H     H_    0.379577 0.022467 0.683705 0.085367
H44   H     H_    0.559806 0.026859 0.631645 0.169373
H45   H     H_    0.320628 0.292965 0.408178 -0.009031
H46   H     H_    0.425658 0.925418 0.612547 0.019836
H47   H     H_    0.064392 0.350317 0.975558 0.092566
H48   H     H_    0.858627 0.340344 0.931281 0.102027
H49   H     H_    0.921683 0.407887 0.029595 0.122407
H50   H     H_    0.900110 0.974618 0.129645 0.073219
H51   H     H_    0.817404 0.855554 0.096222 0.090380
H52   H     H_    0.985433 0.906846 0.050274 0.118552
H53   H     H_    0.720314 0.419175 0.324264 -0.132797
H54   H     H_    0.770645 0.432489 0.219944 -0.031945
H55   H     H_    0.911181 0.469696 0.312003 0.160211
H56   H     H_    0.316510 0.648808 0.206142 0.082414
H57   H     H_    0.127366 0.157618 0.266679 0.111556
H58   H     H_    0.132245 0.146073 0.373076 -0.158156
H59   H     H_    0.439492 0.690044 0.131057 0.086112
N1    N     N_2   0.464003 0.490919 0.016367 -0.125626
N2    N     N_2   0.322424 0.500480 0.996872 -0.117138
O1    O     O_2   0.162600 0.722340 0.548210 -0.410945
O2    O     O_2   0.753507 0.447759 0.788220 -0.348730
O3    O     O_3   0.796034 0.282360 0.778042 -0.573118
O4    O     O_3   0.890740 0.608910 0.545450 -0.445916
O5    O     O_3   0.431610 0.453580 0.401810 -0.517516
O6    O     O_2   0.628260 0.544210 0.698310 -0.432463
O7    O     O_3   0.467192 0.677320 0.752131 -0.542114
O8    O     O_2   0.496279 0.180602 0.536053 -0.376081
O9    O     O_3   0.422337 0.193363 0.688381 -0.536261
O10   O     O_3   0.394140 0.666560 0.400120 -0.479388
O11   O     O_2   0.323109 0.822385 0.465145 -0.467272
O12   O     O_3   0.310105 0.311241 0.286707 -0.575169
O13   O     O_3   0.977801 0.736325 0.679628 -0.703726
O14   O     O_3   0.366457 0.806450 0.310811 -0.582765
O15   O     O_2   0.182040 0.455730 0.301660 -0.423127
O16   O     O_3   0.971540 0.620730 0.357730 -0.511033
O17   O     O_2   0.032577 0.559843 0.208139 -0.421980
O18   O     O_3   0.897883 0.176798 0.171061 -0.656674
O19   O     O_3   0.248396 0.764345 0.717489 -0.598180
O20   O     O_3   0.348174 0.141060 0.319776 -0.638697
O21   O     O_3   0.556014 0.785618 0.680172 -0.651017
O22   O     O_3   0.522457 0.845365 0.853681 -0.617631
O23   O     O_3   0.012483 0.729507 0.237152 -0.545308
O24   O     O_3   0.533272 0.249879 0.871981 -0.599395
O25   O     O_3   0.356486 0.027792 0.558916 -0.639005
O26   O     O_3   0.997904 0.463100 0.931514 -0.532592
O27   O     O_3   0.039304 0.883467 0.166369 -0.616349
O28   O     O_3   0.878125 0.340961 0.262890 -0.675744
O29   O     O_2   0.647690 0.277600 0.451760 -0.454366
O30   O     O_3   0.919560 0.391080 0.454480 -0.506768
O31   O     O_3   0.416160 0.333430 0.599820 -0.516483
O32   O     O_3   0.809658 0.227352 0.327892 -0.659594
O33   O     O_3   0.378690 0.546410 0.598120 -0.433899
O34   O     O_3   0.838760 0.379260 0.642200 -0.436945
P1    P     P_3+3 0.987090 0.708160 0.571840 1.065325
P2    P     P_3+3 0.349530 0.428340 0.313070 1.073524
P3    P     P_3+3 0.927374 0.623626 0.253912 1.019728
P4    P     P_3+3 0.823210 0.291830 0.428100 1.007377
P5    P     P_3+3 0.868215 0.385989 0.749542 1.148273
P6    P     P_3+3 0.436377 0.782401 0.405138 0.992125
P7    P     P_3+3 0.453806 0.564438 0.702927 1.163446
P8    P     P_3+3 0.372285 0.217799 0.591122 1.084563

loop_
_geom_bond_atom_site_label_1
_geom_bond_atom_site_label_2
_ccdc_geom_bond_type
C53   O24   S    
C18   P6    S    
O16   P3    S    
C8    H16   S    
C22   Cl5   S    
C38   O12   S    
C48   H48   S    
C42   H31   S    
C36   O13   S    
C39   H58   S    
C46   H41   S    
C41   H29   S    
C40   H25   S    
C2    C6    A    
C51   Cl13  S    
C30   N2    S    
Ba1   O16   S    
C5    C6    A    
C37   Cl8   S    
C24   C25   A    
Ba2   O4    S    
C45   O3    S    
C22   C24   A    
C32   C33   A    
C27   C30   A    
C25   Cl4   S    
C42   H30   S    
C36   C37   S    
C50   H54   S    
C34   Cl10  S    
C44   O22   S    
C13   C14   A    
C40   H24   S    
O14   P6    S    
C15   C18   A    
O29   P4    D    
Ba1   Ba2   S    
C2    C11   A    
C6    O25   S    
C51   Cl12  S    
O3    P5    S    
O13   P1    S    
C26   P3    S    
C52   C53   S    
O31   P8    S    
C50   H53   S    
C12   Cl9   S    
C38   H45   S    
C27   Cl3   S    
C8    C18   A    
C14   C15   A    
C44   H39   S    
C49   H50   S    
C21   C22   A    
C10   C13   A    
C23   H2    S    
C20   H19   S    
O33   P7    S    
C7    C8    A    
C36   O19   S    
C48   H47   S    
C41   O19   S    
C45   C51   S    
C52   H8    S    
C46   H40   S    
C40   O18   S    
C16   H5    S    
C20   C26   A    
O23   P3    S    
C12   H1    S    
C35   H12   S    
O34   P5    S    
Ba2   O31   S    
C45   Cl11  S    
C43   H36   S    
C41   H27   S    
O15   P2    D    
C50   O28   S    
C4    C16   S    
C12   O14   S    
C11   C17   A    
O8    P8    D    
C40   H26   S    
C16   H21   S    
C30   C33   A    
C33   O26   S    
C48   O26   S    
C3    C5    A    
C53   H9    S    
C1    H59   S    
Ba2   O29   S    
C39   O20   S    
C9    C19   A    
C14   H14   S    
C42   O20   S    
C4    H18   S    
C28   C35   S    
C43   O21   S    
C23   O7    S    
C3    C7    A    
C43   H35   S    
C31   H20   S    
O12   P2    S    
C21   P2    S    
C49   H51   S    
C52   O9    S    
O6    P7    D    
Ba1   P1    S    
C51   Cl2   S    
C44   H38   S    
C5    H13   S    
C29   C31   A    
C47   H44   S    
O4    P1    S    
O9    P8    S    
C32   P5    S    
O1    P1    D    
C24   N1    S    
O17   P3    D    
C47   H43   S    
O32   P4    S    
C38   C39   S    
C47   H46   S    
C9    P4    S    
C49   H52   S    
C52   H7    S    
Ba1   O15   S    
C28   O32   S    
Ba2   O34   S    
Ba1   O4    S    
Ba2   P4    S    
C37   H23   S    
N1    N2    D    
C28   O28   S    
C46   O24   S    
C19   H17   S    
O10   P6    S    
C48   H49   S    
C39   H57   S    
C47   O25   S    
Ba1   O30   S    
C34   O22   S    
C41   H28   S    
C28   H22   S    
Ba1   O1    S    
Ba2   O33   S    
C19   C54   A    
C42   H32   S    
C1    H56   S    
C35   Cl1   S    
C13   H15   S    
C3    C17   A    
C1    C12   S    
C37   Cl7   S    
Ba2   O5    S    
C23   O21   S    
C7    P1    S    
C45   H6    S    
C27   C29   A    
C16   O27   S    
C38   H34   S    
C53   H11   S    
C50   H55   S    
C4    H10   S    
C29   P7    S    
Ba1   P2    S    
C54   P8    S    
O11   P6    D    
C15   C17   A    
O5    P2    S    
C31   C32   A    
C49   O27   S    
O30   P4    S    
C35   O18   S    
C1    H4    S    
Ba2   O6    S    
O7    P7    S    
C4    O23   S    
C43   H33   S    
C44   H37   S    
C23   C34   S    
C46   H42   S    
C10   C11   A    
Ba1   O33   S    
Ba2   O30   S    
O2    P5    D    
C25   C26   A    
C20   C21   A    
Ba1   O10   S    
Ba1   O5    S    
C2    C54   A    
C34   H3    S    
C9    C10   A    
C36   Cl6   S    
