data_mof_unit_55023.cif
_audit_creation_date              2012-12-10T19:24:57-0500
_audit_creation_method            fapswitch 2.2
_symmetry_space_group_name_H-M    P1
_symmetry_Int_Tables_number       1
_space_group_crystal_system       triclinic
_cell_length_a                    15.703074
_cell_length_b                    10.467455
_cell_length_c                    9.768625
_cell_angle_alpha                 89.563302
_cell_angle_beta                  89.938257
_cell_angle_gamma                 89.993298
_cell_volume                      1605.63323319

loop_
_atom_site_label
_atom_site_type_symbol
_atom_type_description
_atom_site_fract_x
_atom_site_fract_y
_atom_site_fract_z
_atom_type_partial_charge
C1    C     C_R   0.500032 0.257568 0.500565 0.856456
C2    C     C_R   0.499969 0.742432 0.499435 0.856452
C3    C     C_3   0.569992 0.956892 0.564699 -0.180807
C4    C     C_3   0.430011 0.043108 0.435301 -0.180806
C5    C     C_3   0.499982 0.877527 0.498265 0.036869
C6    C     C_3   0.500021 0.122473 0.501735 0.036873
C7    C     C_3   0.429746 0.956962 0.564255 -0.178279
C8    C     C_3   0.570257 0.043038 0.435745 -0.178280
C9    C     C_3   0.449212 0.413511 0.049463 -0.070360
C10   C     C_3   0.550788 0.586489 0.950537 -0.070359
C11   C     C_3   0.524494 0.390745 0.952202 -0.076414
C12   C     C_3   0.475506 0.609255 0.047798 -0.076414
C13   C     C_3   0.424649 0.522799 0.951469 -0.074796
C14   C     C_3   0.575351 0.477201 0.048531 -0.074796
C15   C     C_R   0.338099 0.500009 0.500022 0.900567
C16   C     C_R   0.661901 0.499991 0.499978 0.900565
C17   C     C_3   0.972775 0.380063 0.513049 0.071488
C18   C     C_3   0.027224 0.619916 0.486954 0.071502
C19   C     C_3   0.028714 0.429828 0.394242 -0.222177
C20   C     C_3   0.971286 0.570149 0.605759 -0.222143
C21   C     C_1   0.249178 0.500127 0.500069 -0.195007
C22   C     C_1   0.750822 0.499868 0.499931 -0.195004
C23   C     C_3   0.028477 0.449657 0.619271 -0.232878
C24   C     C_3   0.971522 0.550321 0.380731 -0.232863
C25   C     C_3   0.082956 0.500716 0.500208 0.163988
C26   C     C_3   0.917044 0.499264 0.499794 0.163999
C27   C     C_1   0.173858 0.500301 0.500046 -0.081095
C28   C     C_1   0.826142 0.499688 0.499955 -0.081087
C29   C     C_3   0.499757 0.039065 0.630871 -0.143023
C30   C     C_3   0.500246 0.960935 0.369129 -0.143029
H1    H     H_    0.054197 0.371869 0.308729 0.132674
H2    H     H_    0.945802 0.628109 0.691272 0.132677
H3    H     H_    0.945470 0.589360 0.283489 0.128887
H4    H     H_    0.054528 0.410616 0.716512 0.128890
H5    H     H_    0.626915 0.916817 0.616954 0.128637
H6    H     H_    0.373088 0.083183 0.383046 0.128648
H7    H     H_    0.499570 0.075061 0.737505 0.133807
H8    H     H_    0.500433 0.924938 0.262495 0.133808
H9    H     H_    0.372591 0.916948 0.616101 0.130367
H10   H     H_    0.627411 0.083052 0.383899 0.130352
H11   H     H_    0.545150 0.298679 0.907260 0.115968
H12   H     H_    0.454850 0.701321 0.092740 0.115967
H13   H     H_    0.406484 0.340634 0.095977 0.115894
H14   H     H_    0.593516 0.659366 0.904023 0.115893
H15   H     H_    0.361132 0.542112 0.906015 0.122447
H16   H     H_    0.638868 0.457888 0.093985 0.122446
N1    N     N_3   0.499940 0.500030 0.863290 -0.071823
N2    N     N_3   0.500060 0.499970 0.136710 -0.071823
O1    O     O_R   0.500000 0.313960 0.616610 -0.628623
O2    O     O_R   0.500000 0.686040 0.383390 -0.628623
O3    O     O_R   0.500040 0.313950 0.383350 -0.622626
O4    O     O_R   0.499960 0.686050 0.616650 -0.622625
O5    O     O_R   0.376760 0.499990 0.616610 -0.619718
O6    O     O_R   0.623240 0.500010 0.383390 -0.619720
O7    O     O_R   0.376790 0.499980 0.383350 -0.612477
O8    O     O_R   0.623210 0.500020 0.616650 -0.612477
Zn1   Zn    Zn3+2 0.499980 0.500010 0.655740 0.934966
Zn2   Zn    Zn3+2 0.500020 0.499990 0.344260 0.934964
C31   C     C_R   0.939154 0.245477 0.521875 0.115473
C32   C     C_R   0.957877 0.166457 0.634792 -0.153444
C33   C     C_R   0.926118 0.041666 0.641100 -0.109072
C34   C     C_R   0.875453 0.995005 0.535138 -0.095281
C35   C     C_R   0.856620 0.072985 0.422453 -0.151428
C36   C     C_R   0.888459 0.197657 0.415568 -0.164971
H17   H     H_    0.997102 0.200552 0.717766 0.111713
H18   H     H_    0.941093 0.980912 0.727938 0.118518
H19   H     H_    0.851193 0.898270 0.540021 0.118567
H20   H     H_    0.817505 0.036732 0.340278 0.120942
H21   H     H_    0.873530 0.257051 0.327548 0.126016
C37   C     C_R   0.060820 0.754516 0.478135 0.115495
C38   C     C_R   0.042080 0.833529 0.365219 -0.153449
C39   C     C_R   0.073778 0.958356 0.358944 -0.109081
C40   C     C_R   0.124401 0.005062 0.464937 -0.095265
C41   C     C_R   0.143256 0.927089 0.577619 -0.151453
C42   C     C_R   0.111480 0.802376 0.584468 -0.164968
H22   H     H_    0.002884 0.799400 0.282227 0.111719
H23   H     H_    0.058781 0.019110 0.272114 0.118524
H24   H     H_    0.148605 0.101828 0.460089 0.118588
H25   H     H_    0.182330 0.963384 0.659823 0.120950
H26   H     H_    0.126421 0.742988 0.672490 0.126008

loop_
_geom_bond_atom_site_label_1
_geom_bond_atom_site_label_2
_ccdc_geom_bond_type
C18   C37   S    
C4    H6    S    
C7    C29   S    
C40   C41   A    
C11   N1    S    
C12   N2    S    
C19   H1    S    
C14   H16   S    
C31   C36   A    
C34   C35   A    
C34   H19   S    
C18   C24   S    
C17   C26   S    
C15   O5    A    
C24   C26   S    
C20   H2    S    
C38   H22   S    
C11   C14   S    
O1    Zn1   S    
O8    Zn1   S    
C30   H8    S    
C3    C29   S    
C9    C13   S    
C12   H12   S    
C2    O2    A    
C33   H18   S    
C40   H24   S    
C37   C38   A    
C42   H26   S    
C21   C27   T    
C31   C32   A    
C22   C28   T    
C18   C25   S    
C4    C7    S    
C10   C12   S    
C9    H13   S    
C41   C42   A    
C10   H14   S    
C1    C6    S    
O2    Zn2   S    
C4    C6    S    
C3    C8    S    
C10   C14   S    
C5    C7    S    
O5    Zn1   S    
C14   N2    S    
C32   C33   A    
C15   O7    A    
C16   O8    A    
C39   H23   S    
N1    Zn1   S    
C1    O3    A    
C20   C23   S    
C3    H5    S    
C23   H4    S    
O3    Zn2   S    
C17   C23   S    
C36   H21   S    
C9    C11   S    
C2    O4    A    
C17   C31   S    
C32   H17   S    
C41   H25   S    
C2    C5    S    
C37   C42   A    
C13   N1    S    
C5    C30   S    
O6    Zn2   S    
C35   H20   S    
C16   C22   S    
C39   C40   A    
C3    C5    S    
C6    C8    S    
N2    Zn2   S    
C25   C27   S    
C26   C28   S    
C24   H3    S    
C8    C30   S    
C19   C24   S    
C38   C39   A    
C13   H15   S    
C20   C26   S    
C17   C19   S    
C11   H11   S    
C18   C20   S    
C23   C25   S    
C33   C34   A    
C19   C25   S    
C16   O6    A    
O4    Zn1   S    
C35   C36   A    
C15   C21   S    
C6    C29   S    
C12   C13   S    
C9    N2    S    
O7    Zn2   S    
C29   H7    S    
C10   N1    S    
C7    H9    S    
C8    H10   S    
C1    O1    A    
C4    C30   S    
