data_mof_unit_37567.cif
_audit_creation_date              2012-12-10T16:50:15-0500
_audit_creation_method            fapswitch 2.2
_symmetry_space_group_name_H-M    P1
_symmetry_Int_Tables_number       1
_space_group_crystal_system       triclinic
_cell_length_a                    23.463606
_cell_length_b                    8.677026
_cell_length_c                    7.507705
_cell_angle_alpha                 103.351551
_cell_angle_beta                  94.843931
_cell_angle_gamma                 93.392781
_cell_volume                      1477.0124288

loop_
_atom_site_label
_atom_site_type_symbol
_atom_type_description
_atom_site_fract_x
_atom_site_fract_y
_atom_site_fract_z
_atom_type_partial_charge
C1    C     C_R   0.498192 0.199694 0.452924 0.867951
C2    C     C_R   0.501808 0.800306 0.547076 0.867951
C3    C     C_R   0.245370 0.560458 0.670429 0.406480
C4    C     C_R   0.754630 0.439543 0.329571 0.406480
C5    C     C_R   0.304726 0.559124 0.668481 -0.209960
C6    C     C_R   0.695274 0.440876 0.331519 -0.209960
C7    C     C_R   0.328555 0.498087 0.503854 -0.166190
C8    C     C_R   0.671445 0.501914 0.496145 -0.166191
C9    C     C_R   0.292249 0.436172 0.341330 -0.204434
C10   C     C_R   0.707751 0.563829 0.658670 -0.204434
C11   C     C_R   0.232863 0.434579 0.343078 0.409734
C12   C     C_R   0.767137 0.565422 0.656922 0.409733
C13   C     C_R   0.209248 0.497771 0.507567 0.166361
C14   C     C_R   0.790752 0.502230 0.492433 0.166361
C15   C     C_2   0.497248 0.031287 0.427018 -0.309479
C16   C     C_2   0.502752 0.968713 0.572982 -0.309479
C17   C     C_R   0.391080 0.499175 0.501207 0.843953
C18   C     C_R   0.608920 0.500825 0.498792 0.843953
C19   C     C_R   0.882259 0.626268 0.453572 0.650992
C20   C     C_R   0.117741 0.373732 0.546428 0.650992
C21   C     C_R   0.877912 0.374142 0.531845 0.647001
C22   C     C_R   0.122088 0.625858 0.468155 0.647002
C23   C     C_R   0.937654 0.371179 0.535911 -0.027889
C24   C     C_R   0.062346 0.628822 0.464089 -0.027889
C25   C     C_R   0.969905 0.499975 0.497966 -0.007378
C26   C     C_R   0.030095 0.500026 0.502034 -0.007379
C27   C     C_R   0.942110 0.628765 0.456088 -0.026850
C28   C     C_R   0.057890 0.371236 0.543912 -0.026850
C29   C     C_R   0.965784 0.243394 0.577452 -0.134398
C30   C     C_R   0.034216 0.756607 0.422548 -0.134398
C31   C     C_R   0.025319 0.243430 0.581438 -0.142666
C32   C     C_R   0.974681 0.756571 0.418561 -0.142666
Cu1   Cu    Cu3+1 0.506340 0.517380 0.684380 1.107390
Cu2   Cu    Cu3+1 0.493660 0.482620 0.315620 1.107390
H1    H     H_    0.941927 0.143124 0.607191 0.199680
H2    H     H_    0.058073 0.856876 0.392809 0.199680
H3    H     H_    0.045687 0.143145 0.614010 0.191858
H4    H     H_    0.954313 0.856856 0.385990 0.191858
H5    H     H_    0.332148 0.608075 0.794919 0.209094
H6    H     H_    0.667852 0.391925 0.205081 0.209094
H7    H     H_    0.309903 0.387379 0.213367 0.222340
H8    H     H_    0.690097 0.612621 0.786633 0.222340
H9    H     H_    0.491984 0.958570 0.286888 0.207491
H10   H     H_    0.508016 0.041430 0.713112 0.207491
N1    N     N_R   0.851698 0.500471 0.491547 -0.447193
N2    N     N_R   0.148302 0.499530 0.508453 -0.447193
N3    N     N_2   0.484110 0.456420 0.038520 0.108770
N4    N     N_2   0.515890 0.543580 0.961480 0.108770
O1    O     O_R   0.504120 0.286130 0.619770 -0.551858
O2    O     O_R   0.495880 0.713870 0.380230 -0.551858
O3    O     O_R   0.493410 0.256770 0.308360 -0.566365
O4    O     O_R   0.506590 0.743230 0.691640 -0.566365
O5    O     O_R   0.423230 0.514630 0.655730 -0.552706
O6    O     O_R   0.576770 0.485370 0.344270 -0.552706
O7    O     O_R   0.412530 0.485280 0.344320 -0.566843
O8    O     O_R   0.587470 0.514720 0.655680 -0.566843
O9    O     O_2   0.854740 0.748439 0.414244 -0.457184
O10   O     O_2   0.145260 0.251561 0.585756 -0.457184
O11   O     O_2   0.846179 0.252300 0.568236 -0.456409
O12   O     O_2   0.153821 0.747701 0.431764 -0.456409
Cl1   Cl    Cl    0.217006 0.643235 0.877591 -0.470732
Cl2   Cl    Cl    0.782994 0.356765 0.122409 -0.470732
Cl3   Cl    Cl    0.188566 0.351962 0.138027 -0.466033
Cl4   Cl    Cl    0.811434 0.648039 0.861972 -0.466033
Cl5   Cl    Cl    0.431350 0.320312 0.907539 -0.474526
Cl6   Cl    Cl    0.568650 0.679688 0.092461 -0.474526

loop_
_geom_bond_atom_site_label_1
_geom_bond_atom_site_label_2
_ccdc_geom_bond_type
C23   C29   A    
C21   O11   S    
C1    C15   S    
C32   H4    S    
C10   H8    S    
Cu1   O5    S    
C2    C16   S    
C6    H6    S    
C29   H1    S    
C9    H7    S    
N3    N4    D    
C3    C13   A    
C30   H2    S    
C9    C11   A    
C22   O12   S    
C7    C9    A    
Cu1   O8    S    
C5    H5    S    
Cu1   Cu2   S    
C27   C32   A    
C17   O5    A    
C15   H9    S    
Cu2   O7    S    
C29   C31   A    
C19   O9    S    
Cu1   O4    S    
C30   C32   A    
C18   O8    A    
C1    O3    A    
Cu2   O3    S    
C2    O4    A    
C21   N1    A    
C17   O7    A    
C10   C12   A    
C4    C6    A    
C26   C28   A    
C22   N2    A    
C24   C26   A    
Cu2   O6    S    
C14   N1    S    
C11   Cl3   S    
C3    Cl1   S    
C21   C23   A    
C4    C14   A    
C13   N2    S    
C12   Cl4   S    
C22   C24   A    
Cu2   O2    S    
C24   C30   A    
C25   C27   A    
C18   O6    A    
C20   O10   S    
C15   C16   D    
C20   C28   A    
C4    Cl2   S    
C11   C13   A    
C23   C25   A    
C19   C27   A    
C8    C10   A    
Cu1   O1    S    
C5    C7    A    
Cu1   N4    S    
C16   H10   S    
C6    C8    A    
Cu2   N3    S    
C2    O2    A    
N4    Cl6   S    
C25   C26   A    
C1    O1    A    
N3    Cl5   S    
C28   C31   A    
C8    C18   S    
C19   N1    A    
C31   H3    S    
C12   C14   A    
C3    C5    A    
C20   N2    A    
C7    C17   S    
