data_mof_unit_18096.cif
_audit_creation_date              2012-12-10T18:57:08-0500
_audit_creation_method            fapswitch 2.2
_symmetry_space_group_name_H-M    P1
_symmetry_Int_Tables_number       1
_space_group_crystal_system       triclinic
_cell_length_a                    8.743571
_cell_length_b                    10.88167
_cell_length_c                    9.560977
_cell_angle_alpha                 90.719456
_cell_angle_beta                  98.243419
_cell_angle_gamma                 90.509662
_cell_volume                      900.153400087

loop_
_atom_site_label
_atom_site_type_symbol
_atom_type_description
_atom_site_fract_x
_atom_site_fract_y
_atom_site_fract_z
_atom_type_partial_charge
C1    C     C_R   0.498098 0.262950 0.498854 0.801830
C2    C     C_R   0.528896 0.934734 0.377989 -0.214599
C3    C     C_R   0.501526 0.870645 0.499816 -0.104364
C4    C     C_R   0.472738 0.940932 0.615404 0.075245
C5    C     C_3   0.427484 0.936460 0.760134 -0.123458
C6    C     C_3   0.419898 0.078039 0.754864 -0.487722
C7    C     C_R   0.624255 0.545942 0.090543 0.221778
C8    C     C_R   0.383717 0.445491 0.058291 -0.082438
C9    C     C_R   0.383399 0.445911 0.909595 -0.080769
C10   C     C_R   0.625971 0.541885 0.943185 0.229596
C11   C     C_3   0.695620 0.666019 0.941399 -0.535474
C12   C     C_R   0.203834 0.498247 0.463689 0.880012
C13   C     C_3   0.682290 0.676850 0.097925 -0.167358
C14   C     C_R   0.500150 0.737512 0.500541 0.785204
C15   C     C_R   0.796209 0.499289 0.536410 0.876431
C16   C     C_2   0.037873 0.493384 0.444300 -0.379576
C17   C     C_2   0.962327 0.499502 0.556328 -0.376871
C18   C     C_R   0.468116 0.064657 0.612446 0.099878
C19   C     C_R   0.497322 0.130723 0.496263 -0.087152
C20   C     C_R   0.528038 0.063704 0.376433 -0.227071
Cu1   Cu    Cu3+1 0.499990 0.499980 0.640670 0.930446
Cu2   Cu    Cu3+1 0.500010 0.500020 0.359330 0.926029
H1    H     H_    0.977556 0.483687 0.337340 0.163691
H2    H     H_    0.815080 0.660048 0.916292 0.198288
H3    H     H_    0.620740 0.728781 0.874139 0.202213
H4    H     H_    0.591356 0.741853 0.119807 0.160448
H5    H     H_    0.551257 0.110139 0.282041 0.162167
H6    H     H_    0.510095 0.124853 0.831479 0.188886
H7    H     H_    0.288388 0.402791 0.100624 0.138997
N1    N     N_R   0.500980 0.500930 0.148050 -0.196300
N2    N     N_R   0.500990 0.500890 0.852140 -0.180415
O1    O     O_R   0.500000 0.319640 0.618810 -0.580469
O2    O     O_R   0.500020 0.319680 0.381230 -0.588004
O3    O     O_R   0.274830 0.499980 0.591380 -0.586449
O4    O     O_R   0.274850 0.500020 0.353800 -0.594326
O5    O     O_R   0.499980 0.680320 0.618770 -0.589460
O6    O     O_R   0.500000 0.680360 0.381190 -0.589334
O7    O     O_R   0.725150 0.499980 0.646200 -0.583105
O8    O     O_R   0.725170 0.500020 0.408620 -0.589177
H8    H     H_    0.287612 0.403724 0.841145 0.135988
C21   C     C_3   0.837342 0.698170 0.193544 -0.343591
C22   C     C_3   0.895924 0.830856 0.185631 -0.374254
C23   C     C_3   0.048735 0.851133 0.283253 -0.836809
H9    H     H_    0.138365 0.787801 0.254199 0.259729
H10   H     H_    0.089753 0.947150 0.273963 0.244501
H11   H     H_    0.033029 0.835229 0.394912 0.247013
H12   H     H_    0.912395 0.852460 0.075643 0.232578
H13   H     H_    0.809354 0.895551 0.217742 0.215374
H14   H     H_    0.820387 0.682013 0.304312 0.230952
H15   H     H_    0.925166 0.633159 0.164242 0.190946
H16   H     H_    0.022651 0.505835 0.663696 0.163827
H17   H     H_    0.550554 0.886094 0.283972 0.149426
C24   C     C_3   0.272161 0.869129 0.761498 -0.336928
C25   C     C_3   0.257222 0.823361 0.909696 -0.341303
C26   C     C_3   0.120466 0.735320 0.904536 -0.873874
H18   H     H_    0.012731 0.782640 0.860224 0.245421
H19   H     H_    0.136971 0.653761 0.837720 0.257243
H20   H     H_    0.111237 0.703050 0.012465 0.251287
H21   H     H_    0.362845 0.773277 0.953913 0.216884
H22   H     H_    0.242082 0.902683 0.980658 0.220969
H23   H     H_    0.173035 0.929077 0.723043 0.189880
H24   H     H_    0.265179 0.788513 0.688313 0.220568
H25   H     H_    0.523566 0.906161 0.839832 0.149256
H26   H     H_    0.302222 0.117134 0.749620 0.187669

loop_
_geom_bond_atom_site_label_1
_geom_bond_atom_site_label_2
_ccdc_geom_bond_type
C9    H8    S    
C7    C10   A    
C6    H26   S    
C26   H18   S    
C15   O7    A    
C20   H5    S    
C23   H10   S    
C21   C22   S    
C21   H15   S    
C19   C20   A    
C22   H12   S    
C4    C18   A    
C17   H16   S    
C13   C21   S    
C2    C3    A    
C8    C9    A    
C8    N1    A    
Cu2   O8    S    
Cu1   O5    S    
C22   H13   S    
C24   C25   S    
C14   O6    A    
Cu2   O4    S    
C11   C13   S    
C15   O8    A    
Cu1   N2    S    
C3    C14   S    
C2    H17   S    
C8    H7    S    
C5    C24   S    
Cu1   O1    S    
C16   H1    S    
C25   H21   S    
C26   H19   S    
C23   H9    S    
C14   O5    A    
C5    C6    S    
C6    C18   S    
C23   H11   S    
C13   H4    S    
C1    C19   S    
C10   C11   S    
C9    N2    A    
C1    O2    A    
C3    C4    A    
C11   H2    S    
C7    C13   S    
C5    H25   S    
C24   H23   S    
C15   C17   S    
C18   C19   A    
C24   H24   S    
C26   H20   S    
C21   H14   S    
C7    N1    A    
Cu2   O2    S    
C11   H3    S    
C25   C26   S    
C4    C5    S    
C25   H22   S    
Cu1   O3    S    
Cu2   N1    S    
C12   O3    A    
Cu1   Cu2   S    
Cu2   O6    S    
C2    C20   A    
C10   N2    A    
C1    O1    A    
C6    H6    S    
Cu1   O7    S    
C12   C16   S    
C22   C23   S    
C16   C17   D    
C12   O4    A    
