data_mof_unit_12696.cif
_audit_creation_date              2012-12-10T17:47:42-0500
_audit_creation_method            fapswitch 2.2
_symmetry_space_group_name_H-M    P1
_symmetry_Int_Tables_number       1
_space_group_crystal_system       triclinic
_cell_length_a                    10.708639
_cell_length_b                    10.697726
_cell_length_c                    9.999997
_cell_angle_alpha                 89.31615
_cell_angle_beta                  90.435127
_cell_angle_gamma                 94.677114
_cell_volume                      1141.65925294

loop_
_atom_site_label
_atom_site_type_symbol
_atom_type_description
_atom_site_fract_x
_atom_site_fract_y
_atom_site_fract_z
_atom_type_partial_charge
C1    C     C_R   0.513290 0.261397 0.501732 0.916285
C2    C     C_3   0.878099 0.495941 0.499408 -0.091154
C3    C     C_3   0.938636 0.625921 0.544973 0.043214
C4    C     C_3   0.925466 0.470037 0.355303 0.275468
C5    C     C_R   0.530030 0.110149 0.756913 -0.090191
C6    C     C_R   0.483400 0.047463 0.871127 -0.096632
C7    C     C_R   0.415440 0.932035 0.859984 -0.108995
C8    C     C_R   0.403695 0.874814 0.735853 -0.041583
C9    C     C_R   0.458366 0.934014 0.620329 0.028287
C10   C     C_R   0.505607 0.059317 0.628061 0.073797
C11   C     C_R   0.528053 0.127742 0.506865 -0.236198
C12   C     C_R   0.257715 0.495961 0.499620 0.970776
C13   C     C_R   0.534497 0.065212 0.384875 0.073644
C14   C     C_R   0.492811 0.939272 0.378269 0.412351
C15   C     C_R   0.469221 0.871524 0.497969 -0.209190
C16   C     C_R   0.331764 0.318688 0.129157 0.450801
C17   C     C_R   0.255467 0.234735 0.050572 -0.445202
C18   C     C_R   0.257244 0.241995 0.912799 0.406421
C19   C     C_R   0.337660 0.332113 0.852650 -0.156783
C20   C     C_R   0.419030 0.416004 0.925634 -0.054190
C21   C     C_R   0.417757 0.413574 0.069699 0.068101
C22   C     C_R   0.578566 0.581032 0.071224 0.183990
C23   C     C_R   0.485978 0.738260 0.499153 0.968291
C24   C     C_R   0.578316 0.581107 0.928372 0.155173
C25   C     C_R   0.741649 0.498296 0.500169 0.990076
C26   C     C_3   0.063913 0.401063 0.607688 -0.318741
C27   C     C_3   0.919656 0.393388 0.599570 0.213916
C28   C     C_3   0.082163 0.629580 0.525887 0.090788
C29   C     C_3   0.065772 0.450509 0.360483 0.216828
C30   C     C_3   0.120721 0.494289 0.499180 -0.160949
H1    H     H_    0.094848 0.430994 0.709524 0.132454
H2    H     H_    0.912822 0.554474 0.291555 0.108170
H3    H     H_    0.108194 0.688142 0.435940 0.183363
H4    H     H_    0.587584 0.196642 0.771904 0.159256
H5    H     H_    0.497388 0.090082 0.967794 0.152369
H6    H     H_    0.375173 0.885079 0.947921 0.145091
H7    H     H_    0.351263 0.784413 0.731551 0.198607
H8    H     H_    0.098375 0.306557 0.594552 0.273951
H9    H     H_    0.191393 0.164475 0.098157 0.166592
H10   H     H_    0.334363 0.332344 0.746919 0.237105
H11   H     H_    0.884535 0.410921 0.702028 0.091078
H12   H     H_    0.916840 0.637093 0.652713 0.168861
H13   H     H_    0.112224 0.507895 0.278057 0.065683
N1    N     N_R   0.498810 0.498800 0.142780 -0.130072
N2    N     N_R   0.498760 0.498720 0.857170 -0.137658
O1    O     O_R   0.500000 0.316780 0.614690 -0.678992
O2    O     O_R   0.499990 0.316750 0.385360 -0.529923
O3    O     O_R   0.314800 0.499990 0.614670 -0.648455
O4    O     O_R   0.314790 0.499970 0.385330 -0.572920
O5    O     O_R   0.500010 0.683250 0.614640 -0.613711
O6    O     O_R   0.500000 0.683220 0.385310 -0.535839
O7    O     O_R   0.685210 0.500030 0.614670 -0.649971
O8    O     O_R   0.685200 0.500010 0.385330 -0.559141
Zn1   Zn    Zn3+2 0.500010 0.500020 0.653130 0.956302
Zn2   Zn    Zn3+2 0.499990 0.499980 0.346870 1.072772
O9    O     O_3   0.889675 0.723820 0.471335 -0.736892
H14   H     H_    0.915500 0.802692 0.519079 0.387686
I1    I     I_    0.637776 0.147265 0.218308 -0.274331
O10   O     O_3   0.476837 0.879877 0.256632 -0.723575
H15   H     H_    0.462069 0.942782 0.186083 0.334342
I2    I     I_    0.707355 0.709953 0.173540 -0.172073
O11   O     O_3   0.315657 0.308290 0.263261 -0.685353
H16   H     H_    0.282205 0.221778 0.288016 0.342456
O12   O     O_3   0.181930 0.161918 0.833546 -0.749369
H17   H     H_    0.130843 0.102248 0.891658 0.354031
I3    I     I_    0.704600 0.712404 0.824727 -0.297121
O13   O     O_3   0.873943 0.272555 0.559175 -0.631883
H18   H     H_    0.786340 0.258776 0.591130 0.322983
O14   O     O_3   0.146350 0.687567 0.634965 -0.770819
H19   H     H_    0.121432 0.640286 0.717664 0.341985
O15   O     O_3   0.083959 0.323191 0.341899 -0.658254
H20   H     H_    0.072227 0.306463 0.244989 0.353454
O16   O     O_3   0.857209 0.365446 0.298671 -0.648599
H21   H     H_    0.863136 0.375937 0.200032 0.327962

loop_
_geom_bond_atom_site_label_1
_geom_bond_atom_site_label_2
_ccdc_geom_bond_type
C28   H3    S    
C4    C29   S    
C2    C4    S    
C3    H12   S    
C26   C30   S    
O11   H16   S    
C16   C21   A    
C8    H7    S    
C4    H2    S    
C21   N1    A    
C9    C10   A    
C27   H11   S    
C23   O6    A    
C28   O14   S    
C1    C11   S    
C24   I3    S    
C12   O3    A    
C2    C27   S    
C10   C11   A    
C5    H4    S    
O1    Zn1   S    
C3    O9    S    
C15   C23   S    
C12   O4    A    
C9    C15   A    
C25   O7    A    
O15   H20   S    
O5    Zn1   S    
C13   C14   A    
C29   H13   S    
C22   I2    S    
O3    Zn1   S    
C14   O10   S    
C11   C13   A    
N1    Zn2   S    
C18   O12   S    
C4    O16   S    
C29   C30   S    
C22   N1    A    
C16   O11   S    
C24   N2    A    
O12   H17   S    
C28   C30   S    
C3    C28   S    
C25   O8    A    
N2    Zn1   S    
C17   C18   A    
C2    C25   S    
O6    Zn2   S    
O14   H19   S    
O8    Zn2   S    
O16   H21   S    
C26   C27   S    
C5    C6    A    
C22   C24   A    
C1    O1    A    
C27   O13   S    
C19   H10   S    
C5    C10   A    
O13   H18   S    
O10   H15   S    
C6    H5    S    
C8    C9    A    
O2    Zn2   S    
C18   C19   A    
C7    H6    S    
C20   N2    A    
O9    H14   S    
C7    C8    A    
C17   H9    S    
C14   C15   A    
C1    O2    A    
C23   O5    A    
C2    C3    S    
C13   I1    S    
C12   C30   S    
C20   C21   A    
O4    Zn2   S    
C26   H1    S    
C26   H8    S    
C6    C7    A    
C19   C20   A    
O7    Zn1   S    
C16   C17   A    
C29   O15   S    
