data_mof_unit_61397.cif
_audit_creation_date              2012-12-10T19:59:23-0500
_audit_creation_method            fapswitch 2.2
_symmetry_space_group_name_H-M    P1
_symmetry_Int_Tables_number       1
_space_group_crystal_system       triclinic
_cell_length_a                    14.995975
_cell_length_b                    14.277631
_cell_length_c                    10.714784
_cell_angle_alpha                 90.696673
_cell_angle_beta                  92.091921
_cell_angle_gamma                 90.127924
_cell_volume                      2292.40362654

loop_
_atom_site_label
_atom_site_type_symbol
_atom_type_description
_atom_site_fract_x
_atom_site_fract_y
_atom_site_fract_z
_atom_type_partial_charge
C1    C     C_R   0.327935 0.499914 0.499716 0.870048
C2    C     C_R   0.672035 0.500077 0.500033 0.876016
C3    C     C_R   0.184954 0.420482 0.455803 -0.161033
C4    C     C_R   0.814989 0.422206 0.543534 -0.168886
C5    C     C_R   0.092861 0.420815 0.454137 -0.151264
C6    C     C_R   0.907008 0.422315 0.543009 -0.150517
C7    C     C_R   0.047996 0.500103 0.496881 0.099534
C8    C     C_R   0.951763 0.499961 0.496981 0.098659
C9    C     C_R   0.466970 0.104093 0.395867 0.202101
C10   C     C_R   0.530253 0.106218 0.606029 0.200871
C11   C     C_R   0.458966 0.202300 0.403592 0.461227
C12   C     C_R   0.538970 0.204355 0.598090 0.456181
C13   C     C_R   0.498637 0.053022 0.500896 -0.206616
C14   C     C_R   0.571119 0.896231 0.551821 -0.206852
C15   C     C_R   0.427257 0.894149 0.448751 -0.215035
C16   C     C_R   0.568238 0.798007 0.558135 0.390041
C17   C     C_R   0.431712 0.795876 0.440980 0.344308
C18   C     C_R   0.498808 0.946773 0.500801 0.134940
C19   C     C_R   0.502471 0.499169 0.259591 0.964023
C20   C     C_R   0.491975 0.500190 0.738875 0.924784
C21   C     C_R   0.478213 0.581515 0.065074 -0.064475
C22   C     C_R   0.471141 0.582864 0.937182 -0.097394
C23   C     C_R   0.494365 0.497162 0.126098 -0.231580
C24   C     C_R   0.472574 0.499481 0.868711 -0.247357
C25   C     C_R   0.488595 0.411788 0.057703 0.238115
C26   C     C_R   0.463712 0.414038 0.931727 0.270869
C27   C     C_3   0.524049 0.671666 0.928712 0.260106
C28   C     C_3   0.531049 0.671427 0.071085 0.245779
C29   C     C_R   0.095146 0.579292 0.540530 -0.154451
C30   C     C_R   0.904551 0.577688 0.451944 -0.155752
C31   C     C_R   0.187188 0.579341 0.541052 -0.136814
C32   C     C_R   0.812547 0.577999 0.453619 -0.129572
C33   C     C_R   0.232077 0.499837 0.499014 -0.021923
C34   C     C_R   0.767820 0.500174 0.499218 -0.028065
H1    H     H_    0.629567 0.932730 0.589509 0.203353
H2    H     H_    0.368574 0.928948 0.410573 0.208158
H3    H     H_    0.588473 0.662264 0.882310 0.184178
H4    H     H_    0.495268 0.729554 0.117571 0.194587
H5    H     H_    0.060814 0.640392 0.575412 0.152458
H6    H     H_    0.938812 0.637505 0.414702 0.154350
H7    H     H_    0.223137 0.640812 0.575696 0.180237
H8    H     H_    0.776471 0.638247 0.417894 0.190163
H9    H     H_    0.219129 0.358944 0.421947 0.169571
H10   H     H_    0.780904 0.361974 0.579982 0.165373
H11   H     H_    0.056654 0.359742 0.418729 0.150792
H12   H     H_    0.943255 0.362494 0.579670 0.150589
N1    N     N_R   0.500000 0.252470 0.500000 -0.245021
N2    N     N_R   0.500000 0.747550 0.500000 -0.140299
O1    O     O_R   0.369060 0.579480 0.500010 -0.588144
O2    O     O_R   0.630940 0.579480 0.499990 -0.583673
O3    O     O_R   0.369050 0.420520 0.500010 -0.653490
O4    O     O_R   0.630950 0.420520 0.499990 -0.654819
O5    O     O_R   0.499990 0.579490 0.316780 -0.572238
O6    O     O_R   0.500010 0.579490 0.683220 -0.582877
O7    O     O_R   0.499980 0.420540 0.316780 -0.601093
O8    O     O_R   0.500020 0.420540 0.683220 -0.584985
Zn1   Zn    Zn3+2 0.500000 0.606140 0.500000 1.051701
Zn2   Zn    Zn3+2 0.500000 0.393860 0.500000 0.996966
Br1   Br    Br    0.539052 0.295692 0.117797 -0.289370
Br2   Br    Br    0.416318 0.300889 0.852990 -0.308371
Br3   Br    Br    0.661852 0.740880 0.655750 -0.453716
Br4   Br    Br    0.342700 0.735374 0.335924 -0.477771
O9    O     O_3   0.473588 0.746728 0.879871 -0.684071
H13   H     H_    0.414789 0.747679 0.919722 0.351419
O10   O     O_3   0.619066 0.660712 0.119445 -0.728699
H14   H     H_    0.646639 0.606249 0.077185 0.331109
Br5   Br    Br    0.438064 0.045703 0.236044 -0.309227
Br6   Br    Br    0.557803 0.050687 0.766108 -0.281185
O11   O     O_3   0.407717 0.245348 0.312335 -0.670339
H15   H     H_    0.388136 0.305978 0.345755 0.368995
O12   O     O_3   0.586590 0.249970 0.692522 -0.667793
H16   H     H_    0.612691 0.306542 0.656765 0.363164

loop_
_geom_bond_atom_site_label_1
_geom_bond_atom_site_label_2
_ccdc_geom_bond_type
C15   C18   A    
C19   C23   S    
C9    Br5   S    
C7    C29   A    
C14   C16   A    
C10   Br6   S    
C17   Br4   S    
C31   H7    S    
C14   C18   A    
C11   N1    A    
C17   N2    A    
C28   H4    S    
C20   O8    A    
C8    C30   A    
C19   O5    A    
C11   O11   S    
C28   O10   S    
C30   H6    S    
O12   H16   S    
C29   C31   A    
O3    Zn2   S    
C5    H11   S    
C21   C22   A    
O6    Zn1   S    
N1    Zn2   S    
C30   C32   A    
C1    O3    A    
C24   C26   A    
C2    C34   S    
C32   H8    S    
C2    O4    A    
C13   C18   S    
C27   H3    S    
C12   N1    A    
C10   C12   A    
C20   O6    A    
C2    O2    A    
C12   O12   S    
O8    Zn2   S    
C3    H9    S    
C4    C34   A    
C22   C27   S    
C9    C11   A    
C21   C23   A    
C6    H12   S    
O11   H15   S    
O4    Zn2   S    
C9    C13   A    
C22   C24   A    
C7    C8    S    
C16   Br3   S    
C3    C33   A    
C1    C33   S    
O9    H13   S    
C15   H2    S    
C27   C28   S    
N2    Zn1   S    
O1    Zn1   S    
C16   N2    A    
C4    C6    A    
C23   C25   A    
C1    O1    A    
O7    Zn2   S    
C19   O7    A    
C14   H1    S    
C15   C17   A    
O5    Zn1   S    
C5    C7    A    
C27   O9    S    
C31   C33   A    
C6    C8    A    
C25   Br1   S    
C25   C26   A    
O2    Zn1   S    
C26   Br2   S    
O10   H14   S    
C21   C28   S    
C29   H5    S    
C20   C24   S    
C4    H10   S    
C3    C5    A    
C10   C13   A    
C32   C34   A    
