data_mof_unit_39367.cif
_audit_creation_date              2012-10-26T20:31:47-0400
_audit_creation_method            fapswitch 2.2
_symmetry_space_group_name_H-M    P1
_symmetry_Int_Tables_number       1
_space_group_crystal_system       triclinic
_cell_length_a                    15.930861
_cell_length_b                    10.853024
_cell_length_c                    9.599529
_cell_angle_alpha                 90.741619
_cell_angle_beta                  90.661453
_cell_angle_gamma                 91.256994
_cell_volume                      1659.08497457

loop_
_atom_site_label
_atom_site_type_symbol
_atom_type_description
_atom_site_fract_x
_atom_site_fract_y
_atom_site_fract_z
_atom_type_partial_charge
C1    C     C_R   0.496015 0.262711 0.498816 0.583534
C2    C     C_R   0.487924 0.129249 0.497667 0.001173
C3    C     C_R   0.462303 0.060653 0.377775 0.266267
C4    C     C_R   0.340621 0.499816 0.499522 0.549909
C5    C     C_R   0.458822 0.931117 0.382747 0.230610
C6    C     C_R   0.491690 0.870504 0.500651 0.011082
C7    C     C_R   0.511709 0.940314 0.620176 -0.017470
C8    C     C_3   0.587211 0.942559 0.715864 0.149853
C9    C     C_3   0.582902 0.083619 0.713673 -0.025453
C10   C     C_R   0.572894 0.515567 0.075139 0.198617
C11   C     C_R   0.429317 0.467991 0.069291 0.134574
C12   C     C_3   0.951502 0.480617 0.657032 -0.225227
C13   C     C_R   0.429428 0.472159 0.922013 -0.007453
C14   C     C_R   0.573358 0.511197 0.928400 0.138380
C15   C     C_3   0.637873 0.612094 0.921245 -0.063352
C16   C     C_R   0.499395 0.737506 0.500547 0.578072
C17   C     C_3   0.632464 0.623525 0.080409 0.110959
C18   C     C_R   0.659690 0.499465 0.500774 0.578672
C19   C     C_3   0.050502 0.476018 0.664776 0.055864
C20   C     C_3   0.050518 0.386557 0.412518 0.102561
C21   C     C_3   0.950120 0.380440 0.410841 0.068012
C22   C     C_1   0.749321 0.496839 0.503149 0.122503
C23   C     C_3   0.917569 0.492196 0.504576 -0.096631
C24   C     C_3   0.084260 0.495216 0.509914 -0.044687
C25   C     C_2   0.086080 0.573203 0.768717 0.627475
C26   C     C_3   0.504605 0.114299 0.160794 -0.038604
C27   C     C_3   0.342818 0.842707 0.282348 -0.053181
C28   C     C_3   0.727212 0.898433 0.744955 -0.056254
C29   C     C_2   0.654665 0.151953 0.644405 0.600505
C30   C     C_2   0.350683 0.421193 0.129236 0.598508
C31   C     C_2   0.079326 0.352398 0.723904 0.647052
C32   C     C_2   0.720373 0.564158 0.869077 0.644104
C33   C     C_3   0.754907 0.703829 0.175570 -0.060631
C34   C     C_3   0.952760 0.617561 0.444818 -0.099941
C35   C     C_3   0.128875 0.214396 0.346810 -0.047802
C36   C     C_2   0.918463 0.253243 0.459842 0.672290
C37   C     C_2   0.913827 0.391079 0.262117 0.531720
C38   C     C_2   0.096109 0.737080 0.486602 0.609974
C39   C     C_2   0.915723 0.733576 0.508575 0.601172
C40   C     C_3   0.050949 0.617006 0.442812 -0.118878
C41   C     C_1   0.824783 0.494380 0.505105 0.056184
C42   C     C_1   0.176454 0.497112 0.503633 0.045872
C43   C     C_1   0.251557 0.498577 0.499557 0.063641
C44   C     C_R   0.508076 0.066812 0.619086 -0.088492
Cu1   Cu    Cu3+1 0.500000 0.499980 0.640670 1.013351
Cu2   Cu    Cu3+1 0.500000 0.500020 0.359330 1.065516
H1    H     H_    0.921168 0.402333 0.709621 0.211205
H2    H     H_    0.067091 0.610641 0.330219 0.128874
H3    H     H_    0.065704 0.697364 0.922842 0.368983
H4    H     H_    0.565084 0.149663 0.206954 0.136628
H5    H     H_    0.489182 0.173985 0.071484 0.139747
H6    H     H_    0.512183 0.019280 0.119043 0.139042
H7    H     H_    0.307901 0.930425 0.284632 0.147449
H8    H     H_    0.329350 0.788166 0.377302 0.120870
H9    H     H_    0.319441 0.787660 0.191180 0.186281
H10   H     H_    0.712222 0.854673 0.845834 0.104996
H11   H     H_    0.750068 0.994295 0.764994 0.138941
H12   H     H_    0.926478 0.556932 0.719571 0.229355
H13   H     H_    0.779658 0.848355 0.697814 0.221547
H14   H     H_    0.720478 0.180563 0.468571 0.357506
H15   H     H_    0.225880 0.442247 0.149839 0.330721
H16   H     H_    0.049736 0.183630 0.798012 0.364112
H17   H     H_    0.801582 0.424228 0.861754 0.352826
H18   H     H_    0.727110 0.758266 0.261725 0.159589
H19   H     H_    0.760740 0.760925 0.080439 0.117377
H20   H     H_    0.819123 0.678588 0.206870 0.193764
H21   H     H_    0.150027 0.123598 0.383579 0.168104
H22   H     H_    0.185536 0.269614 0.318299 0.128129
H23   H     H_    0.932262 0.620451 0.334081 0.130079
H24   H     H_    0.087452 0.198000 0.254007 0.166713
H25   H     H_    0.853275 0.150879 0.597263 0.357314
H26   H     H_    0.811415 0.373018 0.136990 0.392927
H27   H     H_    0.170132 0.879853 0.427502 0.329303
H28   H     H_    0.853235 0.890508 0.474442 0.360358
H29   H     H_    0.571600 0.901300 0.818329 0.077715
H30   H     H_    0.565736 0.123654 0.816504 0.074457
H31   H     H_    0.372513 0.448961 0.864155 0.182667
H32   H     H_    0.614550 0.693542 0.865287 0.080966
H33   H     H_    0.600974 0.708192 0.118929 0.103515
H34   H     H_    0.073494 0.410482 0.306691 0.130198
N1    N     N_R   0.500530 0.500930 0.147930 -0.285501
N2    N     N_R   0.500530 0.500890 0.852020 -0.285587
O1    O     O_R   0.500000 0.319640 0.618810 -0.506957
O2    O     O_R   0.033594 0.637929 0.858422 -0.639097
O3    O     O_3   0.438332 0.119280 0.257122 -0.500393
O4    O     O_3   0.429667 0.865142 0.267134 -0.560594
O5    O     O_3   0.658518 0.893653 0.650517 -0.534887
O6    O     O_2   0.691409 0.236047 0.707134 -0.483682
O7    O     O_R   0.677032 0.121470 0.507820 -0.678095
O8    O     O_2   0.349653 0.324782 0.193391 -0.469764
O9    O     O_R   0.276234 0.483838 0.105220 -0.686352
O10   O     O_2   0.154424 0.333803 0.738778 -0.465792
O11   O     O_R   0.021652 0.259886 0.761526 -0.657226
O12   O     O_R   0.500010 0.319680 0.381230 -0.451433
O13   O     O_2   0.765535 0.629681 0.798149 -0.546875
O14   O     O_R   0.745117 0.445119 0.902196 -0.635610
O15   O     O_3   0.707532 0.594494 0.150995 -0.531244
O16   O     O_3   0.085348 0.272912 0.455632 -0.526634
O17   O     O_2   0.936660 0.160846 0.393155 -0.457902
O18   O     O_R   0.866568 0.240286 0.575267 -0.686567
O19   O     O_2   0.957639 0.421990 0.164136 -0.520760
O20   O     O_R   0.828441 0.364494 0.238271 -0.667370
O21   O     O_2   0.091097 0.779053 0.604705 -0.425055
O22   O     O_R   0.143469 0.801008 0.388065 -0.716105
O23   O     O_R   0.379430 0.499990 0.618840 -0.500321
O24   O     O_2   0.923614 0.757405 0.632802 -0.449081
O25   O     O_R   0.873804 0.815414 0.422230 -0.707192
O26   O     O_R   0.379440 0.500030 0.381260 -0.487449
O27   O     O_R   0.499990 0.680320 0.618770 -0.507269
O28   O     O_R   0.500000 0.680360 0.381190 -0.471563
O29   O     O_R   0.620560 0.499970 0.618740 -0.476253
O30   O     O_R   0.620570 0.500010 0.381160 -0.468221
O31   O     O_2   0.162078 0.591035 0.778721 -0.459374

loop_
_geom_bond_atom_site_label_1
_geom_bond_atom_site_label_2
_ccdc_geom_bond_type
C39   O24   D    
C38   C40   S    
Cu2   O30   S    
C3    O3    S    
C24   C42   S    
Cu1   N2    S    
C30   O8    D    
C19   C31   S    
C29   O7    S    
C28   H10   S    
C27   H8    S    
C33   H19   S    
C7    C8    S    
C21   C36   S    
Cu1   Cu2   S    
C11   N1    A    
C39   O25   S    
C4    O26   A    
C12   C23   S    
C34   C40   S    
H3    O2    S    
C18   O30   A    
C26   H6    S    
C26   H4    S    
C37   O20   S    
C27   H9    S    
C22   C41   T    
C10   C17   S    
C17   H33   S    
C40   H2    S    
C1    C2    S    
C29   O6    D    
C38   O22   S    
H28   O25   S    
H27   O22   S    
C20   C24   S    
C11   C30   S    
C2    C44   A    
C8    C9    S    
Cu2   O26   S    
C33   H20   S    
C25   O2    S    
C9    H30   S    
C35   O16   S    
C33   O15   S    
C9    C29   S    
C12   H12   S    
C28   H11   S    
Cu1   O1    S    
C12   H1    S    
Cu1   O23   S    
C16   O27   A    
C13   H31   S    
C20   H34   S    
C16   O28   A    
C34   C39   S    
C15   C32   S    
C18   O29   A    
C35   H24   S    
C10   C14   A    
C1    O12   A    
H14   O7    S    
C13   N2    A    
C8    H29   S    
C27   O4    S    
C38   O21   D    
C25   O31   D    
Cu2   N1    S    
Cu2   O12   S    
C35   H21   S    
C23   C34   S    
C28   O5    S    
Cu1   O29   S    
C20   O16   S    
C36   O18   S    
C7    C44   A    
C34   H23   S    
C5    O4    S    
C32   O14   S    
C21   C23   S    
C42   C43   T    
C14   N2    A    
C4    O23   A    
C28   H13   S    
C15   C17   S    
C9    C44   S    
C18   C22   S    
C26   O3    S    
C30   O9    S    
C3    C5    A    
C27   H7    S    
C6    C7    A    
C4    C43   S    
C1    O1    A    
H25   O18   S    
C10   N1    A    
C23   C41   S    
C8    O5    S    
Cu2   O28   S    
C2    C3    A    
C31   O11   S    
C26   H5    S    
C37   O19   D    
C11   C13   A    
C5    C6    A    
H26   O20   S    
C35   H22   S    
C33   H18   S    
H17   O14   S    
C12   C19   S    
C24   C40   S    
C19   C24   S    
C36   O17   D    
Cu1   O27   S    
C19   C25   S    
C6    C16   S    
C15   H32   S    
C32   O13   D    
C21   C37   S    
C20   C21   S    
C31   O10   D    
H16   O11   S    
C14   C15   S    
C17   O15   S    
H15   O9    S    
