data_mof_unit_41723.cif
_audit_creation_date              2012-12-11T16:44:18-0500
_audit_creation_method            fapswitch 2.2
_symmetry_space_group_name_H-M    P1
_symmetry_Int_Tables_number       1
_space_group_crystal_system       triclinic
_cell_length_a                    27.228824
_cell_length_b                    7.200555
_cell_length_c                    22.780393
_cell_angle_alpha                 89.883516
_cell_angle_beta                  101.247546
_cell_angle_gamma                 89.862656
_cell_volume                      4380.57427602

loop_
_atom_site_label
_atom_site_type_symbol
_atom_type_description
_atom_site_fract_x
_atom_site_fract_y
_atom_site_fract_z
_atom_type_partial_charge
O1    O     O_R   0.707300 0.594030 0.176840 -0.534666
O2    O     O_R   0.292700 0.405970 0.823160 -0.534666
O3    O     O_R   0.792700 0.094030 0.323160 -0.535774
O4    O     O_R   0.207300 0.905970 0.676840 -0.535774
O5    O     O_R   0.697330 0.262360 0.295660 -0.510653
O6    O     O_R   0.302670 0.737640 0.704340 -0.510652
O7    O     O_R   0.802670 0.762360 0.204340 -0.509790
O8    O     O_R   0.197330 0.237640 0.795660 -0.509792
C1    C     C_R   0.684783 0.432281 0.311684 0.777686
C2    C     C_R   0.315217 0.567719 0.688316 0.777686
C3    C     C_R   0.815218 0.932202 0.188300 0.777992
C4    C     C_R   0.184782 0.067798 0.811700 0.777992
O9    O     O_R   0.701410 0.264250 0.175600 -0.540740
O10   O     O_R   0.298590 0.735750 0.824400 -0.540740
O11   O     O_R   0.798590 0.764250 0.324400 -0.538082
O12   O     O_R   0.201410 0.235750 0.675600 -0.538082
O13   O     O_R   0.796800 0.094950 0.202240 -0.542143
O14   O     O_R   0.203200 0.905050 0.797760 -0.542143
O15   O     O_R   0.703200 0.594950 0.297760 -0.542654
O16   O     O_R   0.296800 0.405050 0.702240 -0.542654
C5    C     C_R   0.689798 0.432863 0.153549 0.761260
C6    C     C_R   0.310202 0.567136 0.846450 0.761259
C7    C     C_R   0.810193 0.932148 0.346537 0.763277
C8    C     C_R   0.189807 0.067852 0.653463 0.763278
O17   O     O_3   0.781290 0.427390 0.258880 -0.368485
O18   O     O_3   0.218710 0.572610 0.741120 -0.368486
O19   O     O_3   0.718710 0.927390 0.241120 -0.370896
O20   O     O_3   0.281290 0.072610 0.758880 -0.370895
V1    V     V_3+5 0.744190 0.152150 0.248350 1.591410
V2    V     V_3+5 0.255810 0.847850 0.751650 1.591411
V3    V     V_3+5 0.755810 0.652150 0.251650 1.594510
V4    V     V_3+5 0.244190 0.347850 0.748350 1.594509
C9    C     C_R   0.154529 0.064680 0.595349 -0.179522
C10   C     C_R   0.845471 0.935320 0.404651 -0.179522
C11   C     C_R   0.345425 0.560462 0.904460 -0.176084
C12   C     C_R   0.654575 0.439538 0.095540 -0.176084
C13   C     C_R   0.136116 0.168319 0.492486 -0.099382
C14   C     C_R   0.863884 0.831680 0.507514 -0.099382
C15   C     C_R   0.359423 0.584633 0.012071 -0.100041
C16   C     C_R   0.640577 0.415367 0.987929 -0.100042
C17   C     C_R   0.170414 0.136346 0.545258 -0.257414
C18   C     C_R   0.829586 0.863654 0.454741 -0.257413
C19   C     C_R   0.327570 0.598405 0.956550 -0.264838
C20   C     C_R   0.672430 0.401595 0.043450 -0.264838
C21   C     C_R   0.103884 0.015111 0.591315 0.684860
C22   C     C_R   0.896116 0.984889 0.408685 0.684860
C23   C     C_R   0.396547 0.519370 0.907916 0.679713
C24   C     C_R   0.603453 0.480630 0.092084 0.679713
C25   C     C_R   0.068894 0.030237 0.535699 -0.022152
C26   C     C_R   0.931106 0.969762 0.464300 -0.022151
C27   C     C_R   0.431144 0.528898 0.963850 -0.024840
C28   C     C_R   0.568856 0.471102 0.036149 -0.024841
C29   C     C_R   0.085497 0.122626 0.488077 -0.040100
C30   C     C_R   0.914503 0.877373 0.511923 -0.040101
C31   C     C_R   0.410511 0.545914 0.016173 -0.043606
C32   C     C_R   0.589489 0.454085 0.983827 -0.043606
C33   C     C_R   0.017475 0.970367 0.526361 -0.141160
C34   C     C_R   0.982525 0.029631 0.473638 -0.141159
C35   C     C_R   0.484759 0.513661 0.970670 -0.145119
C36   C     C_R   0.515241 0.486338 0.029330 -0.145120
C37   C     C_R   0.000140 0.151009 0.433465 0.740341
C38   C     C_R   0.999861 0.848989 0.566535 0.740341
C39   C     C_R   0.490599 0.468408 0.078312 0.744257
C40   C     C_R   0.509401 0.531592 0.921687 0.744257
C41   C     C_R   0.050986 0.183571 0.438325 -0.225363
C42   C     C_R   0.949015 0.816427 0.561674 -0.225363
C43   C     C_R   0.440165 0.511881 0.072248 -0.228230
C44   C     C_R   0.559834 0.488119 0.927752 -0.228230
H1    H     H_    0.063110 0.269835 0.404785 0.163465
H2    H     H_    0.936890 0.730163 0.595215 0.163465
H3    H     H_    0.423354 0.506707 0.111630 0.163438
H4    H     H_    0.576646 0.493293 0.888370 0.163438
H5    H     H_    0.790973 0.821858 0.451826 0.140546
H6    H     H_    0.209027 0.178142 0.548174 0.140546
H7    H     H_    0.711662 0.369638 0.045659 0.142369
H8    H     H_    0.288338 0.630362 0.954341 0.142369
H9    H     H_    0.148919 0.235498 0.455598 0.142228
H10   H     H_    0.851081 0.764500 0.544402 0.142229
H11   H     H_    0.343949 0.602573 0.052080 0.144419
H12   H     H_    0.656051 0.397427 0.947919 0.144419
C45   C     C_R   0.853333 0.091799 0.110095 -0.289325
C46   C     C_R   0.146668 0.908205 0.889906 -0.289332
C47   C     C_R   0.646774 0.590941 0.390087 -0.292316
C48   C     C_R   0.353227 0.409054 0.609914 -0.292309
H13   H     H_    0.825146 0.199747 0.106874 0.174420
H14   H     H_    0.174856 0.800260 0.893129 0.174416
H15   H     H_    0.675071 0.697989 0.393496 0.173947
H16   H     H_    0.324932 0.302002 0.606507 0.173950
C49   C     C_R   0.888642 0.102718 0.073011 0.654728
C50   C     C_R   0.111359 0.897285 0.926991 0.654729
C51   C     C_R   0.611457 0.601835 0.427169 0.655164
C52   C     C_R   0.388544 0.398159 0.572832 0.655160
C53   C     C_R   0.925544 0.964450 0.075283 -0.119265
C54   C     C_R   0.074456 0.035550 0.924717 -0.119263
C55   C     C_R   0.574429 0.464634 0.424660 -0.120706
C56   C     C_R   0.425571 0.535366 0.575340 -0.120707
C57   C     C_R   0.926669 0.816832 0.115972 -0.277049
C58   C     C_R   0.073329 0.183165 0.884026 -0.277054
C59   C     C_R   0.573172 0.318182 0.383722 -0.273066
C60   C     C_R   0.426827 0.681822 0.616277 -0.273060
H17   H     H_    0.955821 0.712402 0.120167 0.176663
H18   H     H_    0.044177 0.287592 0.879829 0.176662
H19   H     H_    0.543922 0.214675 0.379344 0.177430
H20   H     H_    0.456076 0.785332 0.620653 0.177430
C61   C     C_R   0.890850 0.804037 0.152459 0.673691
C62   C     C_R   0.109149 0.195959 0.847539 0.673693
C63   C     C_R   0.608992 0.305396 0.347233 0.682659
C64   C     C_R   0.391007 0.694608 0.652765 0.682656
C65   C     C_R   0.853644 0.942008 0.149966 -0.250307
C66   C     C_R   0.146356 0.057992 0.850034 -0.250304
C67   C     C_R   0.646338 0.442228 0.349986 -0.251260
C68   C     C_R   0.353662 0.557772 0.650014 -0.251262
C69   C     C_R   0.969583 0.839676 0.994507 0.086557
C70   C     C_R   0.030417 0.160324 0.005492 0.086559
C71   C     C_R   0.530314 0.338812 0.505254 0.085562
C72   C     C_R   0.469686 0.661187 0.494746 0.085561
C73   C     C_R   0.005700 0.863118 0.958594 -0.100239
C74   C     C_R   0.994299 0.136881 0.041405 -0.100237
C75   C     C_R   0.494210 0.362165 0.541200 -0.098110
C76   C     C_R   0.505790 0.637834 0.458800 -0.098112
H21   H     H_    0.010013 0.757281 0.926181 0.147293
H22   H     H_    0.989987 0.242718 0.073818 0.147296
H23   H     H_    0.489831 0.255591 0.573458 0.147555
H24   H     H_    0.510169 0.744409 0.426542 0.147553
C77   C     C_R   0.036199 0.021667 0.963330 0.126082
C78   C     C_R   0.963801 0.978333 0.036669 0.126081
C79   C     C_R   0.463814 0.521559 0.536700 0.126701
C80   C     C_R   0.536186 0.478440 0.463300 0.126703
C81   C     C_3   0.936807 0.669555 0.985667 -0.663935
H25   H     H_    0.942613 0.587225 0.946384 0.209754
H26   H     H_    0.945687 0.577848 0.025475 0.233005
H27   H     H_    0.896756 0.710975 0.978089 0.226908
C82   C     C_3   0.063192 0.330446 0.014332 -0.663937
H28   H     H_    0.057387 0.412777 0.053614 0.209755
H29   H     H_    0.103243 0.289027 0.021910 0.226909
H30   H     H_    0.054312 0.422151 0.974523 0.233003
C83   C     C_3   0.562983 0.167688 0.513839 -0.662961
H31   H     H_    0.557091 0.084363 0.552963 0.210657
H32   H     H_    0.554083 0.077329 0.473871 0.231933
H33   H     H_    0.603060 0.207977 0.521532 0.227250
C84   C     C_3   0.437017 0.832311 0.486160 -0.662962
H34   H     H_    0.442908 0.915633 0.447036 0.210657
H35   H     H_    0.396940 0.792022 0.478467 0.227249
H36   H     H_    0.445917 0.922672 0.526128 0.231936
F1    F     F_    0.911481 0.017431 0.356435 -0.620718
F2    F     F_    0.088519 0.982568 0.643565 -0.620716
F3    F     F_    0.589948 0.548904 0.142094 -0.621634
F4    F     F_    0.410052 0.451095 0.857906 -0.621635
F5    F     F_    0.968776 0.254665 0.392611 -0.608723
F6    F     F_    0.031224 0.745333 0.607388 -0.608723
F7    F     F_    0.513079 0.392010 0.131180 -0.601294
F8    F     F_    0.486921 0.607990 0.868820 -0.601295
F9    F     F_    0.886341 0.247424 0.034267 -0.690285
F10   F     F_    0.113661 0.752583 0.965736 -0.690283
F11   F     F_    0.613876 0.745422 0.466147 -0.689837
F12   F     F_    0.386126 0.254568 0.533856 -0.689839
F13   F     F_    0.893642 0.659522 0.191334 -0.635217
F14   F     F_    0.106355 0.340470 0.808662 -0.635216
F15   F     F_    0.606073 0.162062 0.308105 -0.631746
F16   F     F_    0.393925 0.837946 0.691892 -0.631746

loop_
_geom_bond_atom_site_label_1
_geom_bond_atom_site_label_2
_ccdc_geom_bond_type
O17   V3    S    
C59   H19   S    
C25   C29   A    
O1    C5    A    
C53   C57   A    
C3    C65   S    
C9    C21   A    
O3    C7    A    
C1    C67   S    
C10   C18   A    
O1    V3    S    
O15   V3    S    
C4    C66   S    
C25   C33   A    
C33   C38   A    
C5    C12   S    
O7    C3    A    
C6    C11   S    
C83   H32   S    
C35   C40   A    
C48   C68   A    
C69   C81   S    
C40   F8    S    
C36   C39   A    
C46   C66   A    
O9    V1    S    
C14   C18   A    
C84   H35   S    
O16   V4    S    
O4    C8    A    
C55   C59   A    
C22   F1    S    
O19   V1    S    
C54   C58   A    
C24   F3    S    
C52   C56   A    
O13   V1    S    
O2    V4    S    
C74   H22   S    
O3    V1    S    
C73   H21   S    
C53   C78   S    
C28   C36   A    
C17   H6    S    
C76   H24   S    
C55   C80   S    
C1    O15   A    
C60   H20   S    
C61   F13   S    
C71   C83   S    
C2    O16   A    
C16   C32   A    
C72   C79   A    
O2    C6    A    
C82   H30   S    
C16   H12   S    
C2    C68   S    
C10   C22   A    
C50   F10   S    
C11   C19   A    
C64   F16   S    
C16   C20   A    
C43   H3    S    
C44   H4    S    
C81   H27   S    
C13   C29   A    
C34   C37   A    
O11   C7    A    
C11   C23   A    
C35   C36   A    
O12   C8    A    
C13   C17   A    
C59   C63   A    
O10   V2    S    
C50   C54   A    
O5    V1    S    
C83   H33   S    
C15   C31   A    
C60   C64   A    
O7    V3    S    
C38   C42   A    
C21   F2    S    
O8    V4    S    
C84   H36   S    
C70   C77   A    
O18   V4    S    
C15   C19   A    
C69   C78   A    
C14   H10   S    
C62   F14   S    
C13   H9    S    
C71   C80   A    
C72   C76   A    
C56   C79   S    
C26   C34   A    
C20   H7    S    
C39   C43   A    
O5    C1    A    
C23   C27   A    
C49   F9    S    
C14   C30   A    
C21   C25   A    
O8    C4    A    
C7    C10   S    
C57   H17   S    
C63   F15   S    
O9    C5    A    
C52   F12   S    
C26   C30   A    
C48   C52   A    
C39   F7    S    
C70   C74   A    
C37   C41   A    
C69   C73   A    
O6    V2    S    
C45   C65   A    
C71   C75   A    
C82   H28   S    
C47   C67   A    
C12   C20   A    
C27   C35   A    
C51   F11   S    
C40   C44   A    
C29   C41   A    
C81   H25   S    
C62   C66   A    
C54   C77   S    
C19   H8    S    
C61   C65   A    
C23   F4    S    
C3    O13   A    
C18   H5    S    
C38   F6    S    
C63   C67   A    
C48   H16   S    
C46   C50   A    
C47   H15   S    
O6    C2    A    
C31   C43   A    
C76   C80   A    
O11   V3    S    
C30   C42   A    
C75   H23   S    
O12   V4    S    
C47   C51   A    
C83   H31   S    
C22   C26   A    
C8    C9    S    
C58   C62   A    
C9    C17   A    
O10   C6    A    
O20   V2    S    
C57   C61   A    
C32   C44   A    
C84   H34   S    
C46   H14   S    
C33   C34   A    
C42   H2    S    
C37   F5    S    
C41   H1    S    
C56   C60   A    
C70   C82   S    
C12   C24   A    
C27   C31   A    
C45   C49   A    
C49   C53   A    
O4    V2    S    
C58   H18   S    
O14   V2    S    
C51   C55   A    
C72   C84   S    
C64   C68   A    
C24   C28   A    
C4    O14   A    
C82   H29   S    
C74   C78   A    
C73   C77   A    
C45   H13   S    
C28   C32   A    
C15   H11   S    
C81   H26   S    
C75   C79   A    
