data_mof_unit_9256.cif
_audit_creation_date              2013-03-05T15:55:01-0500
_audit_creation_method            fapswitch 2.2
_symmetry_space_group_name_H-M    P1
_symmetry_Int_Tables_number       1
_space_group_crystal_system       triclinic
_cell_length_a                    23.424481
_cell_length_b                    10.718981
_cell_length_c                    9.893008
_cell_angle_alpha                 88.287746
_cell_angle_beta                  89.976523
_cell_angle_gamma                 91.97907
_cell_volume                      2481.40868163

loop_
_atom_site_label
_atom_site_type_symbol
_atom_site_description
_atom_site_fract_x
_atom_site_fract_y
_atom_site_fract_z
_atom_type_partial_charge
O1    O     O_R   0.500000 0.316780 0.614690 -0.651903
O2    O     O_R   0.500000 0.316750 0.385360 -0.616190
C1    C     C_R   0.503154 0.259727 0.503110 0.897123
O3    O     O_R   0.416160 0.499970 0.614690 -0.651361
O4    O     O_R   0.416150 0.499950 0.385360 -0.640784
C2    C     C_R   0.389355 0.498865 0.500108 0.873853
Zn1   Zn    Zn3+2 0.500000 0.500020 0.653130 0.940303
Zn2   Zn    Zn3+2 0.500000 0.499980 0.346870 0.969568
O5    O     O_R   0.500000 0.683250 0.614640 -0.621647
O6    O     O_R   0.500000 0.683220 0.385310 -0.614536
O7    O     O_R   0.583850 0.500050 0.614640 -0.618518
O8    O     O_R   0.583840 0.500030 0.385310 -0.619624
C3    C     C_R   0.494891 0.738929 0.498326 0.879203
C4    C     C_R   0.610653 0.500159 0.499939 0.877242
C5    C     C_R   0.882601 0.602663 0.523837 0.505911
N1    N     N_R   0.852286 0.494308 0.500081 -0.360970
C6    C     C_R   0.878365 0.384915 0.476473 0.506899
C7    C     C_R   0.937916 0.381473 0.476109 -0.017009
C8    C     C_R   0.969976 0.492143 0.500564 -0.019912
C9    C     C_R   0.942220 0.603910 0.524712 -0.016324
C10   C     C_R   0.965979 0.270596 0.452277 -0.152688
C11   C     C_R   0.025398 0.269537 0.452532 -0.149374
C12   C     C_R   0.057716 0.379335 0.476641 -0.020958
C13   C     C_R   0.029933 0.491068 0.500850 -0.019795
C14   C     C_R   0.061966 0.601767 0.525293 -0.018042
C15   C     C_R   0.033918 0.712650 0.549093 -0.147395
C16   C     C_R   0.974523 0.713715 0.548799 -0.155168
C17   C     C_R   0.117367 0.380690 0.477443 0.513344
N2    N     N_R   0.147620 0.489086 0.501340 -0.363520
C18   C     C_R   0.121487 0.598421 0.524913 0.510349
O9    O     O_2   0.854975 0.708674 0.545741 -0.545727
O10   O     O_2   0.846630 0.280025 0.454263 -0.543760
H1    H     H_    0.942175 0.184451 0.433385 0.196431
H2    H     H_    0.045865 0.182611 0.433825 0.197122
O11   O     O_2   0.145061 0.274828 0.455290 -0.517175
O12   O     O_2   0.153169 0.703420 0.547045 -0.529851
H3    H     H_    0.057715 0.798810 0.567968 0.199267
H4    H     H_    0.954066 0.800661 0.567461 0.194783
C19   C     C_R   0.237697 0.483608 0.378748 -0.069972
H5    H     H_    0.214520 0.478248 0.284287 0.146447
C20   C     C_R   0.296976 0.487056 0.378127 -0.148057
H6    H     H_    0.319083 0.483502 0.282215 0.161749
C21   C     C_R   0.327087 0.495212 0.500441 -0.037242
C22   C     C_R   0.297198 0.498874 0.623254 -0.215477
H7    H     H_    0.319477 0.504718 0.718902 0.168049
C23   C     C_R   0.237932 0.495720 0.623425 -0.082621
H8    H     H_    0.214925 0.499411 0.718118 0.147127
C24   C     C_R   0.208302 0.488514 0.501248 0.301987
C25   C     C_R   0.762006 0.489991 0.377714 -0.097234
H9    H     H_    0.784995 0.484587 0.283186 0.142217
C26   C     C_R   0.702787 0.491881 0.377435 -0.208898
H10   H     H_    0.680521 0.487455 0.281679 0.166984
C27   C     C_R   0.672914 0.499065 0.499914 -0.046054
C28   C     C_R   0.703017 0.504551 0.622441 -0.207240
H11   H     H_    0.680938 0.510227 0.718161 0.164861
C29   C     C_R   0.762235 0.502878 0.622285 -0.096641
C30   C     C_R   0.791609 0.495512 0.500036 0.317198
H12   H     H_    0.530321 0.118622 0.299528 0.225791
C31   C     C_R   0.495516 0.098950 0.763596 -0.263415
C32   C     C_R   0.471814 0.029554 0.873915 0.361987
C33   C     C_R   0.441405 0.918007 0.849780 -0.207617
H13   H     H_    0.420245 0.865180 0.931447 0.193389
C34   C     C_R   0.441900 0.868571 0.721495 -0.197040
C35   C     C_R   0.472577 0.930857 0.614910 0.113171
C36   C     C_R   0.491133 0.054672 0.630168 0.046990
C37   C     C_R   0.506120 0.125637 0.510767 -0.130456
C38   C     C_R   0.516171 0.066588 0.389542 -0.122983
H14   H     H_    0.521932 0.894663 0.291938 0.190262
C39   C     C_R   0.509528 0.939510 0.383673 -0.127360
C40   C     C_R   0.488472 0.871297 0.496097 -0.125041
H15   H     H_    0.567390 0.633595 0.121118 0.142928
C41   C     C_R   0.420971 0.344390 0.144521 -0.204387
H16   H     H_    0.420965 0.335476 0.251562 0.230111
C42   C     C_R   0.380148 0.270838 0.076922 0.349635
C43   C     C_R   0.381109 0.271409 0.936058 -0.261613
H17   H     H_    0.351343 0.212665 0.880774 0.204005
C44   C     C_R   0.421779 0.343980 0.864348 -0.240728
C45   C     C_R   0.461144 0.423501 0.929970 0.190001
C46   C     C_R   0.460955 0.423682 0.074467 0.155633
N3    N     N_R   0.499460 0.498800 0.142780 -0.113699
C47   C     C_R   0.537114 0.573536 0.069151 -0.097085
H18   H     H_    0.567300 0.633718 0.869946 0.150944
C48   C     C_R   0.537065 0.573578 0.925884 -0.102478
N4    N     N_R   0.499440 0.498720 0.857170 -0.122077
H19   H     H_    0.785397 0.507097 0.716850 0.141863
H20   H     H_    0.520103 0.182697 0.785515 0.214991
N5    N     N_R   0.479176 0.071409 0.009646 0.188575
O13   O     O_R   0.517280 0.158396 0.036364 -0.449170
O14   O     O_R   0.449463 0.019285 0.108514 -0.404045
H21   H     H_    0.419607 0.779767 0.707276 0.177537
N6    N     N_R   0.339049 0.192800 0.151471 0.233155
O15   O     O_R   0.338194 0.191235 0.283083 -0.376347
O16   O     O_R   0.301966 0.122594 0.088345 -0.350302
H22   H     H_    0.422015 0.332930 0.757779 0.228526

loop_
_geom_bond_atom_site_label_1
_geom_bond_atom_site_label_2
_geom_bond_distance
_ccdc_geom_bond_type
N5    O13   1.301298 A    
C7    C10   1.403854 A    
C20   H6    1.083081 S    
C8    C9    1.409198 A    
C21   C22   1.404266 A    
C19   C20   1.387799 A    
C27   C28   1.404322 A    
Zn1   O7    2.000547 S    
C15   C16   1.391741 A    
C17   N2    1.366662 A    
C41   C46   1.410383 A    
O1    C1    1.281157 A    
O4    C2    1.296492 A    
O7    C4    1.296577 A    
C10   H1    1.083208 S    
C3    C40   1.431469 S    
C16   H4    1.083221 S    
C5    N1    1.366730 A    
C44   H22   1.064465 S    
C25   C30   1.396749 A    
C29   C30   1.396817 A    
C7    C8    1.409075 A    
C33   C34   1.390047 A    
O5    C3    1.287877 A    
C23   H8    1.082987 S    
C17   O11   1.349847 S    
H14   C39   1.083806 S    
C25   C26   1.388017 A    
C12   C13   1.409318 A    
C35   C40   1.410218 A    
Zn1   N4    2.018235 S    
C31   C32   1.405416 A    
C10   C11   1.392300 A    
C20   C21   1.404328 A    
C39   C40   1.393170 A    
O3    Zn1   2.000527 S    
C47   C48   1.417328 A    
C32   N5    1.436990 S    
C22   C23   1.387532 A    
C23   C24   1.396856 A    
C5    C9    1.396184 A    
C11   H2    1.083211 S    
C28   C29   1.387894 A    
C42   C43   1.393568 A    
N2    C24   1.421667 S    
C26   H10   1.083088 S    
C13   C14   1.408994 A    
C41   C42   1.401151 A    
N6    O15   1.301789 A    
C45   C46   1.429576 A    
N3    C47   1.366051 A    
C14   C15   1.403667 A    
C44   C45   1.406269 A    
C34   C35   1.413560 A    
C32   C33   1.397276 A    
C38   C39   1.368617 A    
C42   N6    1.441329 S    
C43   H17   1.082746 S    
N2    C18   1.366885 A    
N6    O16   1.301620 A    
C48   N4    1.366379 A    
Zn2   O8    2.000524 S    
C6    C7    1.396713 A    
C12   C17   1.396877 A    
C43   C44   1.389694 A    
O3    C2    1.296226 A    
O8    C4    1.296587 A    
H18   C48   1.081769 S    
C2    C21   1.457778 S    
N5    O14   1.301228 A    
C1    C37   1.441113 S    
C19   H5    1.082972 S    
C22   H7    1.083210 S    
C14   C18   1.395972 A    
Zn1   O5    1.989411 S    
C28   H11   1.083106 S    
O1    Zn1   2.011746 S    
C8    C13   1.404910 A    
O2    Zn2   1.989410 S    
C41   H16   1.060417 S    
O6    C3    1.290620 A    
O4    Zn2   2.000549 S    
C15   H3    1.083219 S    
C5    O9    1.349947 S    
C9    C16   1.403591 A    
C18   O12   1.350017 S    
C35   C36   1.394736 A    
O2    C1    1.302574 A    
C31   H20   1.077306 S    
C31   C36   1.418585 A    
C29   H19   1.082990 S    
N1    C6    1.366894 A    
C34   H21   1.082727 S    
C37   C38   1.396331 A    
N1    C30   1.421841 S    
C36   C37   1.422928 A    
C33   H13   1.082603 S    
C46   N3    1.378929 A    
C45   N4    1.374154 A    
H12   C38   1.082253 S    
C4    C27   1.458879 S    
Zn2   O6    2.011748 S    
C25   H9    1.082985 S    
Zn2   N3    2.019524 S    
C6    O10   1.349870 S    
C11   C12   1.403748 A    
C26   C27   1.404412 A    
C19   C24   1.396852 A    
H15   C47   1.081793 S    
