data_mof_unit_36402.cif
_audit_creation_date              2012-12-10T17:08:14-0500
_audit_creation_method            fapswitch 2.2
_symmetry_space_group_name_H-M    P1
_symmetry_Int_Tables_number       1
_space_group_crystal_system       triclinic
_cell_length_a                    23.556651
_cell_length_b                    11.01841
_cell_length_c                    9.899101
_cell_angle_alpha                 111.717534
_cell_angle_beta                  96.828957
_cell_angle_gamma                 92.923167
_cell_volume                      2357.46703119

loop_
_atom_site_label
_atom_site_type_symbol
_atom_type_description
_atom_site_fract_x
_atom_site_fract_y
_atom_site_fract_z
_atom_type_partial_charge
C1    C     C_R   0.494339 0.253328 0.439544 0.811374
C2    C     C_R   0.711231 0.536721 0.618035 0.307890
C3    C     C_R   0.240389 0.419125 0.554959 0.359948
C4    C     C_R   0.769690 0.521836 0.613764 0.328577
C5    C     C_R   0.208919 0.495402 0.491536 0.045335
C6    C     C_R   0.790296 0.473895 0.478510 0.109257
C7    C     C_2   0.486043 0.111434 0.403519 -0.204193
C8    C     C_2   0.510235 0.888431 0.596126 -0.155133
C9    C     C_2   0.488227 0.069246 0.515152 -0.178100
C10   C     C_2   0.485469 0.930823 0.494474 -0.170823
C11   C     C_2   0.503050 0.519169 0.083513 0.027415
C12   C     C_R   0.504948 0.746589 0.560603 0.817464
C13   C     C_2   0.490158 0.502764 0.925346 -0.004867
C14   C     C_R   0.391416 0.500585 0.501979 0.914411
C15   C     C_R   0.608807 0.495272 0.496084 0.897405
C16   C     C_R   0.883126 0.595379 0.515783 0.635512
C17   C     C_R   0.113669 0.374705 0.427073 0.577522
C18   C     C_R   0.877083 0.364014 0.456898 0.506648
C19   C     C_R   0.123325 0.608373 0.548186 0.582898
C20   C     C_R   0.936056 0.363656 0.449529 -0.023573
C21   C     C_R   0.063515 0.608279 0.540434 -0.045969
C22   C     C_R   0.969442 0.484281 0.487634 -0.012134
C23   C     C_R   0.237990 0.573472 0.430285 0.381398
C24   C     C_R   0.029287 0.487249 0.487858 -0.021690
C25   C     C_R   0.943193 0.601969 0.526489 -0.046425
C26   C     C_R   0.054715 0.369108 0.435362 -0.041041
C27   C     C_R   0.962205 0.246231 0.403626 -0.174075
C28   C     C_R   0.037248 0.725708 0.584984 -0.157726
C29   C     C_R   0.020722 0.248740 0.392477 -0.165740
C30   C     C_R   0.977508 0.722472 0.574622 -0.165323
C31   C     C_3   0.183673 0.567620 0.221413 0.097498
C32   C     C_3   0.154679 0.652102 0.147744 -0.723470
C33   C     C_3   0.790142 0.283151 0.143680 0.108723
C34   C     C_R   0.751690 0.428241 0.345135 0.399405
C35   C     C_3   0.749867 0.165106 0.133471 -0.796760
C36   C     C_2   0.328836 0.683312 0.402803 0.964649
C37   C     C_2   0.652249 0.363149 0.209314 0.969249
C38   C     C_3   0.323951 0.205918 0.451366 0.106395
C39   C     C_3   0.331520 0.086602 0.491623 -0.628074
C40   C     C_3   0.696658 0.737710 0.778554 0.104473
C41   C     C_3   0.670131 0.809313 0.915549 -0.686729
C42   C     C_3   0.203344 0.404750 0.751341 0.091216
C43   C     C_3   0.171481 0.311163 0.804139 -0.745218
C44   C     C_3   0.810263 0.474993 0.806169 0.091218
C45   C     C_R   0.298426 0.585131 0.446197 -0.204995
C46   C     C_3   0.854713 0.525094 0.944313 -0.719965
C47   C     C_2   0.546168 0.977418 0.735829 0.815762
C48   C     C_2   0.475128 0.021175 0.246288 0.901339
C49   C     C_2   0.433469 0.435449 0.848611 0.943309
C50   C     C_2   0.545241 0.631073 0.177877 0.911661
C51   C     C_R   0.691942 0.427859 0.349833 -0.165751
C52   C     C_R   0.329222 0.503892 0.504249 -0.323288
C53   C     C_R   0.671208 0.484607 0.487131 -0.329131
C54   C     C_R   0.299201 0.414453 0.547925 0.301864
Cu1   Cu    Cu3+1 0.509980 0.521810 0.644910 1.046863
Cu2   Cu    Cu3+1 0.490020 0.478190 0.355090 1.018735
H1    H     H_    0.937279 0.152102 0.372314 0.189022
H2    H     H_    0.217391 0.519076 0.156318 0.161270
H3    H     H_    0.186827 0.727927 0.144491 0.271120
H4    H     H_    0.134910 0.590148 0.033532 0.183128
H5    H     H_    0.120549 0.701236 0.209933 0.251229
H6    H     H_    0.834096 0.279109 0.192817 0.161140
H7    H     H_    0.794262 0.271049 0.028945 0.160209
H8    H     H_    0.708385 0.159299 0.064422 0.242059
H9    H     H_    0.769868 0.073465 0.080234 0.218931
H10   H     H_    0.742356 0.169902 0.243795 0.263973
H11   H     H_    0.335280 0.762411 0.250488 0.346926
H12   H     H_    0.062626 0.820187 0.624904 0.187965
H13   H     H_    0.585310 0.227714 0.095963 0.349051
H14   H     H_    0.359121 0.217246 0.389968 0.123108
H15   H     H_    0.281978 0.185979 0.377455 0.159779
H16   H     H_    0.295554 0.070593 0.548216 0.258107
H17   H     H_    0.331743 0.998285 0.390436 0.209450
H18   H     H_    0.372660 0.100987 0.565432 0.269082
H19   H     H_    0.672447 0.755942 0.685119 0.125621
H20   H     H_    0.742233 0.779614 0.796772 0.182771
H21   H     H_    0.693329 0.794590 0.011859 0.255817
H22   H     H_    0.672838 0.915915 0.937485 0.204568
H23   H     H_    0.564605 0.598148 0.921427 0.222996
H24   H     H_    0.624194 0.771829 0.898997 0.266532
H25   H     H_    0.176547 0.486507 0.757587 0.140068
H26   H     H_    0.244836 0.445206 0.825846 0.154355
H27   H     H_    0.197534 0.229275 0.801381 0.263185
H28   H     H_    0.163356 0.363696 0.918331 0.180398
H29   H     H_    0.129615 0.270317 0.732034 0.253663
H30   H     H_    0.823044 0.381346 0.729042 0.161072
H31   H     H_    0.767874 0.455610 0.837612 0.198506
H32   H     H_    0.842497 0.617018 0.025156 0.268012
H33   H     H_    0.857253 0.450331 0.994657 0.197841
H34   H     H_    0.446886 0.367134 0.066271 0.204558
H35   H     H_    0.897601 0.544995 0.916375 0.240136
H36   H     H_    0.607193 0.130628 0.836860 0.337714
H37   H     H_    0.425031 0.871222 0.085078 0.364228
H38   H     H_    0.348022 0.430764 0.854060 0.350368
H39   H     H_    0.564620 0.827454 0.262546 0.336551
H40   H     H_    0.039440 0.156460 0.353365 0.188900
H41   H     H_    0.958428 0.814494 0.606641 0.186040
H42   H     H_    0.461323 0.860334 0.393480 0.255149
H43   H     H_    0.494855 0.139711 0.627768 0.238967
H44   H     H_    0.150663 0.491049 0.219858 0.135492
N1    N     N_R   0.851313 0.477130 0.479504 -0.416275
N2    N     N_R   0.147380 0.492809 0.488354 -0.442895
N3    N     N_2   0.475010 0.445410 0.137370 -0.318418
N4    N     N_2   0.524990 0.554590 0.862630 -0.308819
O1    O     O_R   0.505330 0.332340 0.577400 -0.549769
O2    O     O_2   0.136985 0.263097 0.357358 -0.517674
O3    O     O_2   0.845502 0.251978 0.438962 -0.571450
O4    O     O_2   0.157119 0.722907 0.616184 -0.503126
O5    O     O_3   0.207835 0.648339 0.366856 -0.512248
O6    O     O_3   0.770941 0.408725 0.211703 -0.559893
O7    O     O_2   0.370226 0.754992 0.484933 -0.627092
O8    O     O_R   0.310133 0.694379 0.268858 -0.743411
O9    O     O_2   0.657705 0.393021 0.103872 -0.535798
O10   O     O_R   0.609971 0.263948 0.196177 -0.741344
O11   O     O_3   0.326647 0.319104 0.581423 -0.549262
O12   O     O_R   0.494670 0.667660 0.422600 -0.575601
O13   O     O_3   0.693595 0.602268 0.752449 -0.537391
O14   O     O_3   0.212868 0.334520 0.606075 -0.518680
O15   O     O_3   0.808278 0.570568 0.742789 -0.553534
O16   O     O_2   0.543792 0.958835 0.849467 -0.540328
O17   O     O_R   0.584327 0.079124 0.736222 -0.758689
O18   O     O_2   0.506400 0.034108 0.161372 -0.509978
O19   O     O_R   0.427866 0.925695 0.194053 -0.777156
O20   O     O_2   0.429352 0.325588 0.753235 -0.590005
O21   O     O_R   0.384500 0.492291 0.899341 -0.755308
O22   O     O_2   0.593682 0.612739 0.219653 -0.578284
O23   O     O_R   0.488470 0.295500 0.332650 -0.559084
O24   O     O_R   0.531658 0.758596 0.202503 -0.761930
O25   O     O_R   0.511530 0.704500 0.667350 -0.548375
O26   O     O_R   0.426310 0.518390 0.622390 -0.540421
O27   O     O_R   0.573690 0.481610 0.377610 -0.544134
O28   O     O_R   0.409450 0.481550 0.377650 -0.591995
O29   O     O_R   0.590550 0.518450 0.622350 -0.538254
O30   O     O_2   0.856717 0.706049 0.542883 -0.527661

loop_
_geom_bond_atom_site_label_1
_geom_bond_atom_site_label_2
_ccdc_geom_bond_type
Cu1   Cu2   S    
C38   H14   S    
C23   C45   A    
C27   C29   A    
C43   H27   S    
C42   H26   S    
C16   O30   S    
C41   H24   S    
C46   H33   S    
C14   O28   A    
C30   H41   S    
C34   C51   A    
Cu1   O1    S    
C17   C26   A    
C15   C53   S    
C31   H2    S    
C28   H12   S    
C24   C26   A    
C32   H5    S    
C41   H21   S    
C38   C39   S    
C37   C51   S    
C19   N2    A    
C47   O17   S    
C37   O9    D    
C35   H9    S    
C25   C30   A    
Cu2   O23   S    
C10   H42   S    
C18   O3    S    
C33   C35   S    
C5    N2    S    
H39   O24   S    
C14   C52   S    
C52   C54   A    
C33   H6    S    
Cu1   O25   S    
C22   C25   A    
C36   O8    S    
C39   H16   S    
C4    O15   S    
C35   H8    S    
C50   O22   D    
C44   H31   S    
C9    C10   S    
C33   H7    S    
C19   O4    S    
C39   H17   S    
C40   O13   S    
C9    H43   S    
C43   H28   S    
C42   H25   S    
C48   O19   S    
C44   H30   S    
C2    O13   S    
C44   C46   S    
C46   H32   S    
Cu2   O12   S    
C23   O5    S    
H13   O10   S    
C12   O25   A    
C43   H29   S    
C1    O23   A    
C4    C6    A    
C27   H1    S    
C41   H22   S    
C42   O14   S    
C37   O10   S    
C45   C52   A    
Cu1   O29   S    
C49   O20   D    
Cu1   N4    S    
C6    C34   A    
C51   C53   A    
C18   N1    A    
C2    C4    A    
C17   N2    A    
C3    O14   S    
C16   N1    A    
C31   C32   S    
C5    C23   A    
C8    C12   S    
Cu1   O26   S    
C54   O11   S    
C36   O7    D    
C31   O5    S    
C36   C45   S    
C31   H44   S    
C13   N4    D    
Cu2   O28   S    
C6    N1    S    
C13   C49   S    
C47   O16   D    
C21   C28   A    
C20   C22   A    
C34   O6    S    
C22   C24   A    
H23   N4    S    
C50   O24   S    
C42   C43   S    
C32   H4    S    
C14   O26   A    
H38   O21   S    
C16   C25   A    
C7    C9    D    
C38   H15   S    
C40   C41   S    
C19   C21   A    
C1    C7    S    
H37   O19   S    
Cu2   N3    S    
C3    C5    A    
C2    C53   A    
C29   H40   S    
C46   H35   S    
C20   C27   A    
C49   O21   S    
C15   O29   A    
C35   H10   S    
C40   H19   S    
C7    C48   S    
C28   C30   A    
C8    C47   S    
C11   C50   S    
C17   O2    S    
C48   O18   D    
C38   O11   S    
C11   C13   S    
C44   O15   S    
C3    C54   A    
C18   C20   A    
C39   H18   S    
H34   N3    S    
Cu2   O27   S    
C40   H20   S    
H11   O8    S    
C15   O27   A    
C26   C29   A    
C8    C10   D    
C21   C24   A    
C11   N3    D    
C33   O6    S    
C32   H3    S    
H36   O17   S    
C1    O1    A    
C12   O12   A    
