data_mof_unit_19590.cif
_audit_creation_date              2012-12-10T17:18:53-0500
_audit_creation_method            fapswitch 2.2
_symmetry_space_group_name_H-M    P1
_symmetry_Int_Tables_number       1
_space_group_crystal_system       triclinic
_cell_length_a                    9.67182
_cell_length_b                    10.785894
_cell_length_c                    13.484159
_cell_angle_alpha                 94.317958
_cell_angle_beta                  74.675982
_cell_angle_gamma                 90.186897
_cell_volume                      1352.59261364

loop_
_atom_site_label
_atom_site_type_symbol
_atom_type_description
_atom_site_fract_x
_atom_site_fract_y
_atom_site_fract_z
_atom_type_partial_charge
C1    C     C_R   0.500447 0.738299 0.496848 0.837038
C2    C     C_R   0.420288 0.556371 0.984291 0.039641
C3    C     C_R   0.463904 0.565007 0.875842 -0.025366
C4    C     C_R   0.526523 0.579144 0.040755 -0.147923
C5    C     C_R   0.668895 0.608344 0.987380 0.031057
C6    C     C_R   0.691262 0.653689 0.889193 0.398725
C7    C     C_R   0.588243 0.631278 0.834392 -0.269004
C8    C     C_R   0.499320 0.570114 0.148028 0.467028
C9    C     C_R   0.751808 0.547188 0.133249 -0.282197
C10   C     C_R   0.379723 0.510999 0.812523 -0.064365
C11   C     C_R   0.275558 0.894217 0.434957 0.406935
C12   C     C_R   0.424150 0.505437 0.699236 0.780912
C13   C     C_R   0.148333 0.961409 0.439813 -0.054688
C14   C     C_R   0.116930 0.074350 0.502069 0.254347
C15   C     C_R   0.217835 0.122039 0.552457 0.423195
C16   C     C_R   0.356660 0.067613 0.527376 -0.119136
C17   C     C_R   0.376244 0.943347 0.486881 -0.056531
C18   C     C_R   0.495440 0.875336 0.501511 -0.087696
C19   C     C_R   0.597100 0.938813 0.543104 -0.198786
C20   C     C_R   0.589621 0.067381 0.562559 0.140014
C21   C     C_R   0.477634 0.133854 0.540896 -0.095378
C22   C     C_R   0.918098 0.361771 0.335250 0.433465
C23   C     C_R   0.492921 0.265737 0.516651 0.841884
C24   C     C_R   0.021276 0.335174 0.242730 -0.482022
C25   C     C_R   0.162847 0.328828 0.242068 0.417357
C26   C     C_R   0.201116 0.359119 0.333610 0.242243
C27   C     C_R   0.104116 0.430468 0.420091 0.019819
C28   C     C_R   0.954202 0.431092 0.420399 0.126025
C29   C     C_R   0.900482 0.568967 0.571389 -0.164828
C30   C     C_R   0.048772 0.570485 0.571129 0.510830
C31   C     C_R   0.575027 0.508914 0.301373 0.854326
C32   C     C_R   0.781765 0.593648 0.035716 0.172619
C33   C     C_R   0.610061 0.536009 0.191121 -0.168670
C34   C     C_R   0.250799 0.454487 0.857720 -0.213217
C35   C     C_R   0.199191 0.459214 0.963270 -0.262466
C36   C     C_R   0.276914 0.516658 0.027404 0.491223
Cu1   Cu    Cu3+1 0.359340 0.500010 0.500010 1.067296
Cu2   Cu    Cu3+1 0.640660 0.499990 0.499990 0.979350
H1    H     H_    0.839170 0.529512 0.166869 0.180718
H2    H     H_    0.823755 0.625977 0.629340 0.125100
H3    H     H_    0.989892 0.297828 0.175136 0.149020
H4    H     H_    0.186846 0.408944 0.811166 0.199720
H5    H     H_    0.095450 0.419768 0.995959 0.153842
H6    H     H_    0.606889 0.665684 0.758951 0.149207
H7    H     H_    0.680781 0.888263 0.563785 0.166890
N1    N     N_R   0.852480 0.498790 0.499000 -0.188190
N2    N     N_R   0.148360 0.498710 0.498970 -0.175636
O1    O     O_R   0.381190 0.680360 0.500010 -0.504743
O2    O     O_R   0.618760 0.680340 0.500000 -0.615076
O3    O     O_R   0.323240 0.499990 0.650990 -0.520169
O4    O     O_R   0.560820 0.499960 0.650980 -0.605530
O5    O     O_R   0.381240 0.319660 0.500000 -0.523694
O6    O     O_R   0.618810 0.319640 0.499990 -0.529918
O7    O     O_R   0.439180 0.500040 0.349020 -0.517577
O8    O     O_R   0.676760 0.500010 0.349010 -0.555706
O9    O     O_3   0.310894 0.789250 0.369030 -0.674779
H8    H     H_    0.221307 0.746975 0.364655 0.377246
N3    N     N_3   0.053016 0.912862 0.381404 -0.598000
H9    H     H_    0.951758 0.901538 0.431609 0.233732
H10   H     H_    0.045743 0.975464 0.327373 0.235177
O10   O     O_3   0.995174 0.144776 0.510165 -0.760059
H11   H     H_    0.946196 0.113466 0.457906 0.340127
O11   O     O_3   0.183933 0.219745 0.628017 -0.713198
H12   H     H_    0.081265 0.243151 0.642272 0.363299
N4    N     N_3   0.681720 0.124834 0.619534 -0.563688
H13   H     H_    0.742064 0.192873 0.578146 0.288837
H14   H     H_    0.617303 0.168538 0.687918 0.220272
O12   O     O_3   0.791562 0.300571 0.345524 -0.681370
H15   H     H_    0.786210 0.254402 0.280115 0.303811
O13   O     O_3   0.264324 0.275681 0.156929 -0.730178
H16   H     H_    0.219321 0.255000 0.099788 0.332190
N5    N     N_3   0.321081 0.288840 0.342104 -0.494171
H17   H     H_    0.294168 0.194865 0.341456 0.197578
H18   H     H_    0.408538 0.296770 0.277994 0.244019
O14   O     O_3   0.810982 0.722031 0.848884 -0.766846
H19   H     H_    0.797126 0.763332 0.788890 0.308942
O15   O     O_3   0.095876 0.646178 0.641933 -0.695906
H20   H     H_    0.016361 0.702390 0.680833 0.315102
N6    N     N_3   0.928301 0.618285 0.986342 -0.583483
H21   H     H_    0.956655 0.570867 0.913143 0.264742
H22   H     H_    0.939973 0.713898 0.979934 0.282395
O16   O     O_3   0.380066 0.626324 0.214120 -0.644272
H23   H     H_    0.352613 0.697456 0.180069 0.357475
O17   O     O_3   0.208683 0.539235 0.130070 -0.712348
H24   H     H_    0.103400 0.538219 0.139856 0.322039

loop_
_geom_bond_atom_site_label_1
_geom_bond_atom_site_label_2
_ccdc_geom_bond_type
C16   C21   A    
C26   N5    S    
C35   C36   A    
C34   H4    S    
C4    C8    A    
C6    O14   S    
Cu2   O2    S    
O15   H20   S    
C28   N1    A    
C26   C27   A    
Cu1   Cu2   S    
C8    O16   S    
C34   C35   A    
C3    C7    A    
C5    C6    A    
N3    H10   S    
C15   C16   A    
C9    H1    S    
O9    H8    S    
C18   C19   A    
C9    C32   A    
C30   O15   S    
Cu2   O8    S    
C19   C20   A    
C16   C17   A    
N4    H14   S    
C31   C33   S    
O13   H16   S    
Cu1   N2    S    
C35   H5    S    
C5    C32   A    
C22   C28   A    
C13   C14   A    
C9    C33   A    
C24   H3    S    
C23   O6    A    
C30   N2    A    
C24   C25   A    
N5    H18   S    
N6    H22   S    
Cu1   O5    S    
O12   H15   S    
C13   N3    S    
C25   C26   A    
C14   O10   S    
O11   H12   S    
C2    C4    A    
O14   H19   S    
C29   C30   A    
C20   N4    S    
C17   C18   A    
C1    C18   S    
C10   C34   A    
C7    H6    S    
O17   H24   S    
Cu1   O1    S    
C22   O12   S    
C10   C12   S    
Cu1   O7    S    
C27   N2    A    
N4    H13   S    
C21   C23   S    
C22   C24   A    
C12   O4    A    
C2    C36   A    
C11   C17   A    
N5    H17   S    
C12   O3    A    
C19   H7    S    
C1    O1    A    
C6    C7    A    
Cu2   O4    S    
C29   N1    A    
C2    C3    A    
N3    H9    S    
C3    C10   A    
C32   N6    S    
Cu1   O3    S    
C11   C13   A    
C23   O5    A    
Cu2   O6    S    
C36   O17   S    
C29   H2    S    
C8    C33   A    
C31   O7    A    
O10   H11   S    
Cu2   N1    S    
N6    H21   S    
C4    C5    A    
C20   C21   A    
O16   H23   S    
C27   C28   A    
C15   O11   S    
C14   C15   A    
C25   O13   S    
C31   O8    A    
C1    O2    A    
C11   O9    S    
