data_mof_unit_67238.cif
_audit_creation_date              2012-12-11T18:15:40-0500
_audit_creation_method            fapswitch 2.2
_symmetry_space_group_name_H-M    P1
_symmetry_Int_Tables_number       1
_space_group_crystal_system       triclinic
_cell_length_a                    20.11039
_cell_length_b                    19.986301
_cell_length_c                    8.330976
_cell_angle_alpha                 89.999897
_cell_angle_beta                  91.765539
_cell_angle_gamma                 90.000047
_cell_volume                      3346.89878785

loop_
_atom_site_label
_atom_site_type_symbol
_atom_type_description
_atom_site_fract_x
_atom_site_fract_y
_atom_site_fract_z
_atom_type_partial_charge
Ba1   Ba    Ba6+2 0.999980 0.452130 0.155200 1.643059
Ba2   Ba    Ba6+2 0.999980 0.547870 0.655200 1.643058
Ba3   Ba    Ba6+2 0.499980 0.952130 0.155200 1.643066
Ba4   Ba    Ba6+2 0.499980 0.047870 0.655200 1.643062
C1    C     C_3   0.949722 0.133864 0.381451 -0.183941
C2    C     C_R   0.111212 0.663693 0.181036 -0.288587
C3    C     C_R   0.611211 0.836306 0.681036 -0.288570
C4    C     C_R   0.611212 0.163692 0.181033 -0.288561
C5    C     C_R   0.124220 0.283365 0.577538 0.013446
C6    C     C_R   0.124219 0.716636 0.077539 0.013434
C7    C     C_R   0.624217 0.783362 0.577538 0.013416
C8    C     C_R   0.624219 0.216636 0.077536 0.013432
C9    C     C_R   0.172031 0.235533 0.621134 -0.130815
C10   C     C_R   0.172030 0.764468 0.121135 -0.130812
C11   C     C_R   0.672028 0.735530 0.621135 -0.130832
C12   C     C_3   0.949722 0.866130 0.881305 -0.184003
C13   C     C_R   0.672030 0.264468 0.121133 -0.130825
C14   C     C_R   0.209613 0.242182 0.765465 -0.000830
C15   C     C_R   0.209611 0.757819 0.265466 -0.000843
C16   C     C_R   0.709610 0.742180 0.765465 -0.000826
C17   C     C_R   0.709611 0.257819 0.265465 -0.000829
C18   C     C_R   0.200458 0.299036 0.864714 -0.037463
C19   C     C_R   0.200457 0.700965 0.364714 -0.037472
C20   C     C_R   0.700456 0.799034 0.864713 -0.037461
C21   C     C_R   0.700456 0.200966 0.364714 -0.037472
C22   C     C_R   0.799210 0.700619 0.946573 -0.028557
C23   C     C_3   0.449706 0.633876 0.381326 -0.183982
C24   C     C_R   0.799207 0.299383 0.446578 -0.028538
C25   C     C_R   0.299210 0.200620 0.946575 -0.028546
C26   C     C_R   0.299210 0.799381 0.446575 -0.028559
C27   C     C_R   0.789885 0.757324 0.046024 -0.003306
C28   C     C_R   0.789880 0.242680 0.546032 -0.003301
C29   C     C_R   0.289885 0.257324 0.046026 -0.003314
C30   C     C_R   0.289885 0.742676 0.546027 -0.003301
C31   C     C_R   0.849910 0.653299 0.990092 0.044043
C32   C     C_R   0.849907 0.346704 0.490097 0.044054
C33   C     C_R   0.349910 0.153298 0.990095 0.044041
C34   C     C_3   0.449705 0.366122 0.881373 -0.183969
C35   C     C_R   0.349910 0.846702 0.490094 0.044040
C36   C     C_R   0.888560 0.663457 0.130542 -0.289823
C37   C     C_R   0.888555 0.336547 0.630551 -0.289867
C38   C     C_R   0.388558 0.163456 0.130547 -0.289852
C39   C     C_R   0.388560 0.836543 0.630544 -0.289831
C40   C     C_3   0.023287 0.207092 0.921871 0.343452
C41   C     C_3   0.023263 0.792938 0.421735 0.343462
C42   C     C_3   0.523259 0.707059 0.921739 0.343449
C43   C     C_3   0.523271 0.292928 0.421790 0.343485
C44   C     C_R   0.875416 0.716327 0.234149 0.002816
C45   C     C_R   0.149956 0.346623 0.821244 0.033093
C46   C     C_R   0.875408 0.283679 0.734161 0.002821
C47   C     C_R   0.375414 0.216326 0.234153 0.002825
C48   C     C_R   0.375415 0.783673 0.734152 0.002805
C49   C     C_R   0.827271 0.763814 0.190730 -0.131074
C50   C     C_R   0.827263 0.236191 0.690743 -0.131116
C51   C     C_R   0.327271 0.263814 0.190733 -0.131074
C52   C     C_R   0.327270 0.736186 0.690734 -0.131081
C53   C     C_R   0.757490 0.693399 0.808301 -0.035593
C54   C     C_R   0.757489 0.306601 0.308302 -0.035590
C55   C     C_R   0.257491 0.193401 0.808302 -0.035597
C56   C     C_R   0.149955 0.653378 0.321244 0.033106
C57   C     C_R   0.257490 0.806600 0.308303 -0.035589
C58   C     C_3   0.055183 0.138390 0.939876 -0.308390
C59   C     C_3   0.055158 0.861637 0.439820 -0.308482
C60   C     C_3   0.555145 0.638355 0.939798 -0.308522
C61   C     C_3   0.555166 0.361629 0.439842 -0.308426
C62   C     C_3   0.810718 0.458173 0.818148 0.296131
C63   C     C_3   0.810723 0.541829 0.318151 0.296133
C64   C     C_3   0.310721 0.958172 0.818151 0.296132
C65   C     C_3   0.310721 0.041828 0.318150 0.296128
C66   C     C_3   0.747983 0.415634 0.805185 -0.358527
C67   C     C_R   0.649954 0.846622 0.821244 0.033104
C68   C     C_3   0.747989 0.584370 0.305188 -0.358525
C69   C     C_3   0.247987 0.915631 0.805188 -0.358522
C70   C     C_3   0.247986 0.084368 0.305187 -0.358509
C71   C     C_3   0.189502 0.542453 0.989549 0.305047
C72   C     C_3   0.189504 0.457548 0.489561 0.305069
C73   C     C_3   0.689504 0.042453 0.989548 0.305012
C74   C     C_3   0.689503 0.957548 0.489566 0.305034
C75   C     C_3   0.252352 0.583311 0.031259 -0.205633
C76   C     C_3   0.252356 0.416697 0.531291 -0.205638
C77   C     C_3   0.752355 0.083306 0.031283 -0.205665
C78   C     C_R   0.649955 0.153378 0.321243 0.033102
C79   C     C_3   0.752354 0.916698 0.531305 -0.205645
C80   C     C_3   0.980543 0.203410 0.402312 0.298135
C81   C     C_3   0.980524 0.796575 0.902127 0.298191
C82   C     C_3   0.480521 0.703425 0.402164 0.298208
C83   C     C_3   0.480525 0.296575 0.902213 0.298167
C84   C     C_R   0.241902 0.305972 0.003241 -0.042302
C85   C     C_R   0.241901 0.694029 0.503241 -0.042283
C86   C     C_R   0.741900 0.805971 0.003239 -0.042290
C87   C     C_R   0.741898 0.194031 0.503245 -0.042282
C88   C     C_2   0.308686 0.567475 0.922793 0.929781
C89   C     C_R   0.111214 0.336308 0.681034 -0.288540
C90   C     C_2   0.308684 0.432509 0.422789 0.929784
C91   C     C_2   0.808691 0.067476 0.922820 0.929823
C92   C     C_2   0.808685 0.932519 0.422818 0.929797
C93   C     C_2   0.990936 0.080992 0.465645 0.900784
C94   C     C_2   0.990908 0.918971 0.965708 0.900822
C95   C     C_2   0.490905 0.581017 0.465612 0.900855
C96   C     C_2   0.490906 0.418985 0.965639 0.900851
H1    H     H_    0.946453 0.240166 0.342494 0.070646
H2    H     H_    0.760383 0.636481 0.272322 0.055070
H3    H     H_    0.838936 0.945443 0.196427 0.349453
H4    H     H_    0.996899 0.011390 0.640624 0.328220
H5    H     H_    0.996793 0.988526 0.140809 0.328281
H6    H     H_    0.496836 0.511446 0.640665 0.328279
H7    H     H_    0.496845 0.488558 0.140685 0.328274
H8    H     H_    0.260381 0.863520 0.772319 0.055070
H9    H     H_    0.260380 0.136479 0.272316 0.055063
H10   H     H_    0.723054 0.414977 0.922302 0.136930
H11   H     H_    0.723058 0.585025 0.422302 0.136930
H12   H     H_    0.223057 0.914975 0.922304 0.136953
H13   H     H_    0.223057 0.085024 0.422303 0.136933
H14   H     H_    0.157728 0.541432 0.095752 -0.017579
H15   H     H_    0.157728 0.458572 0.595759 -0.017605
H16   H     H_    0.657724 0.041432 0.095739 -0.017576
H17   H     H_    0.946455 0.759840 0.842158 0.070819
H18   H     H_    0.657724 0.958573 0.595760 -0.017593
H19   H     H_    0.161960 0.567091 0.888586 0.068627
H20   H     H_    0.161966 0.432905 0.388601 0.068626
H21   H     H_    0.661970 0.067093 0.888578 0.068635
H22   H     H_    0.661967 0.932903 0.388604 0.068630
H23   H     H_    0.268206 0.573520 0.158176 0.087826
H24   H     H_    0.268219 0.426513 0.658190 0.087846
H25   H     H_    0.768206 0.073504 0.158198 0.087830
H26   H     H_    0.768211 0.926511 0.658210 0.087848
H27   H     H_    0.240723 0.637401 0.020053 -0.030369
H28   H     H_    0.446450 0.740170 0.342242 0.070776
H29   H     H_    0.240726 0.362606 0.520152 -0.030402
H30   H     H_    0.740728 0.137397 0.020101 -0.030365
H31   H     H_    0.740727 0.862607 0.520151 -0.030385
H32   H     H_    0.984689 0.215035 0.532657 -0.081211
H33   H     H_    0.984609 0.784909 0.032459 -0.081277
H34   H     H_    0.484623 0.715076 0.532500 -0.081274
H35   H     H_    0.484639 0.284929 0.032550 -0.081242
H36   H     H_    0.899119 0.134408 0.431560 0.035676
H37   H     H_    0.899090 0.865577 0.931269 0.035718
H38   H     H_    0.399091 0.634426 0.431372 0.035665
H39   H     H_    0.446450 0.259827 0.842314 0.070744
H40   H     H_    0.399094 0.365571 0.931436 0.035665
H41   H     H_    0.944404 0.121414 0.251689 0.125688
H42   H     H_    0.944470 0.878622 0.751551 0.125751
H43   H     H_    0.444416 0.621406 0.251570 0.125743
H44   H     H_    0.444408 0.378589 0.751618 0.125747
H45   H     H_    0.026274 0.101007 0.868106 0.164719
H46   H     H_    0.106814 0.860082 0.396519 0.064706
H47   H     H_    0.606792 0.639899 0.896409 0.064701
H48   H     H_    0.606836 0.360060 0.396629 0.064654
H49   H     H_    0.073379 0.372462 0.646381 0.067052
H50   H     H_    0.713218 0.436541 0.711897 0.144282
H51   H     H_    0.073378 0.627539 0.146382 0.067060
H52   H     H_    0.573377 0.872460 0.646381 0.067060
H53   H     H_    0.573379 0.127538 0.146379 0.067059
H54   H     H_    0.180825 0.194077 0.540760 0.081601
H55   H     H_    0.180825 0.805924 0.040760 0.081631
H56   H     H_    0.680823 0.694074 0.540761 0.081605
H57   H     H_    0.680824 0.305924 0.040758 0.081601
H58   H     H_    0.817940 0.804673 0.271996 0.099511
H59   H     H_    0.817932 0.195333 0.772011 0.099526
H60   H     H_    0.317942 0.304675 0.271996 0.099465
H61   H     H_    0.713225 0.563467 0.211894 0.144276
H62   H     H_    0.317939 0.695328 0.772001 0.099509
H63   H     H_    0.926332 0.627234 0.165206 0.067317
H64   H     H_    0.926327 0.372769 0.665213 0.067327
H65   H     H_    0.426329 0.127232 0.165212 0.067321
H66   H     H_    0.426331 0.872767 0.665209 0.067319
H67   H     H_    0.237117 0.348830 0.080271 0.153105
H68   H     H_    0.237115 0.651171 0.580272 0.153136
H69   H     H_    0.737115 0.848829 0.080269 0.153132
H70   H     H_    0.737112 0.151173 0.580277 0.153132
H71   H     H_    0.761650 0.650127 0.731669 0.101817
H72   H     H_    0.213222 0.936535 0.711897 0.144265
H73   H     H_    0.761650 0.349872 0.231668 0.101809
H74   H     H_    0.261651 0.150129 0.731669 0.101814
H75   H     H_    0.261650 0.849872 0.231670 0.101823
H76   H     H_    0.053299 0.243198 0.995148 0.086686
H77   H     H_    0.053313 0.756807 0.494843 0.086490
H78   H     H_    0.553315 0.743184 0.994853 0.086502
H79   H     H_    0.553308 0.256807 0.494959 0.086556
H80   H     H_    0.024267 0.221689 0.793387 -0.058839
H81   H     H_    0.024183 0.778397 0.293210 -0.058787
H82   H     H_    0.524179 0.721606 0.793219 -0.058792
H83   H     H_    0.213221 0.063464 0.211897 0.144297
H84   H     H_    0.524213 0.278366 0.293282 -0.058824
H85   H     H_    0.106888 0.139992 0.896806 0.064661
H86   H     H_    0.056566 0.877139 0.567852 0.162905
H87   H     H_    0.556586 0.622863 0.067844 0.162960
H88   H     H_    0.556539 0.377158 0.567856 0.162992
H89   H     H_    0.056491 0.122816 0.067898 0.163071
H90   H     H_    0.026198 0.899045 0.368327 0.164778
H91   H     H_    0.526157 0.600947 0.868360 0.164862
H92   H     H_    0.526228 0.399023 0.368255 0.164787
H93   H     H_    0.833131 0.461224 0.698862 0.009324
H94   H     H_    0.760374 0.363523 0.772311 0.055069
H95   H     H_    0.833137 0.538779 0.198867 0.009319
H96   H     H_    0.333135 0.961222 0.698865 0.009320
H97   H     H_    0.333134 0.038777 0.198864 0.009321
H98   H     H_    0.846068 0.434142 0.905408 0.067710
H99   H     H_    0.846072 0.565858 0.405416 0.067727
H100  H     H_    0.346071 0.934142 0.905413 0.067724
H101  H     H_    0.346071 0.065857 0.405412 0.067718
H102  H     H_    0.338949 0.554550 0.696413 0.349393
H103  H     H_    0.338924 0.445459 0.196400 0.349417
H104  H     H_    0.838964 0.054573 0.696440 0.349395
O1    O     O_2   0.130070 0.404060 0.104920 -0.458756
O2    O     O_3   0.957754 0.795591 0.475638 -0.577899
O3    O     O_3   0.457750 0.704410 0.975650 -0.577897
O4    O     O_3   0.457753 0.295592 0.475627 -0.577856
O5    O     O_3   0.924190 0.533610 0.949240 -0.494470
O6    O     O_3   0.924190 0.466390 0.449240 -0.494474
O7    O     O_3   0.424190 0.033610 0.949240 -0.494472
O8    O     O_3   0.424190 0.966390 0.449240 -0.494473
O9    O     O_3   0.075780 0.466370 0.861070 -0.496649
O10   O     O_3   0.075780 0.533630 0.361070 -0.496646
O11   O     O_3   0.575780 0.966370 0.861070 -0.496648
O12   O     O_2   0.130070 0.595940 0.604920 -0.458764
O13   O     O_3   0.575780 0.033630 0.361070 -0.496642
O14   O     O_3   0.022320 0.344950 0.359800 -0.486844
O15   O     O_3   0.022320 0.655050 0.859800 -0.486867
O16   O     O_3   0.522320 0.844950 0.359800 -0.486858
O17   O     O_3   0.522320 0.155050 0.859800 -0.486856
O18   O     O_2   0.131981 0.291667 0.245366 -0.491722
O19   O     O_2   0.131988 0.708323 0.745374 -0.491670
O20   O     O_2   0.631983 0.791672 0.245369 -0.491669
O21   O     O_2   0.631981 0.208331 0.745365 -0.491692
O22   O     O_3   0.207221 0.477383 0.945820 -0.618370
O23   O     O_2   0.630070 0.904060 0.104920 -0.458748
O24   O     O_3   0.207221 0.522618 0.445817 -0.618347
O25   O     O_3   0.707222 0.977382 0.945818 -0.618381
O26   O     O_3   0.707220 0.022617 0.445818 -0.618367
O27   O     O_3   0.043032 0.205155 0.331014 -0.580790
O28   O     O_3   0.043047 0.794845 0.830986 -0.580775
O29   O     O_3   0.543035 0.705155 0.330985 -0.580769
O30   O     O_3   0.543033 0.294845 0.831002 -0.580779
O31   O     O_2   0.869860 0.403670 0.205810 -0.468337
O32   O     O_2   0.869860 0.596330 0.705810 -0.468340
O33   O     O_2   0.369860 0.903670 0.205810 -0.468335
O34   O     O_2   0.630070 0.095940 0.604920 -0.458774
O35   O     O_2   0.369860 0.096330 0.705810 -0.468339
O36   O     O_3   0.977590 0.344880 0.951200 -0.492486
O37   O     O_3   0.977590 0.655120 0.451200 -0.492460
O38   O     O_3   0.477590 0.844880 0.951200 -0.492452
O39   O     O_3   0.477590 0.155120 0.451200 -0.492474
O40   O     O_2   0.868954 0.290136 0.067671 -0.488152
O41   O     O_2   0.868949 0.709856 0.567650 -0.488187
O42   O     O_2   0.368947 0.790147 0.067651 -0.488180
O43   O     O_2   0.368950 0.209858 0.567657 -0.488170
O44   O     O_2   0.364119 0.555895 0.980446 -0.575736
O45   O     O_3   0.793112 0.477856 0.369885 -0.634002
O46   O     O_R   0.297362 0.565633 0.756611 -0.774269
O47   O     O_2   0.364134 0.444026 0.480401 -0.575714
O48   O     O_R   0.297339 0.434399 0.256623 -0.774210
O49   O     O_2   0.864122 0.055892 0.980480 -0.575668
O50   O     O_R   0.797375 0.065647 0.756634 -0.774273
O51   O     O_2   0.864123 0.944089 0.480451 -0.575703
O52   O     O_R   0.797352 0.934365 0.256640 -0.774249
O53   O     O_2   0.046523 0.067720 0.419299 -0.607920
O54   O     O_R   0.965073 0.046469 0.595467 -0.735910
O55   O     O_2   0.046529 0.932242 0.919559 -0.607847
O56   O     O_3   0.793111 0.522146 0.869889 -0.634000
O57   O     O_R   0.964981 0.953464 0.095501 -0.735909
O58   O     O_2   0.546499 0.567732 0.419330 -0.607876
O59   O     O_R   0.465020 0.546520 0.595446 -0.735987
O60   O     O_2   0.546495 0.432273 0.919335 -0.607891
O61   O     O_R   0.465028 0.453481 0.095482 -0.735921
O62   O     O_3   0.293112 0.977855 0.369887 -0.633997
O63   O     O_3   0.293112 0.022145 0.869887 -0.634000
O64   O     O_3   0.957751 0.204404 0.975593 -0.577899
P1    P     P_3+3 0.136530 0.426510 0.931350 0.991377
P2    P     P_3+3 0.918809 0.719092 0.431862 0.955132
P3    P     P_3+3 0.418807 0.780909 0.931866 0.955143
P4    P     P_3+3 0.418808 0.219092 0.431864 0.955173
P5    P     P_3+3 0.081461 0.718632 0.879161 0.957260
P6    P     P_3+3 0.081458 0.281365 0.379166 0.957201
P7    P     P_3+3 0.581457 0.218635 0.879162 0.957233
P8    P     P_3+3 0.581458 0.781365 0.379160 0.957258
P9    P     P_3+3 0.136530 0.573490 0.431350 0.991395
P10   P     P_3+3 0.636530 0.926510 0.931350 0.991384
P11   P     P_3+3 0.636530 0.073490 0.431350 0.991381
P12   P     P_3+3 0.863410 0.426100 0.379280 0.972451
P13   P     P_3+3 0.863410 0.573900 0.879280 0.972443
P14   P     P_3+3 0.363410 0.926100 0.379280 0.972446
P15   P     P_3+3 0.363410 0.073900 0.879280 0.972445
P16   P     P_3+3 0.918807 0.280908 0.931864 0.955162

loop_
_geom_bond_atom_site_label_1
_geom_bond_atom_site_label_2
_ccdc_geom_bond_type
C94   O55   D    
C29   C51   A    
C1    H36   S    
Ba2   O12   S    
C41   O2    S    
C80   H1    S    
C25   C29   A    
C10   H55   S    
C72   O24   S    
O12   P9    D    
C42   H78   S    
C89   H49   S    
C78   P11   S    
C57   H75   S    
C55   H74   S    
C90   O47   D    
C72   H15   S    
Ba2   P9    S    
O56   P13   S    
C88   O44   D    
C41   H81   S    
C40   O64   S    
C62   C66   S    
C9    H54   S    
C65   H101  S    
C23   C95   S    
C49   H58   S    
C46   C50   A    
Ba4   O7    S    
C20   C86   A    
C43   O4    S    
O64   P16   S    
C4    C78   A    
O31   P12   D    
C53   H71   S    
C74   H18   S    
C29   C84   A    
C15   C57   A    
Ba1   Ba2   S    
C62   O56   S    
O22   P1    S    
C3    C67   A    
C77   C91   S    
C39   C48   A    
C28   C87   A    
O16   P8    S    
C96   O61   S    
C35   P14   S    
Ba4   O17   S    
C72   H20   S    
C52   H62   S    
O25   P10   S    
O15   P5    S    
Ba4   P15   S    
O5    P13   S    
O37   P2    S    
C16   C53   A    
C63   C68   S    
C27   C86   A    
C33   C38   A    
C80   O27   S    
C5    C9    A    
O39   P4    S    
C32   P12   S    
C64   O63   S    
C75   H27   S    
C66   H10   S    
C50   H59   S    
C7    C11   A    
C74   C79   S    
C82   H34   S    
Ba3   P14   S    
O3    P3    S    
C16   C20   A    
C95   O58   D    
Ba3   O16   S    
O4    P4    S    
O11   P10   S    
C66   H50   S    
C8    C13   A    
H7    O61   S    
C23   H43   S    
C68   H61   S    
C19   C85   A    
C82   H28   S    
Ba1   O14   S    
C18   C84   A    
C4    C8    A    
Ba2   P13   S    
C73   H16   S    
C13   H57   S    
C31   C36   A    
C33   P15   S    
C59   H46   S    
C38   H65   S    
C41   H77   S    
C38   C47   A    
C60   H91   S    
C66   H94   S    
O62   P14   S    
C61   H88   S    
C95   O59   S    
C22   C27   A    
O14   P6    S    
Ba4   O11   S    
C47   P4    S    
C65   H97   S    
H3    O52   S    
O21   P7    D    
C2    C56   A    
C40   H80   S    
C32   C37   A    
C44   C49   A    
C81   O28   S    
O8    P14   S    
C70   H9    S    
C63   H95   S    
O28   P5    S    
C8    P7    S    
C28   C50   A    
O23   P10   D    
C93   O54   S    
C3    C7    A    
C58   H89   S    
Ba1   O36   S    
Ba3   O7    S    
C42   O3    S    
O20   P8    D    
O1    P1    D    
Ba2   O6    S    
C82   O29   S    
C21   C87   A    
C26   C30   A    
O40   P16   D    
C93   O53   D    
C67   P10   S    
C25   C55   A    
C5    P6    S    
C24   C28   A    
C71   H19   S    
C92   O52   S    
Ba1   P12   S    
C34   C96   S    
O34   P11   D    
C6    C10   A    
C44   P2    S    
C65   O62   S    
C1    C80   S    
C15   C19   A    
C69   H8    S    
C35   C39   A    
C70   H83   S    
C40   C58   S    
C23   H38   S    
O29   P8    S    
Ba1   O5    S    
C41   C59   S    
O6    P12   S    
O30   P7    S    
C31   P13   S    
O27   P6    S    
C46   P16   S    
C11   C16   A    
C61   H48   S    
Ba3   O38   S    
O18   P6    D    
C23   C82   S    
C12   H42   S    
C85   H68   S    
C79   H31   S    
C4    H53   S    
C83   H35   S    
H104  O50   S    
C14   C55   A    
C1    H41   S    
O19   P5    D    
C61   H92   S    
C73   C77   S    
C5    C89   A    
Ba3   O13   S    
C84   H67   S    
C11   H56   S    
C58   H45   S    
C65   C70   S    
C64   H96   S    
C71   H14   S    
H4    O54   S    
C27   C49   A    
C69   H72   S    
C81   H17   S    
O33   P14   D    
C83   O30   S    
C91   O50   S    
C75   C88   S    
C62   H98   S    
C43   H79   S    
C36   H63   S    
C18   C45   A    
O35   P15   D    
C2    H51   S    
C9    C14   A    
Ba2   O32   S    
C51   H60   S    
H102  O46   S    
C1    C93   S    
O42   P3    D    
C88   O46   S    
C56   P9    S    
O2    P2    S    
C60   H47   S    
C12   C81   S    
O10   P9    S    
C54   H73   S    
O7    P15   S    
C37   H64   S    
C6    P5    S    
C25   C33   A    
Ba3   Ba4   S    
C59   H90   S    
Ba3   O23   S    
C37   C46   A    
C62   H93   S    
Ba1   O1    S    
C69   H12   S    
C76   H24   S    
C39   H66   S    
Ba3   O8    S    
C36   C44   A    
C17   C21   A    
Ba2   O5    S    
Ba4   O34   S    
C76   H29   S    
Ba4   O39   S    
C87   H70   S    
C77   H25   S    
Ba1   O6    S    
C14   C18   A    
C34   H44   S    
C10   C15   A    
Ba3   O33   S    
C71   O22   S    
C96   O60   D    
O32   P13   D    
C40   H76   S    
C92   O51   D    
C83   H39   S    
C43   H84   S    
Ba3   P10   S    
C90   O48   S    
C2    C6    A    
C72   C76   S    
C24   C54   A    
O24   P9    S    
C74   O26   S    
O63   P15   S    
O26   P11   S    
C73   O25   S    
Ba4   O8    S    
O45   P12   S    
C34   C83   S    
C64   H100  S    
O38   P3    S    
C42   H82   S    
C12   H37   S    
O41   P2    D    
C64   C69   S    
C30   C85   A    
C17   C54   A    
C71   C75   S    
O43   P4    D    
C70   H13   S    
C94   O57   S    
C12   C94   S    
C77   H30   S    
C21   C78   A    
C75   H23   S    
Ba1   O31   S    
C30   C52   A    
C79   C92   S    
C86   H69   S    
H6    O59   S    
Ba4   O35   S    
C80   H32   S    
C26   C35   A    
O17   P7    S    
C63   H99   S    
C47   C51   A    
C91   O49   D    
C74   H22   S    
C22   C53   A    
C13   C17   A    
C7    P8    S    
C68   H11   S    
C60   H87   S    
C73   H21   S    
C68   H2    S    
C58   H85   S    
C3    H52   S    
C48   P3    S    
C22   C31   A    
O13   P11   S    
C59   H86   S    
Ba1   P1    S    
C24   C32   A    
Ba2   O9    S    
H5    O57   S    
Ba2   O15   S    
O36   P16   S    
C26   C57   A    
O9    P1    S    
Ba1   O10   S    
Ba4   P11   S    
C34   H40   S    
C79   H26   S    
C42   C60   S    
C45   C89   A    
Ba2   O37   S    
H103  O48   S    
C76   C90   S    
C43   C61   S    
C19   C56   A    
C48   C52   A    
C20   C67   A    
C81   H33   S    
C63   O45   S    
C45   P1    S    
