data_mof_unit_21733.cif
_audit_creation_date              2012-12-10T19:01:54-0500
_audit_creation_method            fapswitch 2.2
_symmetry_space_group_name_H-M    P1
_symmetry_Int_Tables_number       1
_space_group_crystal_system       triclinic
_cell_length_a                    11.67384
_cell_length_b                    10.897159
_cell_length_c                    9.658582
_cell_angle_alpha                 89.170797
_cell_angle_beta                  89.696798
_cell_angle_gamma                 91.574133
_cell_volume                      1228.07234521

loop_
_atom_site_label
_atom_site_type_symbol
_atom_type_description
_atom_site_fract_x
_atom_site_fract_y
_atom_site_fract_z
_atom_type_partial_charge
C1    C     C_R   0.500448 0.262336 0.500672 0.829786
C2    C     C_R   0.500765 0.128038 0.499922 -0.138430
C3    C     C_R   0.467720 0.065836 0.379609 -0.221759
C4    C     C_R   0.451780 0.938333 0.379345 0.453212
C5    C     C_R   0.485607 0.869764 0.496846 -0.139140
C6    C     C_R   0.513438 0.931668 0.617902 -0.141215
C7    C     C_3   0.444057 0.925240 0.748834 0.219266
C8    C     C_3   0.460301 0.064148 0.755529 0.681437
C9    C     C_R   0.598786 0.525080 0.071650 0.167122
C10   C     C_R   0.405268 0.462718 0.075669 0.426548
C11   C     C_R   0.403915 0.465673 0.926954 0.461086
C12   C     C_R   0.284341 0.499521 0.500255 0.838021
C13   C     C_R   0.597471 0.526467 0.925362 0.175635
C14   C     C_3   0.669019 0.640403 0.912596 -0.512012
C15   C     C_3   0.673055 0.640659 0.070143 0.161873
C16   C     C_R   0.492751 0.736621 0.498861 0.855299
C17   C     C_R   0.715617 0.498767 0.499949 0.825202
C18   C     C_1   0.162544 0.498301 0.500552 -0.115043
C19   C     C_1   0.059912 0.497213 0.500678 0.038000
C20   C     C_1   0.940011 0.496433 0.500738 0.091445
C21   C     C_1   0.837392 0.496810 0.500424 -0.035627
C22   C     C_R   0.522527 0.059157 0.619939 0.025172
Cu1   Cu    Cu3+1 0.499990 0.499980 0.640670 1.034121
Cu2   Cu    Cu3+1 0.500010 0.500020 0.359330 1.052806
H1    H     H_    0.444695 0.117055 0.288689 0.205043
H2    H     H_    0.621173 0.718072 0.868109 0.165580
H3    H     H_    0.631436 0.720261 0.116625 0.145789
H4    H     H_    0.487644 0.874122 0.833404 0.087984
H5    H     H_    0.751314 0.622881 0.859200 0.250379
N1    N     N_R   0.500710 0.500930 0.147930 -0.276795
N2    N     N_R   0.500710 0.500890 0.852020 -0.233654
O1    O     O_R   0.500000 0.319640 0.618810 -0.493538
O2    O     O_R   0.500010 0.319680 0.381230 -0.602323
O3    O     O_R   0.337190 0.499990 0.618790 -0.546363
O4    O     O_R   0.337200 0.500030 0.381210 -0.504336
O5    O     O_R   0.499990 0.680320 0.618770 -0.606016
O6    O     O_R   0.500000 0.680360 0.381190 -0.549384
O7    O     O_R   0.662800 0.499970 0.618790 -0.585308
O8    O     O_R   0.662810 0.500010 0.381210 -0.520389
S1    S     S_3+6 0.815500 0.620968 0.134928 0.043970
O9    O     O_2   0.837616 0.487088 0.158750 -0.233554
O10   O     O_2   0.903236 0.673379 0.034292 -0.275055
O11   O     O_3   0.828924 0.696154 0.284903 -0.520570
H6    H     H_    0.813189 0.782827 0.261400 0.352927
S2    S     S_3+6 0.365625 0.874384 0.246163 0.023816
O12   O     O_2   0.289770 0.772252 0.304480 -0.277512
O13   O     O_2   0.291052 0.971140 0.184795 -0.307209
O14   O     O_3   0.449403 0.820386 0.120520 -0.564411
H7    H     H_    0.411557 0.742623 0.091359 0.332985
O15   O     O_3   0.328970 0.889329 0.719650 -0.536731
C23   C     C_3   0.291592 0.793317 0.809342 -0.259841
H8    H     H_    0.349208 0.714065 0.805019 0.165526
H9    H     H_    0.205242 0.760942 0.776243 0.198218
H10   H     H_    0.284234 0.825917 0.917225 0.197981
O16   O     O_3   0.358423 0.131175 0.739507 -0.575262
C24   C     C_3   0.293388 0.131096 0.862231 -0.059221
H11   H     H_    0.331066 0.199669 0.931651 0.183974
H12   H     H_    0.287701 0.040318 0.915316 0.185970
H13   H     H_    0.205147 0.159017 0.837230 0.174717
S3    S     S_3+6 0.557364 0.113474 0.890189 -0.011621
O17   O     O_2   0.574479 0.250212 0.884693 -0.262408
O18   O     O_2   0.510218 0.076199 0.029933 -0.321447
O19   O     O_3   0.685352 0.048870 0.867945 -0.510440
H14   H     H_    0.675866 0.964484 0.906584 0.347461
O20   O     O_3   0.305692 0.429762 0.146002 -0.562498
C25   C     C_3   0.300838 0.302262 0.173634 -0.155895
H15   H     H_    0.284896 0.285909 0.285724 0.179511
H16   H     H_    0.379795 0.253795 0.144679 0.159637
H17   H     H_    0.226457 0.260866 0.118724 0.155590
O21   O     O_3   0.307878 0.422527 0.857143 -0.560370
C26   C     C_3   0.208287 0.486613 0.893398 -0.201366
H18   H     H_    0.160912 0.509604 0.797847 0.167729
H19   H     H_    0.225211 0.574096 0.948943 0.143542
H20   H     H_    0.150727 0.425885 0.957383 0.212383

loop_
_geom_bond_atom_site_label_1
_geom_bond_atom_site_label_2
_ccdc_geom_bond_type
C2    C22   A    
C26   H20   S    
C25   H16   S    
O11   H6    S    
O21   C26   S    
C23   H8    S    
Cu1   O5    S    
C17   C21   S    
Cu1   O7    S    
C10   N1    A    
C15   H3    S    
Cu2   O2    S    
C24   H13   S    
C3    H1    S    
C16   O6    A    
Cu1   Cu2   S    
Cu1   O3    S    
Cu1   O1    S    
C23   H10   S    
O16   C24   S    
S1    O10   D    
O15   C23   S    
C9    C15   S    
C11   O21   S    
C11   N2    A    
C26   H18   S    
C17   O7    A    
C13   C14   S    
C14   H2    S    
C12   O4    A    
C16   O5    A    
C9    N1    A    
S3    O17   D    
S3    O19   S    
C8    O16   S    
S1    O9    D    
C24   H12   S    
C1    C2    S    
C6    C7    S    
C2    C3    A    
C4    S2    S    
S2    O13   D    
C5    C6    A    
Cu2   N1    S    
C15   S1    S    
S2    O14   S    
C25   H17   S    
C10   C11   A    
C1    O2    A    
C14   H5    S    
C12   O3    A    
O19   H14   S    
Cu2   O4    S    
C7    C8    S    
Cu2   O8    S    
C25   H15   S    
C24   H11   S    
S3    O18   D    
O20   C25   S    
C17   O8    A    
C10   O20   S    
C12   C18   S    
Cu2   O6    S    
C26   H19   S    
C18   C19   T    
C9    C13   A    
C14   C15   S    
O14   H7    S    
C5    C16   S    
C7    H4    S    
C20   C21   T    
S2    O12   D    
C8    C22   S    
C13   N2    A    
C1    O1    A    
C8    S3    S    
C3    C4    A    
C19   C20   S    
C7    O15   S    
Cu1   N2    S    
C4    C5    A    
C23   H9    S    
S1    O11   S    
C6    C22   A    
