data_mof_unit_12813.cif
_audit_creation_date              2012-12-10T19:50:13-0500
_audit_creation_method            fapswitch 2.2
_symmetry_space_group_name_H-M    P1
_symmetry_Int_Tables_number       1
_space_group_crystal_system       triclinic
_cell_length_a                    10.851977
_cell_length_b                    19.313992
_cell_length_c                    18.02824
_cell_angle_alpha                 89.629597
_cell_angle_beta                  91.464426
_cell_angle_gamma                 90.311316
_cell_volume                      3777.26336208

loop_
_atom_site_label
_atom_site_type_symbol
_atom_type_description
_atom_site_fract_x
_atom_site_fract_y
_atom_site_fract_z
_atom_type_partial_charge
C1    C     C_R   0.498319 0.367159 0.500210 0.790598
C2    C     C_R   0.501057 0.632828 0.499796 0.793773
C3    C     C_R   0.872064 0.501220 0.503270 -0.119267
C4    C     C_R   0.128248 0.499832 0.496822 -0.145822
C5    C     C_R   0.942874 0.479534 0.566214 0.085979
C6    C     C_R   0.057916 0.522565 0.434304 0.038077
C7    C     C_R   0.450565 0.255940 0.563634 -0.067918
C8    C     C_R   0.548106 0.744423 0.437025 -0.062520
C9    C     C_R   0.443887 0.183362 0.565428 0.008214
C10   C     C_R   0.552615 0.817051 0.435275 0.008487
C11   C     C_R   0.481658 0.145844 0.502713 -0.026398
C12   C     C_R   0.511537 0.854158 0.497466 -0.026046
C13   C     C_R   0.519980 0.181726 0.439303 -0.129625
C14   C     C_R   0.471654 0.817922 0.560268 -0.121810
C15   C     C_R   0.525152 0.253704 0.438277 -0.189248
C16   C     C_R   0.468471 0.745916 0.561226 -0.180912
C17   C     C_R   0.492288 0.291222 0.500807 -0.077552
C18   C     C_R   0.505122 0.708761 0.499264 -0.073528
C19   C     C_R   0.505460 0.930150 0.498263 0.377873
C20   C     C_R   0.486710 0.069789 0.502105 0.378021
C21   C     C_R   0.548433 0.554937 0.278662 0.122676
C22   C     C_R   0.453993 0.444334 0.721282 0.110595
C23   C     C_R   0.261872 0.499663 0.498837 0.775583
C24   C     C_R   0.738246 0.500606 0.501179 0.792159
C25   C     C_R   0.548116 0.556278 0.200580 -0.186391
C26   C     C_R   0.451444 0.443562 0.799296 -0.283296
C27   C     C_R   0.499313 0.500215 0.159636 0.056933
C28   C     C_R   0.493746 0.501170 0.840205 0.042281
C29   C     C_R   0.451851 0.443868 0.199962 -0.314788
C30   C     C_R   0.537023 0.558589 0.799878 -0.322608
C31   C     C_R   0.451638 0.445178 0.277951 0.066684
C32   C     C_R   0.541787 0.556414 0.722068 0.057056
C33   C     C_R   0.494091 0.501155 0.923760 0.428823
C34   C     C_R   0.497619 0.500523 0.076057 0.452022
C35   C     C_R   0.209290 0.627883 0.279918 -0.079212
C36   C     C_R   0.789988 0.377586 0.722701 -0.120990
C37   C     C_R   0.171976 0.607440 0.352120 -0.058251
C38   C     C_R   0.829861 0.396001 0.650498 -0.041828
C39   C     C_R   0.111044 0.542934 0.361714 -0.148763
C40   C     C_R   0.891738 0.459981 0.639686 -0.118285
C41   C     C_R   0.083052 0.501184 0.299341 0.398184
C42   C     C_R   0.924053 0.501709 0.701323 0.345148
C43   C     C_R   0.109528 0.524604 0.227756 0.346646
C44   C     C_R   0.889727 0.481614 0.773283 0.378030
C45   C     C_R   0.174271 0.587228 0.217372 -0.198107
C46   C     C_R   0.823026 0.419599 0.784405 -0.187554
C47   C     C_R   0.930482 0.522763 0.438690 -0.151124
C48   C     C_R   0.069849 0.477014 0.560651 -0.191018
Cu1   Cu    Cu3+1 0.499990 0.499980 0.573360 0.945037
Cu2   Cu    Cu3+1 0.500010 0.500020 0.426640 0.951187
H1    H     H_    0.556733 0.279957 0.388941 0.155255
H2    H     H_    0.435503 0.719326 0.610025 0.148595
H3    H     H_    0.587839 0.598193 0.308887 0.134368
H4    H     H_    0.418573 0.400046 0.691120 0.141647
H5    H     H_    0.586381 0.600940 0.172624 0.173578
H6    H     H_    0.416087 0.398108 0.827211 0.169778
H7    H     H_    0.414032 0.399055 0.171530 0.149190
H8    H     H_    0.568818 0.604833 0.828231 0.152738
H9    H     H_    0.412880 0.401745 0.307520 0.113872
H10   H     H_    0.578457 0.600579 0.692728 0.133489
H11   H     H_    0.876490 0.540142 0.390686 0.172559
H12   H     H_    0.123909 0.456971 0.607284 0.149980
H13   H     H_    0.420153 0.285294 0.610722 0.187283
H14   H     H_    0.581002 0.715337 0.390374 0.187629
H15   H     H_    0.548890 0.153823 0.390842 0.157357
H16   H     H_    0.440166 0.845559 0.608285 0.155613
N1    N     N_R   0.449901 0.034304 0.440660 -0.222152
N2    N     N_R   0.542197 0.965615 0.559721 -0.219784
N3    N     N_R   0.458272 0.965650 0.438982 -0.223486
N4    N     N_R   0.533857 0.034267 0.561386 -0.223159
N5    N     N_R   0.500010 0.500050 0.316380 -0.172431
N6    N     N_R   0.499990 0.499950 0.683620 -0.169597
N7    N     N_R   0.453244 0.445356 0.036801 -0.250983
N8    N     N_R   0.538347 0.556347 0.963016 -0.233979
N9    N     N_R   0.451621 0.445635 0.962604 -0.234381
N10   N     N_R   0.540052 0.556048 0.037211 -0.197712
O1    O     O_R   0.500010 0.400130 0.561970 -0.577457
O2    O     O_R   0.499990 0.599870 0.438030 -0.579042
O3    O     O_R   0.500020 0.400160 0.438070 -0.595360
O4    O     O_R   0.499980 0.599840 0.561930 -0.596577
O5    O     O_R   0.319640 0.499990 0.561950 -0.589514
O6    O     O_R   0.680360 0.500010 0.438050 -0.579483
O7    O     O_R   0.319650 0.500020 0.438050 -0.586315
O8    O     O_R   0.680350 0.499980 0.561950 -0.571870
C49   C     C_2   0.201937 0.608736 0.139991 0.341552
H17   H     H_    0.141044 0.592864 0.094451 0.131017
O9    O     O_2   0.295102 0.641297 0.125548 -0.551434
C50   C     C_2   0.784915 0.399651 0.860595 0.398761
H18   H     H_    0.703481 0.367961 0.868554 0.053198
O10   O     O_2   0.844454 0.417828 0.915531 -0.495364
C51   C     C_2   0.279711 0.693060 0.268931 0.578384
H19   H     H_    0.253747 0.728566 0.224435 0.097598
O11   O     O_2   0.369445 0.706677 0.308376 -0.529547
C52   C     C_2   0.715314 0.313945 0.734797 0.474360
H20   H     H_    0.733505 0.281150 0.782865 0.056683
O12   O     O_2   0.630198 0.298793 0.692374 -0.515957
C53   C     C_2   0.185865 0.655077 0.416817 0.465480
H21   H     H_    0.193791 0.634754 0.472807 0.035851
O13   O     O_2   0.182922 0.717862 0.408796 -0.521203
C54   C     C_2   0.816856 0.346913 0.587067 0.468793
H22   H     H_    0.809455 0.365923 0.530522 0.028669
O14   O     O_2   0.820310 0.284341 0.596853 -0.509923
O15   O     O_3   0.015242 0.440592 0.306308 -0.546106
C55   C     C_3   0.091920 0.387396 0.335278 0.081686
H23   H     H_    0.097680 0.390171 0.396725 0.157035
H24   H     H_    0.187095 0.389665 0.313515 0.099502
C56   C     C_3   0.036043 0.317643 0.314370 -0.748638
H25   H     H_    0.029659 0.312796 0.253031 0.249413
H26   H     H_    0.094791 0.275330 0.337322 0.200906
H27   H     H_    0.942341 0.312615 0.337285 0.255398
O16   O     O_3   0.982328 0.564941 0.689148 -0.575398
C57   C     C_3   0.102876 0.565454 0.721261 0.122252
H28   H     H_    0.148387 0.513872 0.719811 0.125601
H29   H     H_    0.100498 0.582901 0.779711 0.197091
C58   C     C_3   0.182062 0.617111 0.679409 -0.762303
H30   H     H_    0.144268 0.670100 0.684885 0.245409
H31   H     H_    0.277897 0.616442 0.702522 0.206014
H32   H     H_    0.183512 0.603742 0.619716 0.255210
O17   O     O_3   0.059235 0.489200 0.167521 -0.553613
C59   C     C_3   0.147224 0.442851 0.140446 0.033762
H33   H     H_    0.176248 0.404696 0.183772 0.144472
H34   H     H_    0.229495 0.471092 0.120402 0.149147
C60   C     C_3   0.090582 0.403330 0.075261 -0.656197
H35   H     H_    0.061982 0.440030 0.030427 0.272964
H36   H     H_    0.159243 0.366859 0.053245 0.200955
H37   H     H_    0.008784 0.373487 0.093382 0.255904
O18   O     O_3   0.929002 0.520869 0.833404 -0.557150
C61   C     C_3   0.839773 0.571431 0.847876 0.099070
H38   H     H_    0.757534 0.546456 0.871996 0.177500
H39   H     H_    0.812411 0.601148 0.796877 0.143162
C62   C     C_3   0.892524 0.622152 0.904630 -0.727270
H40   H     H_    0.974711 0.648756 0.882221 0.236567
H41   H     H_    0.822106 0.661501 0.917523 0.208339
H42   H     H_    0.919577 0.594220 0.956545 0.265531
C63   C     C_2   0.391531 0.148405 0.631300 0.399007
H43   H     H_    0.363391 0.094531 0.629049 0.089294
O19   O     O_2   0.377431 0.179825 0.689024 -0.517280
C64   C     C_2   0.606105 0.852555 0.370073 0.402574
H44   H     H_    0.631924 0.906779 0.372513 0.088086
O20   O     O_2   0.623720 0.821230 0.312698 -0.511672

loop_
_geom_bond_atom_site_label_1
_geom_bond_atom_site_label_2
_ccdc_geom_bond_type
C21   H3    S    
C44   O18   S    
C2    C18   S    
C1    O1    A    
C20   N1    A    
O16   C57   S    
Cu2   N5    S    
C62   H42   S    
Cu2   O3    S    
C37   C53   S    
C53   H21   S    
C63   H43   S    
C39   C41   A    
C13   H15   S    
C49   H17   S    
C23   O7    A    
C21   N5    A    
Cu1   O8    S    
C35   C37   A    
C60   H36   S    
C27   C29   A    
Cu1   O5    S    
C58   H30   S    
C15   C17   A    
C22   N6    A    
C24   O6    A    
C55   H23   S    
C62   H41   S    
C33   N9    A    
C59   H34   S    
C7    C17   A    
Cu1   N6    S    
N8    N10   A    
C56   H25   S    
C36   C46   A    
C15   H1    S    
C59   C60   S    
C40   C42   A    
C38   C40   A    
C63   O19   D    
C61   H38   S    
C41   C43   A    
C20   N4    A    
C3    C24   S    
C42   C44   A    
Cu2   O2    S    
C55   H24   S    
C57   H28   S    
C53   O13   D    
C44   C46   A    
Cu2   O7    S    
C46   C50   S    
C49   O9    D    
C27   C34   S    
C5    C48   A    
C11   C20   S    
C6    C47   A    
C29   H7    S    
C25   H5    S    
C60   H35   S    
C32   N6    A    
C51   H19   S    
C4    C23   S    
C60   H37   S    
C58   H31   S    
C8    C18   A    
C41   O15   S    
C61   H39   S    
N1    N3    A    
C45   C49   S    
C42   O16   S    
C2    O2    A    
C51   O11   D    
C43   C45   A    
C48   H12   S    
C29   C31   A    
C58   H32   S    
C54   O14   D    
C14   H16   S    
C19   N2    A    
C52   O12   D    
C9    C11   A    
C7    H13   S    
C10   C12   A    
C8    H14   S    
C57   H29   S    
C9    C63   S    
C4    C6    A    
C50   O10   D    
C28   C33   S    
C22   H4    S    
C13   C15   A    
C1    O3    A    
C56   H27   S    
C14   C16   A    
C19   N3    A    
N7    N9    A    
O18   C61   S    
C35   C45   A    
C61   C62   S    
C59   H33   S    
Cu2   O6    S    
C4    C48   A    
C31   H9    S    
C7    C9    A    
C21   C25   A    
C23   O5    A    
C1    C17   S    
C8    C10   A    
C16   H2    S    
C12   C14   A    
C3    C5    A    
C26   H6    S    
C47   H11   S    
O17   C59   S    
C64   O20   D    
C25   C27   A    
C26   C28   A    
Cu1   O4    S    
C28   C30   A    
C24   O8    A    
C37   C39   A    
C36   C38   A    
C30   C32   A    
C11   C13   A    
C38   C54   S    
C56   H26   S    
C30   H8    S    
C12   C19   S    
C3    C47   A    
C54   H22   S    
Cu1   O1    S    
C57   C58   S    
C52   H20   S    
C2    O4    A    
C64   H44   S    
C34   N7    A    
C36   C52   S    
C33   N8    A    
C50   H18   S    
C16   C18   A    
Cu1   Cu2   S    
C22   C26   A    
C5    C40   S    
C34   N10   A    
O15   C55   S    
N2    N4    A    
C32   H10   S    
C6    C39   S    
C10   C64   S    
C55   C56   S    
C62   H40   S    
C43   O17   S    
C31   N5    A    
C35   C51   S    
