data_mof_unit_47213.cif
_audit_creation_date              2012-12-11T15:23:34-0500
_audit_creation_method            fapswitch 2.2
_symmetry_space_group_name_H-M    P1
_symmetry_Int_Tables_number       1
_space_group_crystal_system       triclinic
_cell_length_a                    17.373579
_cell_length_b                    24.285955
_cell_length_c                    15.029375
_cell_angle_alpha                 90.029921
_cell_angle_beta                  125.688739
_cell_angle_gamma                 90.077354
_cell_volume                      5150.46526825

loop_
_atom_site_label
_atom_site_type_symbol
_atom_type_description
_atom_site_fract_x
_atom_site_fract_y
_atom_site_fract_z
_atom_type_partial_charge
C1    C     C_R   0.351070 0.347821 0.909227 -0.125625
C2    C     C_R   0.645580 0.347224 0.089494 -0.124599
C3    C     C_R   0.815486 0.869321 0.908926 -0.117395
C4    C     C_R   0.188728 0.875051 0.091327 -0.127286
C5    C     C_R   0.378253 0.682511 0.999052 0.052144
C6    C     C_R   0.616481 0.683585 0.000421 0.046504
C7    C     C_R   0.817646 0.145152 0.997988 0.043165
C8    C     C_R   0.189112 0.136360 0.001377 0.039586
C9    C     C_R   0.447276 0.497894 0.269945 0.070198
C10   C     C_R   0.444755 0.502509 0.638835 0.059999
C11   C     C_R   0.992838 0.001102 0.319820 0.070826
C12   C     C_R   0.926430 0.996473 0.631039 0.067227
C13   C     C_R   0.199477 0.498830 0.634590 0.155913
C14   C     C_R   0.825012 0.498728 0.291042 0.159047
C15   C     C_R   0.677107 0.997429 0.669894 0.159663
C16   C     C_R   0.297452 0.000606 0.368259 0.162042
C17   C     C_2   0.982617 0.464597 0.354489 0.045585
C18   C     C_2   0.083130 0.459155 0.448147 0.065826
C19   C     C_2   0.422921 0.963267 0.551299 0.059663
C20   C     C_2   0.525415 0.969942 0.631788 0.043418
C21   C     C_2   0.926477 0.498141 0.365114 -0.291275
C22   C     C_2   0.124729 0.501911 0.517805 -0.317366
C23   C     C_2   0.375766 0.005567 0.483523 -0.284752
C24   C     C_2   0.575198 0.994191 0.599102 -0.304666
C25   C     C_R   0.287546 0.766767 0.900966 -0.169383
C26   C     C_R   0.707884 0.767283 0.098395 -0.169748
C27   C     C_R   0.660550 0.190231 0.898494 -0.165333
C28   C     C_R   0.342632 0.185820 0.100043 -0.169476
C29   C     C_R   0.607273 0.232466 0.898435 -0.170563
C30   C     C_R   0.389800 0.231708 0.099670 -0.169706
C31   C     C_R   0.241037 0.812894 0.901340 -0.163670
C32   C     C_R   0.760417 0.809904 0.098071 -0.166688
C33   C     C_R   0.638427 0.258290 0.997614 0.143389
C34   C     C_R   0.356858 0.257954 0.000273 0.140391
C35   C     C_R   0.259696 0.831656 0.000435 0.143413
C36   C     C_R   0.744884 0.825517 0.999038 0.147612
C37   C     C_R   0.708891 0.233667 0.096831 -0.162544
C38   C     C_R   0.289492 0.231410 0.901309 -0.169394
C39   C     C_R   0.339089 0.811735 0.099617 -0.173521
C40   C     C_R   0.662952 0.807706 0.899676 -0.155925
C41   C     C_R   0.385614 0.765667 0.099345 -0.174192
C42   C     C_R   0.609808 0.765616 0.899979 -0.169601
C43   C     C_R   0.762798 0.192340 0.096711 -0.190415
C44   C     C_R   0.242543 0.185414 0.901769 -0.164866
C45   C     C_R   0.440692 0.650907 0.090198 -0.164783
C46   C     C_R   0.557277 0.651170 0.909433 -0.126056
C47   C     C_R   0.905921 0.130435 0.089833 -0.132393
C48   C     C_R   0.099211 0.123241 0.909415 -0.123181
C49   C     C_R   0.353564 0.739866 0.999794 0.144621
C50   C     C_R   0.639847 0.740947 0.999568 0.139479
C51   C     C_R   0.744612 0.174460 0.997625 0.151350
C52   C     C_R   0.262014 0.166411 0.001122 0.142983
C53   C     C_R   0.372513 0.542294 0.445649 0.096873
C54   C     C_R   0.363470 0.534922 0.346264 0.081984
C55   C     C_R   0.862037 0.038145 0.449174 0.098429
C56   C     C_R   0.901152 0.045956 0.389498 0.098731
C57   C     C_R   0.419626 0.494385 0.343320 0.062050
C58   C     C_R   0.425589 0.502039 0.530603 0.073321
C59   C     C_R   0.949508 0.000488 0.380458 0.071047
C60   C     C_R   0.891596 0.991663 0.516625 0.070771
C61   C     C_R   0.465814 0.454304 0.424315 -0.202475
C62   C     C_R   0.466624 0.457379 0.514810 -0.205449
C63   C     C_R   0.949131 0.949292 0.423242 -0.202799
C64   C     C_R   0.919950 0.944756 0.489808 -0.209199
C65   C     C_R   0.475648 0.452675 0.240913 -0.141666
C66   C     C_R   0.453545 0.455412 0.697441 -0.139129
C67   C     C_R   0.009811 0.954587 0.278689 -0.116520
C68   C     C_R   0.945933 0.952273 0.697024 -0.146271
C69   C     C_R   0.245020 0.544833 0.698134 -0.168770
C70   C     C_R   0.769232 0.545307 0.260495 -0.148218
C71   C     C_R   0.732005 0.044292 0.714877 -0.155332
C72   C     C_R   0.252051 0.045600 0.303474 -0.163847
C73   C     C_R   0.481184 0.544699 0.249887 -0.130189
C74   C     C_R   0.462062 0.547061 0.704370 -0.129770
C75   C     C_R   0.014130 0.045867 0.280978 -0.162117
C76   C     C_R   0.947847 0.043528 0.694551 -0.153766
C77   C     C_R   0.245923 0.453105 0.698705 -0.108147
C78   C     C_R   0.767714 0.452734 0.257706 -0.114861
C79   C     C_R   0.734882 0.952538 0.715873 -0.129435
C80   C     C_R   0.252281 0.954281 0.304382 -0.130577
C81   C     C_R   0.348902 0.650726 0.907741 -0.121886
C82   C     C_R   0.647613 0.651734 0.091771 -0.128687
C83   C     C_R   0.814042 0.129842 0.906901 -0.118238
C84   C     C_R   0.190952 0.123558 0.093005 -0.123242
C85   C     C_R   0.443813 0.347218 0.091276 -0.141064
C86   C     C_R   0.555479 0.347775 0.907111 -0.124423
C87   C     C_R   0.907267 0.868396 0.091464 -0.125517
C88   C     C_R   0.097215 0.875094 0.907828 -0.124698
C89   C     C_R   0.381384 0.315558 0.000054 0.046725
C90   C     C_R   0.614497 0.315451 0.997942 0.046729
C91   C     C_R   0.818663 0.854275 0.999742 0.043584
C92   C     C_R   0.186904 0.861973 0.999962 0.040695
H1    H     H_    0.311575 0.334590 0.824821 0.085754
H2    H     H_    0.682511 0.333443 0.173199 0.081453
H3    H     H_    0.760598 0.859884 0.825018 0.085949
H4    H     H_    0.246474 0.870072 0.176542 0.094037
H5    H     H_    0.953709 0.523530 0.437073 0.139790
H6    H     H_    0.094162 0.542611 0.490365 0.142513
H7    H     H_    0.408802 0.046135 0.507122 0.135381
H8    H     H_    0.540355 0.009735 0.516403 0.141488
H9    H     H_    0.265050 0.749866 0.822703 0.107367
H10   H     H_    0.728143 0.751672 0.176615 0.106313
H11   H     H_    0.640340 0.174137 0.820536 0.107736
H12   H     H_    0.363738 0.169674 0.178265 0.109112
H13   H     H_    0.548625 0.248178 0.820334 0.106584
H14   H     H_    0.445586 0.249053 0.177822 0.106656
H15   H     H_    0.184362 0.829797 0.823310 0.108067
H16   H     H_    0.818305 0.826399 0.176020 0.108871
H17   H     H_    0.730980 0.250207 0.175172 0.105765
H18   H     H_    0.266213 0.248602 0.823035 0.108461
H19   H     H_    0.359611 0.827594 0.177834 0.110436
H20   H     H_    0.644285 0.822033 0.821369 0.111223
H21   H     H_    0.440197 0.747946 0.177507 0.107803
H22   H     H_    0.552757 0.748886 0.821853 0.108568
H23   H     H_    0.823938 0.179294 0.174626 0.125459
H24   H     H_    0.184902 0.168904 0.823718 0.107162
H25   H     H_    0.508567 0.422347 0.423067 0.128109
H26   H     H_    0.508047 0.426672 0.577644 0.132294
H27   H     H_    0.979815 0.912712 0.415508 0.122284
H28   H     H_    0.934159 0.906129 0.532485 0.122743
H29   H     H_    0.486760 0.664485 0.174306 0.088467
H30   H     H_    0.511131 0.664170 0.825056 0.081884
H31   H     H_    0.936771 0.141060 0.173314 0.088417
H32   H     H_    0.071825 0.127792 0.824372 0.092138
H33   H     H_    0.463682 0.409897 0.248747 0.101566
H34   H     H_    0.434987 0.413671 0.666564 0.097547
H35   H     H_    0.015075 0.912617 0.303673 0.079727
H36   H     H_    0.924367 0.910072 0.671588 0.086097
H37   H     H_    0.233955 0.586928 0.669886 0.113669
H38   H     H_    0.792201 0.587789 0.277513 0.102661
H39   H     H_    0.709385 0.085908 0.686790 0.104081
H40   H     H_    0.261224 0.087750 0.331462 0.096299
H41   H     H_    0.480639 0.586636 0.272981 0.091552
H42   H     H_    0.458951 0.590201 0.687710 0.097345
H43   H     H_    0.028926 0.087431 0.310750 0.117893
H44   H     H_    0.932046 0.085527 0.665870 0.097699
H45   H     H_    0.236011 0.410587 0.673811 0.102679
H46   H     H_    0.789062 0.410029 0.273498 0.103441
H47   H     H_    0.715718 0.910501 0.688303 0.090976
H48   H     H_    0.262226 0.912129 0.331353 0.104827
H49   H     H_    0.309865 0.664136 0.823552 0.083973
H50   H     H_    0.684819 0.665595 0.175568 0.082842
H51   H     H_    0.759531 0.139460 0.822884 0.085935
H52   H     H_    0.248933 0.128725 0.178114 0.094149
H53   H     H_    0.491073 0.333193 0.174862 0.083505
H54   H     H_    0.509972 0.334881 0.822471 0.084241
H55   H     H_    0.937320 0.856914 0.174520 0.085861
H56   H     H_    0.070007 0.870101 0.822915 0.093573
N1    N     N_R   0.395440 0.396300 0.944370 -0.038431
N2    N     N_R   0.604560 0.396300 0.055630 -0.038136
N3    N     N_R   0.895440 0.896300 0.944370 -0.041361
N4    N     N_R   0.104560 0.896300 0.055630 -0.041729
N5    N     N_R   0.449890 0.602500 0.055780 -0.036289
N6    N     N_R   0.550110 0.602500 0.944220 -0.037912
N7    N     N_R   0.949890 0.102500 0.055780 -0.039065
N8    N     N_R   0.050110 0.102500 0.944220 -0.041979
N9    N     N_R   0.525090 0.470990 0.205640 -0.041636
N10   N     N_R   0.474910 0.470990 0.794360 -0.038833
N11   N     N_R   0.025090 0.970990 0.205640 -0.037324
N12   N     N_R   0.974910 0.970990 0.794360 -0.036779
N13   N     N_R   0.320240 0.527820 0.794510 -0.040286
N14   N     N_R   0.679760 0.527820 0.205490 -0.045048
N15   N     N_R   0.820240 0.027820 0.794510 -0.041439
N16   N     N_R   0.179760 0.027820 0.205490 -0.040274
N17   N     N_R   0.524580 0.527810 0.205160 -0.042045
N18   N     N_R   0.475420 0.527810 0.794840 -0.039110
N19   N     N_R   0.024580 0.027810 0.205160 -0.036108
N20   N     N_R   0.975420 0.027810 0.794840 -0.038363
N21   N     N_R   0.320750 0.470990 0.794990 -0.047951
N22   N     N_R   0.679250 0.470990 0.205010 -0.049542
N23   N     N_R   0.820750 0.970990 0.794990 -0.042999
N24   N     N_R   0.179250 0.970990 0.205010 -0.046407
N25   N     N_R   0.393580 0.602500 0.942610 -0.036540
N26   N     N_R   0.606420 0.602500 0.057390 -0.036434
N27   N     N_R   0.893580 0.102500 0.942610 -0.039813
N28   N     N_R   0.106420 0.102500 0.057390 -0.041561
N29   N     N_R   0.451750 0.396300 0.057540 -0.036969
N30   N     N_R   0.548250 0.396300 0.942460 -0.037661
N31   N     N_R   0.951750 0.896300 0.057540 -0.040513
N32   N     N_R   0.048250 0.896300 0.942460 -0.041867
Ni1   Ni    Ni4+2 0.435420 0.434250 0.870220 0.207706
Ni2   Ni    Ni4+2 0.564580 0.434250 0.129780 0.206560
Ni3   Ni    Ni4+2 0.935420 0.934250 0.870220 0.208882
Ni4   Ni    Ni4+2 0.064580 0.934250 0.129780 0.216484
Ni5   Ni    Ni4+2 0.563400 0.564580 0.128670 0.207629
Ni6   Ni    Ni4+2 0.436600 0.564580 0.871330 0.207506
Ni7   Ni    Ni4+2 0.063400 0.064580 0.128670 0.216020
Ni8   Ni    Ni4+2 0.936600 0.064580 0.871330 0.211702
C93   C     C_3   0.331551 0.594214 0.459635 -0.461830
C94   C     C_3   0.248846 0.582709 0.466458 -0.227488
C95   C     C_3   0.209856 0.636493 0.478182 -0.964009
H57   H     H_    0.265151 0.657736 0.555477 0.258429
H58   H     H_    0.186315 0.664113 0.407744 0.267591
H59   H     H_    0.148037 0.628079 0.479906 0.244843
H60   H     H_    0.191521 0.560944 0.391117 0.201827
H61   H     H_    0.272924 0.556098 0.537657 0.215654
H62   H     H_    0.387818 0.618745 0.529391 0.176432
H63   H     H_    0.305366 0.623034 0.391011 0.218848
C96   C     C_3   0.283191 0.561701 0.239315 -0.418805
C97   C     C_3   0.307555 0.618675 0.216469 -0.275427
C98   C     C_3   0.222333 0.657355 0.159713 -0.909391
H64   H     H_    0.198809 0.665534 0.213100 0.254980
H65   H     H_    0.242182 0.697134 0.141658 0.255869
H66   H     H_    0.162752 0.638939 0.081362 0.266818
H67   H     H_    0.367138 0.638423 0.293103 0.189045
H68   H     H_    0.328906 0.613638 0.160369 0.210987
H69   H     H_    0.261289 0.534066 0.169154 0.179926
H70   H     H_    0.219469 0.564088 0.239700 0.202458
C99   C     C_3   0.788618 0.077914 0.438053 -0.461473
C100  C     C_3   0.721413 0.053136 0.462805 -0.228334
C101  C     C_3   0.644307 0.094354 0.436148 -0.955748
H71   H     H_    0.676655 0.132183 0.486490 0.259942
H72   H     H_    0.601251 0.105518 0.347951 0.267149
H73   H     H_    0.596578 0.075998 0.454423 0.246486
H74   H     H_    0.687400 0.015334 0.412828 0.200849
H75   H     H_    0.760169 0.042014 0.550165 0.208370
H76   H     H_    0.824201 0.115402 0.488147 0.184856
H77   H     H_    0.740562 0.090403 0.350844 0.201725
C102  C     C_3   0.899337 0.103592 0.349500 -0.460004
C103  C     C_3   0.985945 0.136514 0.440423 -0.239802
C104  C     C_3   0.989600 0.194092 0.402461 -0.942554
H78   H     H_    0.999284 0.191664 0.335892 0.256228
H79   H     H_    0.923462 0.216973 0.373080 0.260524
H80   H     H_    0.050448 0.217164 0.472037 0.254916
H81   H     H_    0.982252 0.140703 0.511540 0.191725
H82   H     H_    0.052725 0.114443 0.469690 0.195066
H83   H     H_    0.891113 0.101866 0.271571 0.183378
H84   H     H_    0.835616 0.127049 0.325622 0.185072
C105  C     C_1   0.944642 0.430427 0.258058 0.069772
N33   N     N_1   0.914331 0.403151 0.181179 -0.085888
C106  C     C_1   0.130337 0.406999 0.465805 0.042839
N34   N     N_1   0.167629 0.365244 0.478896 -0.106635
C107  C     C_1   0.380045 0.910367 0.541096 0.041759
N35   N     N_1   0.346210 0.867989 0.533794 -0.106980
C108  C     C_1   0.569702 0.950499 0.742770 0.078794
N36   N     N_1   0.604923 0.935432 0.831590 -0.085585

loop_
_geom_bond_atom_site_label_1
_geom_bond_atom_site_label_2
_ccdc_geom_bond_type
C93   H63   S    
C2    N2    A    
C23   H7    S    
C55   C56   A    
C25   C31   A    
C97   H67   S    
C6    C82   A    
C83   N27   A    
C65   H33   S    
C27   C29   A    
C14   C70   A    
C98   H64   S    
C7    C83   A    
C19   C20   S    
C16   C72   A    
C78   N22   A    
C82   H50   S    
N16   Ni7   S    
C5    C49   S    
C95   H58   S    
C76   H44   S    
C40   H20   S    
C53   C54   A    
C26   C32   A    
C12   C68   A    
C94   C95   S    
C10   C66   A    
C87   H55   S    
N20   Ni8   S    
C99   H77   S    
C32   C36   A    
C14   C21   S    
N23   Ni3   S    
C10   C58   S    
C85   H53   S    
C104  H80   S    
C87   C91   A    
C18   C106  S    
C26   C50   A    
N26   Ni5   S    
C75   H43   S    
C84   H52   S    
C93   H62   S    
C100  H74   S    
C86   H54   S    
C70   H38   S    
C14   C78   A    
C63   H27   S    
N6    Ni6   S    
C3    C91   A    
C79   N23   A    
C57   C61   A    
C2    C90   A    
C28   H12   S    
C19   C107  S    
C75   N19   A    
C43   H23   S    
N27   Ni8   S    
C4    H4    S    
C47   H31   S    
C42   H22   S    
C15   C79   A    
C88   C92   A    
C29   C33   A    
C27   C51   A    
C97   C98   S    
C17   C18   S    
C103  H81   S    
C1    C89   A    
C108  N36   T    
C88   N32   A    
N11   Ni4   S    
C38   H18   S    
C3    N3    A    
N15   N23   A    
C107  N35   T    
C68   H36   S    
N12   Ni3   S    
C37   H17   S    
N32   Ni3   S    
C94   H61   S    
N2    N30   A    
N13   N21   A    
C35   C92   S    
C44   C52   A    
C39   H19   S    
C48   N8    A    
C96   C97   S    
C24   H8    S    
C55   C60   A    
C30   H14   S    
N1    Ni1   S    
C98   H65   S    
C29   H13   S    
C61   C62   A    
C9    C73   A    
C86   N30   A    
C11   C59   S    
C78   H46   S    
C41   C49   A    
C103  C104  S    
N5    Ni5   S    
C105  N33   T    
C11   C67   A    
C72   H40   S    
C25   C49   A    
N8    Ni8   S    
C88   H56   S    
C46   N6    A    
C13   C77   A    
N25   Ni6   S    
C62   H26   S    
C30   C34   A    
C61   H25   S    
C95   H57   S    
C82   N26   A    
C2    H2    S    
C39   C41   A    
C79   H47   S    
C86   C90   A    
N9    N17   A    
C22   H6    S    
C85   C89   A    
C19   C23   D    
C45   H29   S    
C80   H48   S    
C5    C45   A    
N17   Ni5   S    
C54   C96   S    
C66   H34   S    
N15   Ni8   S    
C16   C80   A    
C34   C38   A    
N4    N32   A    
C35   C39   A    
C8    C48   A    
C38   C44   A    
N13   Ni6   S    
C67   H35   S    
C55   C99   S    
C104  H78   S    
C5    C81   A    
N24   Ni4   S    
N3    N31   A    
C101  H71   S    
N14   N22   A    
C85   N29   A    
C36   C40   A    
N5    N25   A    
C20   C108  S    
N19   Ni7   S    
C101  H73   S    
C96   H69   S    
C99   C100  S    
C72   N16   A    
C103  H82   S    
C6    C50   S    
C4    N4    A    
C1    N1    A    
N29   Ni2   S    
C66   N10   A    
N21   Ni1   S    
C71   N15   A    
C58   C62   A    
C42   C50   A    
C94   H60   S    
C36   C91   S    
C73   N17   A    
C15   C24   S    
C101  H72   S    
C73   H41   S    
C16   C23   S    
C12   C76   A    
C32   H16   S    
C102  H84   S    
C98   H66   S    
C31   C35   A    
C37   C43   A    
N16   N24   A    
N4    Ni4   S    
N9    Ni2   S    
C80   N24   A    
C68   N12   A    
C74   N18   A    
C15   C71   A    
N10   N18   A    
N28   Ni7   S    
C33   C37   A    
N31   Ni4   S    
N7    N27   A    
C102  C103  S    
C77   N21   A    
C8    C52   S    
N8    N28   A    
C97   H68   S    
C6    C46   A    
C18   C22   D    
C31   H15   S    
C77   H45   S    
C40   C42   A    
N2    Ni2   S    
C17   C105  S    
C48   H32   S    
N14   Ni5   S    
C67   N11   A    
C53   C58   A    
N3    Ni3   S    
C28   C52   A    
C65   N9    A    
C7    C47   A    
C27   H11   S    
C59   C63   A    
C64   H28   S    
C56   C59   A    
C60   C64   A    
C99   H76   S    
C13   C69   A    
C28   C30   A    
C41   H21   S    
C7    C51   S    
C104  H79   S    
C11   C75   A    
C33   C90   S    
C26   H10   S    
C83   H51   S    
C10   C74   A    
C25   H9    S    
C47   N7    A    
C43   C51   A    
C69   H37   S    
C100  H75   S    
C74   H42   S    
C81   H49   S    
C96   H70   S    
C3    H3    S    
N11   N19   A    
C13   C22   S    
C76   N20   A    
C9    C57   S    
N12   N20   A    
C93   C94   S    
N10   Ni1   S    
C9    C65   A    
C34   C89   S    
N30   Ni1   S    
C21   H5    S    
N18   Ni6   S    
C87   N31   A    
C63   C64   A    
C12   C60   S    
C69   N13   A    
N6    N26   A    
C45   N5    A    
C44   H24   S    
C71   H39   S    
C1    H1    S    
C100  C101  S    
C8    C84   A    
C106  N34   T    
C46   H30   S    
N7    Ni7   S    
N1    N29   A    
C102  H83   S    
C84   N28   A    
C53   C93   S    
C20   C24   D    
C56   C102  S    
N22   Ni2   S    
C95   H59   S    
C70   N14   A    
C81   N25   A    
C4    C92   A    
C54   C57   A    
C17   C21   D    
