data_mof_unit_27945.cif
_audit_creation_date              2012-12-10T17:07:12-0500
_audit_creation_method            fapswitch 2.2
_symmetry_space_group_name_H-M    P1
_symmetry_Int_Tables_number       1
_space_group_crystal_system       triclinic
_cell_length_a                    17.36039
_cell_length_b                    11.116355
_cell_length_c                    9.828298
_cell_angle_alpha                 109.871274
_cell_angle_beta                  95.118581
_cell_angle_gamma                 91.933409
_cell_volume                      1772.50093457

loop_
_atom_site_label
_atom_site_type_symbol
_atom_type_description
_atom_site_fract_x
_atom_site_fract_y
_atom_site_fract_z
_atom_type_partial_charge
C1    C     C_R   0.494909 0.255077 0.443432 0.888577
C2    C     C_R   0.506397 0.743962 0.555966 0.904872
C3    C     C_2   0.484778 0.118396 0.417810 -0.406282
C4    C     C_2   0.520906 0.877475 0.577456 -0.412312
C5    C     C_2   0.498829 0.071463 0.526259 0.365388
C6    C     C_2   0.476933 0.935271 0.502005 0.342678
C7    C     C_2   0.503668 0.515057 0.082515 0.087699
C8    C     C_2   0.489107 0.500085 0.923181 0.079905
C9    C     C_R   0.352025 0.504711 0.519412 0.789131
C10   C     C_R   0.648012 0.495891 0.480749 0.778416
C11   C     C_R   0.269029 0.513933 0.531392 -0.011109
C12   C     C_R   0.731187 0.489036 0.469614 -0.030302
C13   C     C_R   0.219780 0.520091 0.413183 -0.204612
C14   C     C_R   0.780748 0.487363 0.589624 -0.195721
C15   C     C_R   0.140921 0.529086 0.422681 -0.145311
C16   C     C_R   0.859833 0.481197 0.581278 -0.151113
C17   C     C_R   0.109863 0.530082 0.549982 0.191815
C18   C     C_R   0.890803 0.478699 0.453354 0.190924
C19   C     C_R   0.159125 0.527969 0.669895 -0.167787
C20   C     C_R   0.841275 0.476687 0.331918 -0.168264
C21   C     C_R   0.238446 0.519501 0.660673 -0.198624
C22   C     C_R   0.761734 0.482225 0.339951 -0.190730
C23   C     C_2   0.026252 0.533003 0.560096 -0.228570
C24   C     C_2   0.974497 0.477217 0.443543 -0.227459
Cu1   Cu    Cu3+1 0.513640 0.521550 0.643210 0.970857
Cu2   Cu    Cu3+1 0.486360 0.478450 0.356790 0.941884
H1    H     H_    0.242065 0.518928 0.313390 0.137935
H2    H     H_    0.758490 0.489930 0.690036 0.173095
H3    H     H_    0.724437 0.482349 0.245566 0.163965
H4    H     H_    0.275524 0.516068 0.753793 0.142077
H5    H     H_    0.993523 0.431035 0.336900 0.144249
H6    H     H_    0.007398 0.579152 0.666861 0.144742
H7    H     H_    0.135971 0.530234 0.769469 0.122311
H8    H     H_    0.864340 0.473149 0.231857 0.126022
H9    H     H_    0.896204 0.476973 0.674618 0.125002
H10   H     H_    0.104713 0.536357 0.330682 0.122338
H11   H     H_    0.572823 0.925639 0.647631 0.137494
H12   H     H_    0.461997 0.058428 0.309497 0.089920
H13   H     H_    0.435997 0.448027 0.862019 0.115214
H14   H     H_    0.543712 0.592850 0.152914 0.129371
N1    N     N_2   0.465840 0.446060 0.141630 -0.043594
N2    N     N_2   0.534160 0.553940 0.858370 -0.031317
O1    O     O_R   0.507280 0.332200 0.576490 -0.536668
O2    O     O_R   0.492720 0.667800 0.423510 -0.582030
O3    O     O_R   0.484240 0.295800 0.334620 -0.586621
O4    O     O_R   0.515760 0.704200 0.665380 -0.622623
O5    O     O_R   0.399260 0.520290 0.634950 -0.609482
O6    O     O_R   0.600740 0.479710 0.365050 -0.595213
O7    O     O_R   0.376220 0.483890 0.393080 -0.632697
O8    O     O_R   0.623780 0.516110 0.606920 -0.571485
O9    O     O_3   0.403201 0.880484 0.438055 -0.577687
C25   C     C_3   0.399038 0.835179 0.284286 0.097126
H15   H     H_    0.456210 0.810580 0.242051 0.123986
H16   H     H_    0.373635 0.907683 0.242548 0.143476
C26   C     C_3   0.343053 0.716748 0.222270 -0.797891
H17   H     H_    0.284868 0.739452 0.258842 0.244383
H18   H     H_    0.338005 0.682610 0.101492 0.181154
H19   H     H_    0.364357 0.639347 0.259023 0.275742
O10   O     O_3   0.548257 0.143226 0.648831 -0.577326
C27   C     C_3   0.512437 0.161598 0.777333 0.115266
H20   H     H_    0.479860 0.074500 0.779277 0.127405
H21   H     H_    0.470883 0.236908 0.789708 0.189110
C28   C     C_3   0.575118 0.202683 0.906016 -0.714060
H22   H     H_    0.603508 0.297271 0.917937 0.259069
H23   H     H_    0.549830 0.209332 0.007838 0.241500
H24   H     H_    0.619538 0.130861 0.888514 0.217880
O11   O     O_3   0.605267 0.595941 0.929980 -0.512536
C29   C     C_3   0.621252 0.720730 0.929550 0.203595
H25   H     H_    0.569582 0.778834 0.949968 0.128406
H26   H     H_    0.641748 0.717072 0.824636 0.176233
C30   C     C_3   0.685423 0.787938 0.050263 -0.900214
H27   H     H_    0.738537 0.734075 0.032616 0.256851
H28   H     H_    0.698955 0.886495 0.050877 0.212825
H29   H     H_    0.666634 0.793880 0.157376 0.249412
O12   O     O_3   0.429564 0.336552 0.046536 -0.542303
C31   C     C_3   0.355633 0.321478 0.088339 0.202577
H30   H     H_    0.326392 0.413098 0.118783 0.130429
H31   H     H_    0.359553 0.283211 0.179013 0.185682
C32   C     C_3   0.305900 0.224773 0.960078 -0.917542
H32   H     H_    0.332757 0.131241 0.926512 0.256196
H33   H     H_    0.247210 0.210956 0.991310 0.216588
H34   H     H_    0.300409 0.260005 0.866774 0.248712

loop_
_geom_bond_atom_site_label_1
_geom_bond_atom_site_label_2
_ccdc_geom_bond_type
C26   H17   S    
C28   H23   S    
C22   H3    S    
C31   C32   S    
C8    N2    D    
Cu1   O1    S    
C32   H34   S    
Cu2   O2    S    
C7    C8    S    
C2    O4    A    
C17   C23   S    
C27   C28   S    
C18   C24   S    
C19   C21   A    
C31   H31   S    
C16   H9    S    
C5    C6    S    
C12   C22   A    
O9    C25   S    
C27   H21   S    
Cu1   O8    S    
Cu2   O3    S    
C1    O1    A    
C3    H12   S    
C2    O2    A    
C29   H25   S    
C7    H14   S    
C8    H13   S    
C6    O9    S    
Cu1   O5    S    
C25   C26   S    
Cu2   O6    S    
C20   H8    S    
C28   H24   S    
O10   C27   S    
C25   H16   S    
C5    O10   S    
O11   C29   S    
C9    O7    A    
C31   H30   S    
C4    C6    D    
C19   H7    S    
Cu2   O7    S    
C30   H28   S    
Cu1   Cu2   S    
C11   C21   A    
C28   H22   S    
C27   H20   S    
C1    C3    S    
C2    C4    S    
O12   C31   S    
N1    O12   S    
C23   C24   D    
C9    C11   S    
C10   C12   S    
C16   C18   A    
C12   C14   A    
C9    O5    A    
C13   C15   A    
C10   O6    A    
N2    O11   S    
C14   C16   A    
C10   O8    A    
C15   H10   S    
C25   H15   S    
C32   H33   S    
C15   C17   A    
C20   C22   A    
C3    C5    D    
Cu1   N2    S    
C30   H29   S    
C21   H4    S    
C23   H6    S    
C26   H18   S    
C24   H5    S    
C30   H27   S    
C11   C13   A    
C1    O3    A    
C29   C30   S    
C17   C19   A    
C18   C20   A    
C7    N1    D    
C32   H32   S    
C4    H11   S    
C29   H26   S    
C26   H19   S    
C13   H1    S    
C14   H2    S    
Cu1   O4    S    
Cu2   N1    S    
