data_mof_unit_18181.cif
_audit_creation_date              2012-12-11T21:06:24-0500
_audit_creation_method            fapswitch 2.2
_symmetry_space_group_name_H-M    P1
_symmetry_Int_Tables_number       1
_space_group_crystal_system       triclinic
_cell_length_a                    36.175884
_cell_length_b                    40.143336
_cell_length_c                    8.544503
_cell_angle_alpha                 89.999976
_cell_angle_beta                  92.033952
_cell_angle_gamma                 89.747763
_cell_volume                      12400.5658046

loop_
_atom_site_label
_atom_site_type_symbol
_atom_type_description
_atom_site_fract_x
_atom_site_fract_y
_atom_site_fract_z
_atom_type_partial_charge
Ba1   Ba    Ba6+2 0.000060 0.523150 0.844950 1.696306
Ba2   Ba    Ba6+2 0.000060 0.476850 0.344950 1.695144
Ba3   Ba    Ba6+2 0.500060 0.023150 0.844950 1.696438
Ba4   Ba    Ba6+2 0.500060 0.976850 0.344950 1.695342
C1    C     C_3   0.994053 0.688607 0.684580 -0.055651
C2    C     C_3   0.996417 0.313843 0.211290 -0.135418
C3    C     C_3   0.493992 0.188584 0.684497 -0.055574
C4    C     C_3   0.496420 0.813838 0.211244 -0.135640
C5    C     C_R   0.864158 0.313522 0.929026 0.678503
C6    C     C_R   0.866549 0.686719 0.428782 0.633696
C7    C     C_R   0.364034 0.813582 0.928117 0.678215
C8    C     C_R   0.366549 0.186686 0.429004 0.633697
C9    C     C_2   0.895935 0.375027 0.755132 -0.097102
C10   C     C_2   0.897672 0.626244 0.249596 -0.008454
C11   C     C_2   0.395814 0.875141 0.754749 -0.096876
C12   C     C_2   0.397638 0.126214 0.249496 -0.008807
C13   C     C_3   0.918861 0.404874 0.710157 0.047216
C14   C     C_3   0.917187 0.595332 0.194572 -0.043666
C15   C     C_3   0.418816 0.904956 0.710003 0.047163
C16   C     C_3   0.417154 0.095301 0.194475 -0.043788
C17   C     C_1   0.917403 0.423841 0.983873 -0.007437
C18   C     C_1   0.914975 0.573960 0.468726 0.029553
C19   C     C_1   0.417384 0.923848 0.983826 -0.007615
C20   C     C_1   0.414956 0.073942 0.468647 0.030055
C21   C     C_2   0.893866 0.399078 0.021327 -0.062903
C22   C     C_2   0.892411 0.599274 0.508855 -0.075866
C23   C     C_2   0.393833 0.899086 0.021161 -0.062943
C24   C     C_2   0.392388 0.099253 0.508768 -0.075238
C25   C     C_2   0.882367 0.372727 0.900743 0.211333
C26   C     C_2   0.883527 0.627437 0.393807 0.192264
C27   C     C_2   0.382272 0.872795 0.900385 0.211600
C28   C     C_2   0.383497 0.127408 0.393705 0.192379
C29   C     C_R   0.802522 0.297537 0.009048 -0.079370
C30   C     C_R   0.804483 0.703137 0.503396 -0.076094
C31   C     C_R   0.302447 0.797582 0.008686 -0.079340
C32   C     C_R   0.304467 0.203113 0.503379 -0.076063
C33   C     C_R   0.792431 0.331414 0.006768 -0.022738
C34   C     C_R   0.793885 0.669472 0.494117 -0.022487
C35   C     C_R   0.292371 0.831463 0.006808 -0.022864
C36   C     C_R   0.293839 0.169458 0.493686 -0.022496
C37   C     C_R   0.755956 0.340071 0.040233 -0.049193
C38   C     C_R   0.757182 0.661156 0.523547 -0.045750
C39   C     C_R   0.255918 0.840117 0.040679 -0.049221
C40   C     C_R   0.257105 0.161156 0.522658 -0.045894
C41   C     C_R   0.838418 0.288533 0.966665 -0.042870
C42   C     C_R   0.840782 0.711902 0.466197 -0.060774
C43   C     C_R   0.338310 0.788585 0.965837 -0.042733
C44   C     C_R   0.340794 0.211869 0.466534 -0.060775
C45   C     C_3   0.011558 0.642853 0.052113 0.278417
C46   C     C_3   0.012590 0.358218 0.567913 0.263716
C47   C     C_3   0.511515 0.142858 0.052107 0.278652
C48   C     C_3   0.512538 0.858213 0.568070 0.264139
C49   C     C_2   0.936192 0.421728 0.853786 -0.177427
C50   C     C_2   0.931179 0.573600 0.330674 -0.225009
C51   C     C_2   0.436171 0.921744 0.853744 -0.177425
C52   C     C_2   0.431148 0.073571 0.330574 -0.225142
C53   C     C_2   0.062558 0.577833 0.336308 -0.259504
C54   C     C_2   0.062158 0.421638 0.831166 -0.241941
C55   C     C_2   0.562566 0.077826 0.336346 -0.259571
C56   C     C_2   0.562145 0.921638 0.831169 -0.241847
C57   C     C_R   0.216593 0.757409 0.161403 0.001034
C58   C     C_R   0.218554 0.243377 0.656932 0.001560
C59   C     C_R   0.716595 0.257398 0.161258 0.001030
C60   C     C_R   0.718616 0.743406 0.657285 0.001632
C61   C     C_R   0.258446 0.713725 0.065827 0.027636
C62   C     C_R   0.260731 0.287067 0.567612 0.027918
C63   C     C_R   0.758514 0.213693 0.066382 0.027625
C64   C     C_R   0.760690 0.787083 0.567123 0.027899
C65   C     C_R   0.224354 0.723193 0.131408 0.034545
C66   C     C_R   0.226465 0.277624 0.630798 0.035357
C67   C     C_R   0.724385 0.223175 0.131585 0.034533
C68   C     C_R   0.726470 0.777643 0.630703 0.035406
C69   C     C_R   0.185144 0.764919 0.252666 0.119765
C70   C     C_R   0.187154 0.235683 0.747584 0.114564
C71   C     C_R   0.685091 0.264929 0.252169 0.119789
C72   C     C_R   0.687274 0.735729 0.748282 0.114659
C73   C     C_R   0.159823 0.739976 0.287075 -0.018666
C74   C     C_R   0.162093 0.260734 0.786016 0.011602
C75   C     C_R   0.659770 0.239988 0.286571 -0.018724
C76   C     C_R   0.662190 0.760771 0.786547 0.011260
C77   C     C_R   0.165442 0.706723 0.244314 -0.072479
C78   C     C_R   0.167678 0.294091 0.745634 -0.060581
C79   C     C_R   0.665425 0.206723 0.244116 -0.072546
C80   C     C_R   0.667713 0.794111 0.745759 -0.060745
C81   C     C_R   0.198123 0.698107 0.169565 -0.082959
C82   C     C_R   0.200192 0.302726 0.670300 -0.091497
C83   C     C_R   0.698142 0.198093 0.169686 -0.082958
C84   C     C_R   0.700188 0.802740 0.670158 -0.091385
C85   C     C_R   0.204802 0.664323 0.134647 -0.025320
C86   C     C_R   0.206705 0.336529 0.636430 -0.029645
C87   C     C_R   0.704850 0.164302 0.135035 -0.025336
C88   C     C_R   0.706653 0.836532 0.635966 -0.029619
C89   C     C_3   0.029302 0.675444 0.110753 -0.224463
C90   C     C_3   0.029589 0.324642 0.621259 -0.247494
C91   C     C_3   0.529240 0.175469 0.110575 -0.224413
C92   C     C_3   0.529512 0.824627 0.621350 -0.247539
C93   C     C_R   0.178611 0.639774 0.173384 0.613855
C94   C     C_R   0.180160 0.361036 0.674359 0.595720
C95   C     C_R   0.678649 0.139758 0.173718 0.613599
C96   C     C_R   0.680112 0.861036 0.673967 0.595700
C97   C     C_R   0.139678 0.681715 0.281569 0.632187
C98   C     C_R   0.142000 0.319149 0.785348 0.618981
C99   C     C_R   0.639656 0.181718 0.281360 0.632349
C100  C     C_R   0.642017 0.819162 0.785366 0.618892
C101  C     C_2   0.107876 0.620316 0.435640 -0.086445
C102  C     C_2   0.108963 0.380737 0.934900 -0.070463
C103  C     C_2   0.607855 0.120336 0.435634 -0.086584
C104  C     C_2   0.608952 0.880731 0.934822 -0.070680
C105  C     C_3   0.082405 0.592144 0.479213 -0.063771
C106  C     C_3   0.082405 0.408550 0.975401 -0.074223
C107  C     C_3   0.582401 0.092155 0.479241 -0.063735
C108  C     C_3   0.582396 0.908544 0.975374 -0.074257
C109  C     C_1   0.081393 0.574658 0.207729 0.011278
C110  C     C_1   0.081417 0.425143 0.704471 0.019869
C111  C     C_1   0.581405 0.074652 0.207772 0.011274
C112  C     C_1   0.581401 0.925146 0.704474 0.019746
C113  C     C_2   0.105184 0.598090 0.167264 -0.061612
C114  C     C_2   0.105671 0.401865 0.664850 -0.080741
C115  C     C_2   0.605207 0.098076 0.167322 -0.061146
C116  C     C_2   0.605656 0.901875 0.664817 -0.080127
C117  C     C_2   0.119761 0.622829 0.287122 0.224023
C118  C     C_2   0.120946 0.377815 0.786637 0.206199
C119  C     C_2   0.619762 0.122829 0.287149 0.224330
C120  C     C_2   0.620932 0.877818 0.786552 0.206563
C121  C     C_R   0.741047 0.282124 0.102397 0.019262
C122  C     C_R   0.742880 0.718771 0.595343 0.019596
C123  C     C_R   0.241023 0.782151 0.102508 0.019275
C124  C     C_R   0.242825 0.218751 0.594932 0.019646
C125  C     C_R   0.776458 0.272594 0.050964 0.058557
C126  C     C_R   0.778486 0.728143 0.546893 0.057966
C127  C     C_R   0.276399 0.772630 0.050658 0.058576
C128  C     C_R   0.278472 0.228119 0.546913 0.057924
C129  C     C_R   0.785813 0.238383 0.038399 0.018607
C130  C     C_R   0.788077 0.762281 0.538928 0.017245
C131  C     C_R   0.285735 0.738419 0.037738 0.018612
C132  C     C_R   0.288107 0.262255 0.539398 0.017217
C133  C     C_3   0.882381 0.518651 0.130829 0.312018
C134  C     C_3   0.881501 0.488887 0.699879 0.444271
C135  C     C_3   0.382333 0.018629 0.131080 0.313633
C136  C     C_3   0.381422 0.988985 0.700271 0.444525
C137  C     C_R   0.730724 0.315910 0.084165 -0.110781
C138  C     C_R   0.732167 0.685341 0.571182 -0.109545
C139  C     C_R   0.230702 0.815945 0.084637 -0.110784
C140  C     C_R   0.232085 0.185340 0.570281 -0.109524
C141  C     C_R   0.847961 0.254643 0.963119 -0.029936
C142  C     C_R   0.850600 0.745666 0.467954 -0.033930
C143  C     C_R   0.347838 0.754694 0.961909 -0.029905
C144  C     C_R   0.350649 0.245626 0.468741 -0.033849
C145  C     C_R   0.263998 0.679716 0.029833 -0.094727
C146  C     C_R   0.266331 0.321126 0.533982 -0.094617
C147  C     C_R   0.764093 0.179677 0.030639 -0.094764
C148  C     C_R   0.766233 0.821128 0.533105 -0.094629
C149  C     C_R   0.237730 0.655673 0.062929 -0.053207
C150  C     C_R   0.239781 0.345202 0.566411 -0.051257
C151  C     C_R   0.737815 0.155639 0.063645 -0.053239
C152  C     C_R   0.739679 0.845197 0.565571 -0.051292
C153  C     C_R   0.822257 0.230120 0.997123 -0.093639
C154  C     C_R   0.824779 0.770342 0.501849 -0.090772
C155  C     C_R   0.322148 0.730164 0.996004 -0.093632
C156  C     C_R   0.324839 0.270306 0.502718 -0.090776
C157  C     C_3   0.841631 0.532797 0.123222 0.045522
C158  C     C_3   0.849506 0.464291 0.658179 -0.039565
C159  C     C_3   0.341573 0.032784 0.123003 0.045262
C160  C     C_3   0.349501 0.964345 0.658304 -0.039807
C161  C     C_3   0.109800 0.478838 0.070654 0.277343
C162  C     C_3   0.109817 0.520850 0.569564 0.277179
C163  C     C_3   0.609787 0.978831 0.070644 0.277244
C164  C     C_3   0.609869 0.020824 0.569215 0.277353
C165  C     C_3   0.146632 0.459865 0.091595 -0.115979
C166  C     C_3   0.146658 0.539546 0.589929 -0.115461
C167  C     C_3   0.646606 0.959844 0.091821 -0.116071
C168  C     C_3   0.646738 0.039481 0.589368 -0.114738
C169  C     C_3   0.000126 0.651937 0.630116 0.219505
C170  C     C_3   0.001556 0.348567 0.132796 0.295765
C171  C     C_3   0.500093 0.151916 0.630059 0.219468
C172  C     C_3   0.501547 0.848573 0.132888 0.295764
C173  C     C_R   0.818626 0.355867 0.966894 0.591974
C174  C     C_R   0.819910 0.644969 0.451667 0.602920
C175  C     C_R   0.318557 0.855925 0.966937 0.592121
C176  C     C_R   0.319868 0.144952 0.451274 0.602818
H1    H     H_    0.986153 0.635088 0.711722 0.045382
H2    H     H_    0.987436 0.367512 0.204799 0.013122
H3    H     H_    0.486128 0.135062 0.711668 0.045452
H4    H     H_    0.487448 0.867508 0.205004 0.013182
H5    H     H_    0.098602 0.476441 0.948634 -0.018708
H6    H     H_    0.098706 0.523100 0.447367 -0.017475
H7    H     H_    0.598625 0.976432 0.948568 -0.018476
H8    H     H_    0.598776 0.023019 0.446961 -0.017454
H9    H     H_    0.089899 0.468365 0.152864 0.050937
H10   H     H_    0.089870 0.531637 0.651197 0.047674
H11   H     H_    0.589855 0.968370 0.152750 0.050925
H12   H     H_    0.589930 0.031682 0.650698 0.047104
H13   H     H_    0.141820 0.432969 0.110418 0.064122
H14   H     H_    0.141880 0.566528 0.607166 0.064543
H15   H     H_    0.641774 0.932954 0.110721 0.064178
H16   H     H_    0.642014 0.066511 0.605267 0.064181
H17   H     H_    0.161872 0.468909 0.198483 0.134444
H18   H     H_    0.161817 0.530618 0.697420 0.134967
H19   H     H_    0.661823 0.968899 0.198742 0.134373
H20   H     H_    0.661765 0.030740 0.697570 0.134534
H21   H     H_    0.037751 0.672729 0.236442 0.090027
H22   H     H_    0.034542 0.324758 0.750240 0.108186
H23   H     H_    0.537664 0.172795 0.236309 0.090178
H24   H     H_    0.534459 0.824731 0.750327 0.107919
H25   H     H_    0.746590 0.365699 0.031614 0.134509
H26   H     H_    0.747554 0.635772 0.509853 0.138449
H27   H     H_    0.246557 0.865750 0.032356 0.134466
H28   H     H_    0.247454 0.135785 0.508583 0.138321
H29   H     H_    0.118862 0.636675 0.526992 0.117152
H30   H     H_    0.120409 0.364933 0.027838 0.112859
H31   H     H_    0.618821 0.136713 0.526954 0.117008
H32   H     H_    0.620399 0.864924 0.027740 0.112929
H33   H     H_    0.136133 0.746715 0.354798 0.143507
H34   H     H_    0.138481 0.253916 0.853653 0.146665
H35   H     H_    0.636040 0.246741 0.354027 0.143542
H36   H     H_    0.638618 0.753967 0.854435 0.146544
H37   H     H_    0.702665 0.324114 0.096881 0.086738
H38   H     H_    0.703968 0.677553 0.581962 0.087793
H39   H     H_    0.202653 0.824151 0.097669 0.086699
H40   H     H_    0.203866 0.177568 0.580650 0.087716
H41   H     H_    0.886886 0.357583 0.664672 0.098440
H42   H     H_    0.890044 0.645284 0.163959 0.113173
H43   H     H_    0.386725 0.857742 0.664158 0.098345
H44   H     H_    0.390009 0.145253 0.163862 0.113092
H45   H     H_    0.875521 0.246827 0.933032 0.135026
H46   H     H_    0.878417 0.753250 0.441826 0.141619
H47   H     H_    0.375374 0.746881 0.931453 0.135087
H48   H     H_    0.378489 0.253203 0.442917 0.141754
H49   H     H_    0.288160 0.670939 0.971844 0.075678
H50   H     H_    0.290702 0.329846 0.477847 0.076316
H51   H     H_    0.788288 0.170892 0.972911 0.075668
H52   H     H_    0.790562 0.829840 0.476656 0.076306
H53   H     H_    0.008474 0.691178 0.799787 0.084191
H54   H     H_    0.011890 0.314730 0.323637 0.060463
H55   H     H_    0.508401 0.191166 0.799722 0.084061
H56   H     H_    0.511913 0.814703 0.323544 0.060275
H57   H     H_    0.243520 0.630015 0.032547 0.127716
H58   H     H_    0.245500 0.370895 0.537307 0.127884
H59   H     H_    0.743627 0.129975 0.033471 0.127707
H60   H     H_    0.745356 0.870881 0.536184 0.127861
H61   H     H_    0.114561 0.599251 0.048326 0.154730
H62   H     H_    0.114957 0.400439 0.545806 0.152419
H63   H     H_    0.614605 0.099223 0.048410 0.154399
H64   H     H_    0.614944 0.900464 0.545782 0.152615
H65   H     H_    0.832121 0.204761 0.994123 0.078496
H66   H     H_    0.834699 0.795632 0.502696 0.081322
H67   H     H_    0.332001 0.704804 0.992686 0.078523
H68   H     H_    0.334791 0.295588 0.503942 0.081355
H69   H     H_    0.962295 0.434674 0.843814 0.077663
H70   H     H_    0.952457 0.555330 0.306732 0.077655
H71   H     H_    0.462289 0.934669 0.843846 0.077730
H72   H     H_    0.452410 0.055289 0.306594 0.077464
H73   H     H_    0.036580 0.564820 0.348309 0.102227
H74   H     H_    0.034071 0.431127 0.836047 0.092209
H75   H     H_    0.536595 0.064802 0.348361 0.102264
H76   H     H_    0.534061 0.931137 0.836083 0.092240
H77   H     H_    0.017206 0.638775 0.928371 0.046820
H78   H     H_    0.020407 0.364727 0.447787 0.076752
H79   H     H_    0.517155 0.138761 0.928369 0.046684
H80   H     H_    0.520349 0.864709 0.447927 0.076163
H81   H     H_    0.025503 0.622274 0.117157 0.011249
H82   H     H_    0.023882 0.377664 0.647524 0.071277
H83   H     H_    0.525479 0.122299 0.117225 0.011234
H84   H     H_    0.523855 0.877653 0.647645 0.071437
H85   H     H_    0.008827 0.696147 0.101319 0.140533
H86   H     H_    0.009556 0.304337 0.593964 0.106920
H87   H     H_    0.508763 0.196167 0.100920 0.140317
H88   H     H_    0.509470 0.804331 0.593998 0.107007
H89   H     H_    0.894300 0.520152 0.251678 -0.022351
H90   H     H_    0.874436 0.504477 0.801213 0.063679
H91   H     H_    0.394195 0.020091 0.252021 -0.021488
H92   H     H_    0.374228 0.004671 0.801100 0.064927
H93   H     H_    0.899827 0.533028 0.050707 0.035383
H94   H     H_    0.907317 0.474943 0.728062 -0.061233
H95   H     H_    0.399838 0.033023 0.051269 0.034471
H96   H     H_    0.407215 0.975083 0.729349 -0.061338
N1    N     N_R   0.854746 0.347043 0.934145 -0.420394
N2    N     N_R   0.856425 0.653437 0.427829 -0.425073
N3    N     N_R   0.354650 0.847106 0.933719 -0.420407
N4    N     N_R   0.356400 0.153411 0.427739 -0.425129
N5    N     N_R   0.146290 0.648534 0.245783 -0.409495
N6    N     N_R   0.147992 0.352241 0.747205 -0.424321
N7    N     N_R   0.646295 0.148531 0.245820 -0.409547
N8    N     N_R   0.647978 0.852245 0.747062 -0.424134
O1    O     O_2   0.072110 0.546320 0.923350 -0.465582
O2    O     O_2   0.072110 0.453680 0.423350 -0.465171
O3    O     O_2   0.572110 0.046320 0.923350 -0.465408
O4    O     O_2   0.572110 0.953680 0.423350 -0.465307
O5    O     O_3   0.886710 0.508960 0.569505 -0.595913
O6    O     O_3   0.881670 0.485342 0.083348 -0.641499
O7    O     O_3   0.386765 0.008908 0.569538 -0.595725
O8    O     O_3   0.381664 0.985338 0.083329 -0.641044
O9    O     O_3   0.972958 0.644132 0.072785 -0.577227
O10   O     O_3   0.973732 0.356019 0.572223 -0.610686
O11   O     O_3   0.472917 0.144119 0.072839 -0.577160
O12   O     O_3   0.473681 0.856039 0.572484 -0.610600
O13   O     O_3   0.958050 0.483830 0.034350 -0.506655
O14   O     O_3   0.958050 0.516170 0.534350 -0.480597
O15   O     O_3   0.458050 0.983830 0.034350 -0.506680
O16   O     O_3   0.458050 0.016170 0.534350 -0.480405
O17   O     O_2   0.809095 0.385045 0.961301 -0.601425
O18   O     O_2   0.810010 0.616067 0.435459 -0.568318
O19   O     O_2   0.309041 0.885109 0.961772 -0.601066
O20   O     O_2   0.309959 0.116058 0.434826 -0.568404
O21   O     O_2   0.111130 0.689594 0.344676 -0.603012
O22   O     O_2   0.114085 0.311393 0.852926 -0.586251
O23   O     O_2   0.611081 0.189606 0.344243 -0.603016
O24   O     O_2   0.614115 0.811404 0.852996 -0.586410
O25   O     O_2   0.895022 0.305249 0.891430 -0.544703
O26   O     O_2   0.898025 0.694472 0.397282 -0.528164
O27   O     O_2   0.394859 0.805315 0.889997 -0.545031
O28   O     O_2   0.398039 0.194432 0.397670 -0.528210
O29   O     O_2   0.184968 0.610504 0.145054 -0.596022
O30   O     O_2   0.186075 0.390292 0.645070 -0.591687
O31   O     O_2   0.685028 0.110480 0.145624 -0.596003
O32   O     O_2   0.686000 0.890285 0.644511 -0.591928
O33   O     O_3   0.042000 0.516250 0.155330 -0.496475
O34   O     O_3   0.042000 0.483750 0.655330 -0.497795
O35   O     O_3   0.542000 0.016250 0.155330 -0.496514
O36   O     O_3   0.542000 0.983750 0.655330 -0.497678
O37   O     O_3   0.012540 0.574900 0.645500 -0.446829
O38   O     O_3   0.012540 0.425100 0.145500 -0.480703
O39   O     O_3   0.512540 0.074900 0.645500 -0.446808
O40   O     O_3   0.512540 0.925100 0.145500 -0.480670
O41   O     O_2   0.072091 0.600538 0.797064 -0.468264
O42   O     O_2   0.072791 0.399982 0.290958 -0.459446
O43   O     O_2   0.572078 0.100550 0.797110 -0.468203
O44   O     O_2   0.572792 0.899974 0.290970 -0.459579
O45   O     O_3   0.116604 0.512193 0.104967 -0.639744
O46   O     O_3   0.116593 0.487499 0.605274 -0.639002
O47   O     O_3   0.616599 0.012186 0.104929 -0.639945
O48   O     O_3   0.616601 0.987488 0.605401 -0.639065
O49   O     O_3   0.038529 0.645552 0.632184 -0.614405
O50   O     O_3   0.039744 0.354897 0.127542 -0.598620
O51   O     O_3   0.538500 0.145552 0.632170 -0.614488
O52   O     O_3   0.539733 0.854898 0.127538 -0.598809
O53   O     O_2   0.928110 0.546600 0.766510 -0.491443
O54   O     O_2   0.928110 0.453400 0.266510 -0.440790
O55   O     O_2   0.428110 0.046600 0.766510 -0.491645
O56   O     O_2   0.428110 0.953400 0.266510 -0.440692
O57   O     O_3   0.987780 0.574950 0.044470 -0.507254
O58   O     O_3   0.987780 0.425050 0.544470 -0.491699
O59   O     O_3   0.487780 0.074950 0.044470 -0.507282
O60   O     O_3   0.487780 0.925050 0.544470 -0.491667
O61   O     O_2   0.936011 0.606101 0.875760 -0.442780
O62   O     O_2   0.934302 0.394698 0.390205 -0.447475
O63   O     O_2   0.436000 0.106091 0.875705 -0.442645
O64   O     O_2   0.434308 0.894701 0.390168 -0.447587
P1    P     P_3+3 0.075650 0.535480 0.098240 0.983955
P2    P     P_3+3 0.075650 0.464520 0.598240 0.983927
P3    P     P_3+3 0.575650 0.035480 0.098240 0.983881
P4    P     P_3+3 0.575650 0.964520 0.598240 0.983928
P5    P     P_3+3 0.924520 0.535770 0.591580 1.059702
P6    P     P_3+3 0.924520 0.464230 0.091580 1.006895
P7    P     P_3+3 0.424520 0.035770 0.591580 1.059977
P8    P     P_3+3 0.424520 0.964230 0.091580 1.007035
P9    P     P_3+3 0.952683 0.604633 0.044548 1.008506
P10   P     P_3+3 0.953083 0.395536 0.555153 1.031465
P11   P     P_3+3 0.452661 0.104615 0.044515 1.008654
P12   P     P_3+3 0.453059 0.895560 0.555168 1.031484
P13   P     P_3+3 0.050711 0.397673 0.133747 1.004149
P14   P     P_3+3 0.050442 0.602740 0.638683 1.012890
P15   P     P_3+3 0.550709 0.897670 0.133759 1.004111
P16   P     P_3+3 0.550435 0.102745 0.638708 1.012946
C177  C     C_2   0.821945 0.524492 0.274645 0.905212
O65   O     O_2   0.833003 0.537816 0.395397 -0.517225
O66   O     O_R   0.791239 0.503420 0.283203 -0.682882
H97   H     H_    0.781092 0.493839 0.181714 0.287840
C178  C     C_2   0.811723 0.481715 0.640702 0.981097
O67   O     O_2   0.808984 0.511619 0.663418 -0.480600
O68   O     O_R   0.779432 0.464014 0.600424 -0.678899
H98   H     H_    0.783486 0.439360 0.583047 0.271907
C179  C     C_2   0.321891 0.024846 0.274868 0.905181
O69   O     O_2   0.333412 0.037954 0.395431 -0.518658
O70   O     O_R   0.290648 0.004442 0.283944 -0.680839
H99   H     H_    0.279634 0.995735 0.182064 0.286561
C180  C     C_2   0.311736 0.981751 0.639845 0.982439
O71   O     O_2   0.308844 0.011560 0.663375 -0.481756
O72   O     O_R   0.279624 0.964139 0.597717 -0.678898
H100  H     H_    0.283754 0.939533 0.579977 0.271393
N9    N     N_3   0.842764 0.569171 0.104852 -0.519527
H101  H     H_    0.848321 0.580277 0.212968 0.190484
H102  H     H_    0.816502 0.578164 0.070892 0.199100
N10   N     N_3   0.848002 0.439212 0.781543 -0.547254
H103  H     H_    0.837979 0.449518 0.883499 0.205516
H104  H     H_    0.829792 0.420302 0.746656 0.211005
N11   N     N_3   0.342706 0.069116 0.102885 -0.519358
H105  H     H_    0.348199 0.080438 0.210566 0.189717
H106  H     H_    0.316450 0.078047 0.068441 0.198077
N12   N     N_3   0.347855 0.939320 0.781837 -0.546728
H107  H     H_    0.338089 0.949790 0.883909 0.206010
H108  H     H_    0.329333 0.920614 0.747416 0.210944
N13   N     N_3   0.821498 0.519298 0.985274 -0.470562
H109  H     H_    0.794810 0.529460 0.976652 0.198166
H110  H     H_    0.818447 0.493637 0.995313 0.183134
N14   N     N_3   0.858244 0.447663 0.510884 -0.463381
H111  H     H_    0.839817 0.428122 0.488095 0.177762
H112  H     H_    0.854677 0.464595 0.418505 0.243628
N15   N     N_3   0.321450 0.018917 0.985831 -0.471660
H113  H     H_    0.294952 0.029413 0.974952 0.197631
H114  H     H_    0.317933 0.993368 0.998820 0.184430
N16   N     N_3   0.358447 0.947664 0.511441 -0.463476
H115  H     H_    0.340359 0.927843 0.489314 0.177378
H116  H     H_    0.354618 0.964464 0.418646 0.243176
N17   N     N_3   0.169820 0.464095 0.956440 -0.462281
H117  H     H_    0.156058 0.454041 0.857739 0.199983
H118  H     H_    0.173453 0.489550 0.936271 0.214365
N18   N     N_3   0.169933 0.534786 0.455353 -0.463048
H119  H     H_    0.173499 0.509260 0.436375 0.214306
H120  H     H_    0.156267 0.544794 0.356119 0.199246
N19   N     N_3   0.669830 0.964041 0.956762 -0.462403
H121  H     H_    0.656088 0.953978 0.858035 0.199899
H122  H     H_    0.673482 0.989491 0.936518 0.214453
N20   N     N_3   0.670142 0.034378 0.455422 -0.463035
H123  H     H_    0.673750 0.008799 0.437964 0.214305
H124  H     H_    0.656569 0.044130 0.355346 0.199764
C181  C     C_2   0.984401 0.644416 0.470733 0.832446
O73   O     O_2   0.968830 0.665228 0.387439 -0.574652
O74   O     O_R   0.988946 0.612195 0.419174 -0.798227
H125  H     H_    0.990423 0.610558 0.304098 0.274619
C182  C     C_2   0.985195 0.349789 0.969483 0.802495
O75   O     O_2   0.990285 0.374411 0.890614 -0.691613
O76   O     O_R   0.965152 0.323086 0.906630 -0.730126
H126  H     H_    0.955371 0.327080 0.796260 0.364875
C183  C     C_2   0.484378 0.144380 0.470669 0.832271
O77   O     O_2   0.468798 0.165181 0.387345 -0.574678
O78   O     O_R   0.488937 0.112157 0.419146 -0.798235
H127  H     H_    0.490402 0.110510 0.304069 0.274650
C184  C     C_2   0.485150 0.849826 0.969649 0.802219
O79   O     O_2   0.490283 0.874435 0.890739 -0.691516
O80   O     O_R   0.465009 0.823167 0.906929 -0.730100
H128  H     H_    0.455246 0.827171 0.796537 0.365080
N21   N     N_3   0.010582 0.713309 0.581370 -0.448770
H129  H     H_    0.037043 0.705608 0.551339 0.237132
H130  H     H_    0.994562 0.716537 0.478440 0.231045
N22   N     N_3   0.012745 0.286155 0.124153 -0.491776
H131  H     H_    0.037102 0.293692 0.072309 0.246589
H132  H     H_    0.994505 0.277292 0.036369 0.233989
N23   N     N_3   0.510512 0.213293 0.581302 -0.448740
H133  H     H_    0.536995 0.205623 0.551464 0.237089
H134  H     H_    0.494521 0.216486 0.478282 0.231080
N24   N     N_3   0.512730 0.786168 0.123927 -0.491861
H135  H     H_    0.537090 0.793696 0.072293 0.246564
H136  H     H_    0.494508 0.777374 0.036079 0.233950
C185  C     C_2   0.954207 0.697295 0.713138 0.926880
O81   O     O_2   0.946039 0.725938 0.746924 -0.559525
O82   O     O_R   0.926993 0.672721 0.708188 -0.728764
H137  H     H_    0.901902 0.681775 0.736547 0.336322
C186  C     C_2   0.956777 0.306112 0.251156 0.962155
O83   O     O_2   0.931593 0.325034 0.212179 -0.523644
O84   O     O_R   0.948564 0.277457 0.335815 -0.697803
H138  H     H_    0.971358 0.263802 0.365680 0.289171
C187  C     C_2   0.454137 0.197249 0.713005 0.927016
O85   O     O_2   0.445936 0.225900 0.746524 -0.559611
O86   O     O_R   0.426956 0.172646 0.708372 -0.728860
H139  H     H_    0.401859 0.181685 0.736736 0.336282
C188  C     C_2   0.456795 0.806087 0.251205 0.962211
O87   O     O_2   0.431602 0.825022 0.212471 -0.523428
O88   O     O_R   0.448596 0.777399 0.335599 -0.697655
H140  H     H_    0.471400 0.763744 0.365396 0.289267
C189  C     C_2   0.872133 0.400493 0.164239 0.976298
O89   O     O_2   0.854267 0.425453 0.192913 -0.611922
O90   O     O_R   0.868921 0.372001 0.256774 -0.704187
H141  H     H_    0.852068 0.375506 0.347668 0.293094
C190  C     C_2   0.871488 0.598316 0.655328 0.974312
O91   O     O_2   0.867705 0.623700 0.732204 -0.607011
O92   O     O_R   0.853998 0.569127 0.700096 -0.680293
H142  H     H_    0.838451 0.572480 0.794945 0.334945
C191  C     C_2   0.372171 0.900434 0.164264 0.976300
O93   O     O_2   0.354316 0.925374 0.193321 -0.611805
O94   O     O_R   0.368991 0.871895 0.256494 -0.704099
H143  H     H_    0.352138 0.875334 0.347419 0.292979
C192  C     C_2   0.371414 0.098260 0.655087 0.974058
O95   O     O_2   0.367614 0.123621 0.732115 -0.607080
O96   O     O_R   0.353885 0.069064 0.699475 -0.680563
H144  H     H_    0.338208 0.072406 0.793913 0.334745
N25   N     N_3   0.180850 0.795703 0.335663 -0.499985
H145  H     H_    0.206372 0.806659 0.363785 0.191118
H146  H     H_    0.163202 0.811639 0.271271 0.188139
N26   N     N_3   0.182662 0.204383 0.825724 -0.500838
H147  H     H_    0.164935 0.189130 0.758784 0.189429
H148  H     H_    0.208127 0.192906 0.851718 0.192159
N27   N     N_3   0.680726 0.295748 0.334811 -0.499989
H149  H     H_    0.706224 0.306728 0.363159 0.191162
H150  H     H_    0.663101 0.311648 0.270112 0.188197
N28   N     N_3   0.682888 0.704479 0.826951 -0.500826
H151  H     H_    0.665132 0.689166 0.760500 0.189459
H152  H     H_    0.708381 0.693039 0.852755 0.192162
C193  C     C_2   0.062632 0.684746 0.020076 0.866147
O97   O     O_2   0.086610 0.664073 0.995373 -0.611441
O98   O     O_R   0.066002 0.717256 0.964041 -0.722977
H153  H     H_    0.089508 0.720585 0.904878 0.322475
C194  C     C_2   0.065378 0.316034 0.545671 0.864197
O99   O     O_2   0.077867 0.287809 0.560322 -0.571223
O100  O     O_R   0.084190 0.339611 0.458788 -0.751562
H154  H     H_    0.107881 0.330441 0.415259 0.314659
C195  C     C_2   0.562588 0.184742 0.019953 0.866305
O101  O     O_2   0.586576 0.164062 0.995504 -0.611435
O102  O     O_R   0.565965 0.217233 0.963673 -0.723022
H155  H     H_    0.589485 0.220542 0.904582 0.322445
C196  C     C_2   0.565304 0.816021 0.545796 0.864966
O103  O     O_2   0.577680 0.787761 0.559688 -0.571271
O104  O     O_R   0.584252 0.839648 0.459871 -0.751980
H156  H     H_    0.607915 0.830477 0.416143 0.314680

loop_
_geom_bond_atom_site_label_1
_geom_bond_atom_site_label_2
_ccdc_geom_bond_type
O78   H127  S    
C83   C87   A    
N19   H122  S    
C108  P15   S    
C29   C41   A    
C188  O87   D    
O100  H154  S    
O88   H140  S    
C60   C68   A    
C31   C43   A    
N26   H147  S    
C74   H34   S    
C76   H36   S    
C191  O93   D    
C134  H94   S    
C167  N19   S    
C171  C183  S    
N14   H112  S    
O33   P1    S    
O39   P16   S    
Ba2   O54   S    
C5    O25   D    
C25   N1    S    
C102  H30   S    
C7    O27   D    
C58   C66   A    
N15   H114  S    
C144  C156  A    
C145  C149  A    
C2    N22   S    
C36   C176  A    
C7    C43   A    
C53   C105  S    
C148  C152  A    
C186  O84   S    
C112  P4    S    
C55   C107  S    
C92   H24   S    
C164  H12   S    
Ba4   O60   S    
O40   P15   S    
C147  C151  A    
C89   H21   S    
C8    N4    Am   
C8    C44   A    
C189  O90   S    
C162  H6    S    
N20   H124  S    
C172  O52   S    
C126  C130  A    
C156  H68   S    
C161  C165  S    
C131  C155  A    
C55   H75   S    
O90   H141  S    
C164  O48   S    
Ba1   O14   S    
C24   C28   S    
O15   P8    S    
C167  H15   S    
C82   C86   A    
C23   C191  S    
C133  H89   S    
C165  H13   S    
C2    C170  S    
C141  H45   S    
C46   O10   S    
Ba3   O3    S    
C185  O81   D    
O12   P12   S    
C20   P7    S    
C141  C153  A    
C174  N2    Am   
Ba1   O37   S    
C3    C187  S    
O44   P15   D    
C12   C16   S    
C96   N8    Am   
C57   C123  A    
C16   P11   S    
C123  C139  A    
C48   O12   S    
C69   N25   S    
C124  C140  A    
Ba3   O15   S    
C61   C131  A    
C62   C132  A    
O4    P4    D    
N18   H120  S    
C194  O100  S    
N9    H101  S    
C12   H44   S    
N11   H105  S    
C70   N26   S    
O37   P14   S    
O96   H144  S    
N22   H131  S    
C171  H3    S    
C134  H90   S    
Ba1   O13   S    
C172  H4    S    
C54   C106  S    
C80   C84   A    
C159  N15   S    
N10   H104  S    
O41   P14   D    
C19   C51   D    
C115  C119  S    
C20   C52   D    
C163  H11   S    
N13   H109  S    
C176  O20   D    
C146  H50   S    
C163  C167  S    
C174  O18   D    
Ba4   P8    S    
O10   P10   S    
N17   H117  S    
C136  O7    S    
C72   N28   S    
C62   C66   A    
O53   P5    D    
C157  N9    S    
O6    P6    S    
C54   H74   S    
Ba1   O57   S    
N28   H151  S    
C123  C127  A    
Ba3   O59   S    
C121  C125  A    
C89   H85   S    
N25   H146  S    
C162  O46   S    
Ba1   P5    S    
C69   C73   A    
O13   P6    S    
C171  O51   S    
Ba4   O16   S    
C45   C89   S    
C177  O65   D    
C71   C75   A    
O48   P4    S    
C47   C91   S    
C14   P9    S    
C92   H88   S    
C133  C157  S    
C182  O75   D    
C166  N18   S    
Ba1   Ba2   S    
O74   H125  S    
C144  H48   S    
O45   P1    S    
C176  N4    Am   
C170  H2    S    
C160  C180  S    
C18   C50   D    
C42   C142  A    
C189  O89   D    
C87   C151  A    
O52   P15   S    
C79   C99   A    
O50   P13   S    
C41   C141  A    
Ba1   O53   S    
C140  H40   S    
C134  O5    S    
C163  O47   S    
C32   C128  A    
C97   O21   D    
C91   H23   S    
N15   H113  S    
C48   H80   S    
C56   H76   S    
C114  C118  S    
C138  H38   S    
C169  O49   S    
C45   H77   S    
C147  H51   S    
O80   H128  S    
C121  C137  A    
C30   C42   A    
C63   C67   A    
C107  P16   S    
C2    H54   S    
C196  O103  D    
C61   C145  A    
C17   P6    S    
O54   P6    D    
C135  H95   S    
C133  O6    S    
C117  N5    S    
O7    P7    S    
C160  N16   S    
C181  O74   S    
Ba2   O58   S    
C22   C190  S    
C120  N8    S    
C6    O26   D    
C43   C143  A    
C26   N2    S    
O34   P2    S    
Ba2   P6    S    
C88   C152  A    
C143  H47   S    
C46   C90   S    
C53   C109  D    
C46   H78   S    
C47   H83   S    
C2    C186  S    
Ba3   P3    S    
C112  C116  D    
C195  O102  S    
C93   N5    Am   
C91   H87   S    
N27   H149  S    
Ba2   P2    S    
C128  C132  A    
C105  P14   S    
C102  C118  D    
C78   C98   A    
C45   O9    S    
C193  O98   S    
C109  C113  D    
C130  C154  A    
C22   C26   S    
C111  C115  D    
C70   C74   A    
C80   C100  A    
O59   P11   S    
C56   C112  D    
Ba2   O13   S    
Ba3   Ba4   S    
O57   P9    S    
C165  H17   S    
N16   H115  S    
C170  O50   S    
C101  C105  S    
O61   P9    D    
C1    C169  S    
C72   C76   A    
O63   P11   D    
N11   H106  S    
N26   H148  S    
C35   C175  A    
O104  H156  S    
C4    C172  S    
C11   C27   D    
C142  C154  A    
C170  C182  S    
C136  C160  S    
C33   C173  A    
C150  H58   S    
C9    C13   S    
C145  H49   S    
C135  C159  S    
O2    P2    D    
C18   P5    S    
C110  P2    S    
C59   C71   A    
C190  O92   S    
O51   P16   S    
C32   C44   A    
C129  C153  A    
C33   C37   A    
C180  O72   S    
C139  H39   S    
O84   H138  S    
C132  C156  A    
C36   C40   A    
C186  O83   D    
C54   C110  D    
C169  C181  S    
C87   C95   A    
N24   H135  S    
C153  H65   S    
C77   C81   A    
C114  H62   S    
C157  N13   S    
C148  H52   S    
O58   P10   S    
C79   C83   A    
C5    C41   A    
C164  H8    S    
C177  O66   S    
C183  O78   S    
C39   C139  A    
C103  C119  D    
C38   C138  A    
C76   C80   A    
Ba1   O1    S    
C73   H33   S    
O72   H100  S    
C11   C15   S    
C1    N21   S    
C8    O28   D    
C91   C195  S    
C9    C25   D    
C104  C120  D    
C62   C146  A    
C179  O70   S    
Ba3   O55   S    
O16   P7    S    
C103  H31   S    
C122  C126  A    
O68   H98   S    
C101  H29   S    
C158  N10   S    
C187  O86   S    
C10   C14   S    
O62   P10   D    
C17   C21   D    
C137  H37   S    
N21   H130  S    
C161  H9    S    
C90   H22   S    
C86   C150  A    
C16   C52   S    
C71   N27   S    
C13   C49   S    
C151  H59   S    
O86   H139  S    
C183  O77   D    
C194  O99   D    
C158  C178  S    
C21   C25   S    
C188  O88   S    
N23   H134  S    
C5    N1    Am   
C103  C107  S    
C48   H84   S    
C7    N3    Am   
C135  O8    S    
C96   O32   D    
N22   H132  S    
C191  O94   S    
C11   H43   S    
C98   O22   D    
O70   H99   S    
C3    H55   S    
C39   H27   S    
O82   H137  S    
O56   P8    D    
C20   C24   D    
N14   H111  S    
O36   P4    S    
Ba1   P1    S    
C172  C184  S    
O14   P5    S    
C9    H41   S    
C166  H14   S    
C45   H81   S    
C77   C97   A    
C142  H46   S    
C57   C69   A    
C184  O79   D    
C23   C27   S    
C122  C138  A    
C29   C33   A    
C104  C108  S    
C64   C68   A    
C31   C35   A    
N23   H133  S    
N25   H145  S    
C64   C148  A    
C65   C81   A    
C159  N11   S    
C17   C49   D    
C73   C77   A    
Ba1   O34   S    
C50   H70   S    
C100  O24   D    
Ba3   O36   S    
N28   H152  S    
C118  N6    S    
C67   C83   A    
C4    H56   S    
C158  N14   S    
N27   H150  S    
C51   H71   S    
C60   C122  A    
N20   H123  S    
C12   C28   D    
O38   P13   S    
C31   C127  A    
C46   H82   S    
C15   C51   S    
C47   H79   S    
C192  O96   S    
C81   C85   A    
Ba4   P4    S    
O42   P13   D    
N12   H108  S    
C94   N6    Am   
N12   H107  S    
C97   N5    Am   
C64   C130  A    
O60   P12   S    
C78   C82   A    
C100  N8    Am   
O9    P9    S    
O46   P2    S    
C61   C65   A    
C52   H72   S    
C95   O31   D    
C38   H26   S    
O5    P5    S    
O47   P3    S    
Ba3   O16   S    
C159  C179  S    
C165  N17   S    
O64   P12   D    
C164  C168  S    
N18   H119  S    
C18   C22   D    
N19   H121  S    
N9    H102  S    
C161  O45   S    
C58   C70   A    
C4    N24   S    
C104  H32   S    
C58   C124  A    
C13   P10   S    
C34   C174  A    
C15   P12   S    
C98   N6    Am   
C90   C194  S    
O66   H97   S    
Ba4   O56   S    
O94   H143  S    
C143  C155  A    
N10   H103  S    
C181  O73   D    
C152  H60   S    
N13   H110  S    
Ba4   O4    S    
C53   H73   S    
O49   P14   S    
C63   C129  A    
C34   C38   A    
C127  C131  A    
N17   H118  S    
O3    P3    D    
O102  H155  S    
O35   P3    S    
C92   C196  S    
C40   H28   S    
C195  O101  D    
C116  H64   S    
C111  P3    S    
C185  O82   S    
C74   C78   A    
C113  C117  S    
C84   C88   A    
C75   C79   A    
C3    C171  S    
C6    C42   A    
C167  H19   S    
O98   H153  S    
C168  H20   S    
Ba4   O15   S    
C19   C23   D    
C27   N3    S    
C193  O97   D    
C47   O11   S    
C28   N4    S    
C173  N1    Am   
Ba2   O2    S    
C75   H35   S    
C175  N3    Am   
C182  O76   S    
C1    H53   S    
C93   O29   D    
Ba2   O14   S    
C124  C128  A    
C99   N7    Am   
C68   C84   A    
N16   H116  S    
C184  O80   S    
C90   H86   S    
Ba3   O39   S    
C63   C147  A    
Ba3   P7    S    
C32   C36   A    
C157  C177  S    
C134  C158  S    
O76   H126  S    
C35   C39   A    
Ba2   O38   S    
C192  O95   D    
C10   C26   D    
C135  H91   S    
C161  H5    S    
C136  H92   S    
C85   C93   A    
C162  H10   S    
C160  N12   S    
C37   C137  A    
C24   C192  S    
C56   C108  S    
C85   C149  A    
O92   H142  S    
C106  P13   S    
C40   C140  A    
C163  H7    S    
C173  O17   D    
C190  O91   D    
C60   C72   A    
C101  C117  D    
O8    P8    S    
C49   H69   S    
C6    N2    Am   
C175  O19   D    
Ba4   O35   S    
C155  H67   S    
C180  O71   D    
C110  C114  D    
C4    C188  S    
C29   C125  A    
C99   O23   D    
C196  O104  S    
C125  C129  A    
C59   C121  A    
N24   H136  S    
C66   C82   A    
C166  H18   S    
C88   C96   A    
C178  O67   D    
C102  C106  S    
C57   C65   A    
C94   O30   D    
C30   C34   A    
C10   H42   S    
C59   C67   A    
O11   P11   S    
C3    N23   S    
C168  N20   S    
Ba2   O33   S    
C149  H57   S    
C89   C193  S    
C136  H96   S    
C19   P8    S    
C119  N7    S    
C179  O69   D    
O1    P1    D    
C109  P1    S    
C21   C189  S    
C44   C144  A    
C133  H93   S    
C162  C166  S    
C48   C92   S    
C169  H1    S    
C37   H25   S    
C187  O85   D    
C168  H16   S    
C14   C50   S    
C1    C185  S    
C30   C126  A    
C55   C111  D    
N21   H129  S    
C146  C150  A    
Ba4   O40   S    
O55   P7    D    
C154  H66   S    
C178  O68   S    
O43   P16   D    
C115  H63   S    
C86   C94   A    
C116  C120  S    
C95   N7    Am   
C113  H61   S    
