data_mof_unit_10312.cif
_audit_creation_date              2013-03-05T16:15:18-0500
_audit_creation_method            fapswitch 2.2
_symmetry_space_group_name_H-M    P1
_symmetry_Int_Tables_number       1
_space_group_crystal_system       triclinic
_cell_length_a                    27.773885
_cell_length_b                    10.637213
_cell_length_c                    9.435496
_cell_angle_alpha                 91.038617
_cell_angle_beta                  90.517568
_cell_angle_gamma                 89.957797
_cell_volume                      2787.01993129

loop_
_atom_site_label
_atom_site_type_symbol
_atom_site_description
_atom_site_fract_x
_atom_site_fract_y
_atom_site_fract_z
_atom_type_partial_charge
O1    O     O_R   0.500020 0.316850 0.620870 -0.574119
O2    O     O_R   0.499980 0.683150 0.379130 -0.574112
O3    O     O_R   0.500000 0.316860 0.379090 -0.599663
O4    O     O_R   0.500000 0.683140 0.620910 -0.599657
C1    C     C_R   0.500034 0.259751 0.498900 0.880414
C2    C     C_R   0.499966 0.740249 0.501100 0.880422
O5    O     O_R   0.430270 0.500020 0.620880 -0.603154
O6    O     O_R   0.569730 0.499980 0.379120 -0.603161
O7    O     O_R   0.430250 0.500030 0.379090 -0.573807
O8    O     O_R   0.569750 0.499970 0.620910 -0.573820
C3    C     C_R   0.407522 0.500152 0.499354 0.840482
C4    C     C_R   0.592478 0.499842 0.500645 0.840489
Cu1   Cu    Cu3+1 0.500010 0.499990 0.643150 0.956421
Cu2   Cu    Cu3+1 0.499990 0.500010 0.356850 0.956419
C5    C     C_R   0.178285 0.388514 0.471093 0.602454
C6    C     C_R   0.821707 0.611520 0.528824 0.602361
O9    O     O_2   0.204169 0.281323 0.463365 -0.442552
O10   O     O_2   0.795811 0.718685 0.536696 -0.442589
N1    N     N_R   0.201972 0.500446 0.488088 -0.481598
N2    N     N_R   0.798028 0.499576 0.511841 -0.481600
C7    C     C_R   0.177750 0.611821 0.497046 0.566817
C8    C     C_R   0.822256 0.388215 0.502842 0.566825
C9    C     C_R   0.278285 0.514148 0.620808 -0.081565
C10   C     C_R   0.721711 0.486145 0.379123 -0.081629
C11   C     C_R   0.328529 0.513586 0.623864 -0.202169
C12   C     C_R   0.671468 0.486694 0.376086 -0.202306
C13   C     C_R   0.329313 0.488762 0.367663 -0.160082
C14   C     C_R   0.670693 0.510916 0.632349 -0.159875
C15   C     C_R   0.279156 0.488673 0.365058 -0.079029
C16   C     C_R   0.720850 0.511008 0.634937 -0.079078
C17   C     C_R   0.253544 0.501287 0.491459 0.334939
C18   C     C_R   0.746457 0.498708 0.508494 0.335045
C19   C     C_R   0.101776 0.498958 0.482305 -0.086100
C20   C     C_R   0.898224 0.501116 0.517500 -0.086074
C21   C     C_R   0.127364 0.385308 0.463182 -0.179814
C22   C     C_R   0.872630 0.614761 0.536611 -0.179881
C23   C     C_R   0.101529 0.274271 0.429399 0.285034
C24   C     C_R   0.898464 0.725828 0.570272 0.285032
C25   C     C_R   0.127343 0.613237 0.494263 -0.018267
C26   C     C_R   0.872663 0.386823 0.505579 -0.018278
C27   C     C_R   0.354501 0.500784 0.497162 -0.013306
C28   C     C_R   0.645499 0.499198 0.502828 -0.013330
H1    H     H_    0.348278 0.478797 0.268345 0.146153
H2    H     H_    0.651732 0.520634 0.731699 0.146139
H3    H     H_    0.260104 0.478869 0.264829 0.147336
H4    H     H_    0.739906 0.520577 0.735183 0.147253
C29   C     C_R   0.974248 0.385427 0.489446 0.094141
C30   C     C_R   0.025755 0.614669 0.510317 0.094116
C31   C     C_R   0.975017 0.614907 0.531387 -0.095544
C32   C     C_R   0.024983 0.385195 0.468359 -0.095496
C33   C     C_R   0.949316 0.500897 0.511447 0.050485
C34   C     C_R   0.050685 0.499195 0.488327 0.050491
C35   C     C_R   0.947748 0.272802 0.499705 -0.084515
C36   C     C_R   0.052262 0.727284 0.500058 -0.084517
C37   C     C_R   0.897873 0.273354 0.502414 -0.085982
C38   C     C_R   0.102139 0.726714 0.497400 -0.086036
O11   O     O_2   0.797543 0.279225 0.491184 -0.477696
O12   O     O_2   0.202469 0.720801 0.508703 -0.477744
C39   C     C_R   0.050912 0.276515 0.421182 0.208982
C40   C     C_R   0.949081 0.723600 0.578495 0.209107
H5    H     H_    0.653044 0.477118 0.274821 0.149786
H6    H     H_    0.346950 0.523399 0.725108 0.149734
H7    H     H_    0.741454 0.476567 0.281080 0.147832
H8    H     H_    0.258539 0.523969 0.718819 0.147876
H9    H     H_    0.879160 0.184135 0.503904 0.239425
H10   H     H_    0.120857 0.815924 0.495922 0.239437
H11   H     H_    0.964928 0.182518 0.509419 0.222291
H12   H     H_    0.035091 0.817574 0.490296 0.222287
C41   C     C_3   0.542030 0.041077 0.545073 0.412141
C42   C     C_3   0.457970 0.958923 0.454927 0.412130
C43   C     C_3   0.535020 0.954650 0.414318 -0.273802
C44   C     C_3   0.464980 0.045349 0.585682 -0.273809
H13   H     H_    0.564179 0.916388 0.346302 0.168229
H14   H     H_    0.435820 0.083612 0.653698 0.168227
C45   C     C_3   0.499868 0.876676 0.502697 -0.119167
C46   C     C_3   0.500132 0.123324 0.497303 -0.119159
C47   C     C_3   0.507957 0.962079 0.634623 -0.276449
C48   C     C_3   0.492043 0.037921 0.365377 -0.276452
H15   H     H_    0.515895 0.931996 0.744331 0.160049
H16   H     H_    0.484105 0.068004 0.255669 0.160044
C49   C     C_3   0.518383 0.603214 0.053713 -0.075231
C50   C     C_3   0.481617 0.396786 0.946287 -0.075234
C51   C     C_3   0.475140 0.592030 0.952650 0.209524
C52   C     C_3   0.524860 0.407970 0.047350 0.209490
H17   H     H_    0.533635 0.690153 0.103046 0.123192
H18   H     H_    0.466365 0.309847 0.896954 0.123200
N3    N     N_3   0.500040 0.499970 0.858290 -0.178601
N4    N     N_3   0.499960 0.500030 0.141710 -0.178604
C53   C     C_3   0.543458 0.510508 0.950456 -0.067651
C54   C     C_3   0.456542 0.489492 0.049544 -0.067639
H19   H     H_    0.579990 0.519241 0.905111 0.120692
H20   H     H_    0.420009 0.480759 0.094889 0.120701
N5    N     N_R   0.589109 0.084309 0.594965 0.113619
O13   O     O_R   0.621326 0.002701 0.633441 -0.340132
O14   O     O_R   0.599540 0.203434 0.599666 -0.388645
N6    N     N_R   0.410891 0.915690 0.405035 0.113617
O15   O     O_R   0.378674 0.997299 0.366559 -0.340138
O16   O     O_R   0.400460 0.796566 0.400333 -0.388611
C55   C     C_3   0.446074 0.703654 0.898596 -0.421474
C56   C     C_3   0.421219 0.774575 0.020509 -0.370283
C57   C     C_3   0.395342 0.891375 0.967209 -0.745525
H21   H     H_    0.421486 0.956962 0.919462 0.231199
H22   H     H_    0.367583 0.864642 0.886708 0.265816
H23   H     H_    0.377431 0.940441 0.057238 0.285944
H24   H     H_    0.394565 0.712155 0.071133 0.244480
H25   H     H_    0.448317 0.804112 0.101965 0.242278
H26   H     H_    0.470988 0.769016 0.846454 0.216344
H27   H     H_    0.418660 0.669822 0.820634 0.225017
C58   C     C_3   0.553926 0.296346 0.101405 -0.421459
C59   C     C_3   0.578784 0.225430 0.979493 -0.370271
C60   C     C_3   0.604638 0.108590 0.032779 -0.745537
H28   H     H_    0.632388 0.135272 0.113329 0.265839
H29   H     H_    0.578479 0.043008 0.080461 0.231177
H30   H     H_    0.622557 0.059538 0.942754 0.285942
H31   H     H_    0.551691 0.195938 0.898003 0.242301
H32   H     H_    0.605452 0.287838 0.928914 0.244428
H33   H     H_    0.581339 0.330176 0.179372 0.225052
H34   H     H_    0.529011 0.230983 0.153541 0.216348
N7    N     N_R   0.126307 0.161823 0.387074 0.200573
O17   O     O_R   0.133120 0.072557 0.477507 -0.278085
O18   O     O_R   0.141117 0.147539 0.257374 -0.264855
N8    N     N_R   0.873686 0.838337 0.612373 0.200506
O19   O     O_R   0.866741 0.927288 0.521626 -0.278003
O20   O     O_R   0.859113 0.853131 0.742250 -0.264649
N9    N     N_R   0.027250 0.177172 0.341992 0.133373
O21   O     O_R   0.034738 0.059913 0.372494 -0.293252
O22   O     O_R   0.999581 0.204028 0.234659 -0.293335
N10   N     N_R   0.972736 0.823030 0.657560 0.133395
O23   O     O_R   0.000397 0.796297 0.764950 -0.293303
O24   O     O_R   0.965234 0.940252 0.626915 -0.293396

loop_
_geom_bond_atom_site_label_1
_geom_bond_atom_site_label_2
_geom_bond_distance
_ccdc_geom_bond_type
C51   N3    1.486083 S    
N5    O13   1.300171 A    
C42   C48   1.535246 S    
C41   C47   1.535244 S    
C60   H28   1.110923 S    
C44   C46   1.541919 S    
N1    C17   1.432441 S    
N10   O23   1.301494 A    
C8    O11   1.349990 S    
C58   H33   1.109527 S    
C2    C45   1.451006 S    
C19   C34   1.420661 A    
C30   C36   1.411797 A    
C55   H27   1.109521 S    
C56   H24   1.111596 S    
C19   C25   1.410495 A    
C31   C40   1.427998 A    
O1    C1    1.291519 A    
C32   C39   1.427980 A    
C21   C23   1.412442 A    
C12   H5    1.082997 S    
C46   C48   1.542566 S    
C41   N5    1.457638 S    
C48   H16   1.109197 S    
C13   C15   1.393034 A    
C50   N3    1.482381 S    
C41   C46   1.525135 S    
C14   C28   1.406358 A    
O4    Cu1   1.963252 S    
C41   C43   1.536233 S    
C59   C60   1.525745 S    
C4    C28   1.472564 S    
C37   H9    1.082740 S    
C5    N1    1.366926 A    
C42   N6    1.457636 S    
C25   C38   1.394910 A    
C31   C33   1.416431 A    
N6    O16   1.299938 A    
C32   C34   1.416388 A    
C53   H19   1.109328 S    
C6    N2    1.366920 A    
C29   C35   1.411778 A    
C49   C53   1.543735 S    
C35   C37   1.385698 A    
N5    O14   1.299938 A    
C51   C55   1.527991 S    
Cu1   Cu2   2.701380 S    
O2    C2    1.291520 A    
C35   H11   1.077086 S    
C5    C21   1.415972 A    
C49   C51   1.530144 S    
C58   H34   1.106114 S    
C29   C32   1.424850 A    
N7    O18   1.300837 A    
C36   C38   1.385722 A    
C16   C18   1.398506 A    
C57   H21   1.111284 S    
C40   N10   1.438877 S    
C44   H14   1.110334 S    
C11   C27   1.406291 A    
C43   H13   1.110331 S    
C29   C33   1.422447 A    
C50   H18   1.110299 S    
C14   H2    1.082632 S    
C15   H3    1.082917 S    
C9    C17   1.399777 A    
O5    C3    1.304212 A    
O7    Cu2   1.950168 S    
C10   C18   1.399761 A    
C44   C47   1.557536 S    
O7    C3    1.303471 A    
C13   C27   1.406348 A    
C54   H20   1.109330 S    
C55   C56   1.533307 S    
C23   N7    1.431870 S    
C30   C34   1.422449 A    
O6    C4    1.304207 A    
C26   C37   1.394916 A    
C8    C26   1.400087 A    
N6    O15   1.300172 A    
Cu1   N3    2.029950 S    
C20   C33   1.420681 A    
C47   H15   1.109198 S    
C60   H29   1.111291 S    
C6    O10   1.348686 S    
C24   N8    1.431856 S    
C45   C47   1.542565 S    
C23   C39   1.407485 A    
O3    Cu2   1.963251 S    
O8    C4    1.303481 A    
C24   C40   1.407470 A    
O4    C2    1.293004 A    
C9    H8    1.082819 S    
N4    C54   1.483479 S    
C10   H7    1.082819 S    
C50   C52   1.530146 S    
N3    C53   1.483479 S    
N9    O21   1.301311 A    
C20   C26   1.410529 A    
O1    Cu1   1.955618 S    
C52   C53   1.528997 S    
N8    O20   1.300843 A    
C59   H32   1.111599 S    
C12   C28   1.406298 A    
N2    C18   1.432420 S    
C5    O9    1.348690 S    
C51   C54   1.528998 S    
C30   C31   1.424912 A    
O6    Cu2   1.946428 S    
N1    C7    1.363633 A    
C7    C25   1.400102 A    
C16   H4    1.082913 S    
C52   N4    1.486080 S    
N2    C8    1.363614 A    
O3    C1    1.293004 A    
O8    Cu1   1.950168 S    
N10   O24   1.301316 A    
N7    O17   1.300657 A    
C57   H23   1.110248 S    
C55   H26   1.106112 S    
C56   H25   1.112206 S    
C52   C58   1.527993 S    
C50   C54   1.543734 S    
C1    C46   1.451006 S    
C22   C24   1.412448 A    
Cu2   N4    2.029950 S    
C7    O12   1.349989 S    
C15   C17   1.398516 A    
C39   N9    1.438895 S    
C6    C22   1.416000 A    
C43   C45   1.541919 S    
C10   C12   1.395497 A    
C38   H10   1.082725 S    
C14   C16   1.393043 A    
C56   C57   1.525742 S    
C19   C21   1.411458 A    
C3    C27   1.472550 S    
C60   H30   1.110244 S    
C20   C22   1.411482 A    
C11   H6    1.082993 S    
C9    C11   1.395508 A    
O2    Cu2   1.955617 S    
C49   N4    1.482382 S    
C13   H1    1.082635 S    
O5    Cu1   1.946428 S    
C36   H12   1.077076 S    
C57   H22   1.110923 S    
C42   C45   1.525137 S    
N9    O22   1.301491 A    
C42   C44   1.536233 S    
N8    O19   1.300672 A    
C58   C59   1.533310 S    
C59   H31   1.112207 S    
C43   C48   1.557537 S    
C49   H17   1.110300 S    
