data_mof_unit_27563.cif
_audit_creation_date              2012-12-10T20:53:09-0500
_audit_creation_method            fapswitch 2.2
_symmetry_space_group_name_H-M    P1
_symmetry_Int_Tables_number       1
_space_group_crystal_system       triclinic
_cell_length_a                    18.357607
_cell_length_b                    18.35769
_cell_length_c                    18.35743
_cell_angle_alpha                 59.897291
_cell_angle_beta                  59.902292
_cell_angle_gamma                 59.900592
_cell_volume                      4364.60721822

loop_
_atom_site_label
_atom_site_type_symbol
_atom_type_description
_atom_site_fract_x
_atom_site_fract_y
_atom_site_fract_z
_atom_type_partial_charge
C1    C     C_R   0.389902 0.110168 0.110158 0.785805
C2    C     C_R   0.377795 0.798832 0.776595 -0.077716
C3    C     C_R   0.035826 0.550342 0.909619 0.076024
C4    C     C_R   0.448910 0.090093 0.964459 0.076101
C5    C     C_R   0.551109 0.909917 0.035529 0.076110
C6    C     C_R   0.945910 0.946007 0.553872 -0.148093
C7    C     C_R   0.054091 0.053991 0.446125 -0.148091
C8    C     C_R   0.946013 0.553876 0.945905 -0.148120
C9    C     C_R   0.054008 0.446120 0.054076 -0.148130
C10   C     C_R   0.553877 0.945917 0.946003 -0.148377
C11   C     C_R   0.446122 0.054086 0.053994 -0.148371
C12   C     C_R   0.201258 0.223403 0.622252 -0.077848
C13   C     C_R   0.798751 0.776597 0.377753 -0.077860
C14   C     C_R   0.178150 0.582038 0.290403 -0.268990
C15   C     C_R   0.821845 0.417975 0.709609 -0.268980
C16   C     C_R   0.581981 0.290384 0.178201 -0.268954
C17   C     C_R   0.417995 0.709617 0.821811 -0.268974
C18   C     C_R   0.290454 0.178181 0.582037 -0.269309
C19   C     C_R   0.709554 0.821813 0.417973 -0.269271
C20   C     C_R   0.091442 0.584098 0.315546 0.014053
C21   C     C_R   0.610099 0.889831 0.889841 0.785811
C22   C     C_R   0.908560 0.415903 0.684455 0.014045
C23   C     C_R   0.584083 0.315545 0.091469 0.014038
C24   C     C_R   0.415915 0.684456 0.908534 0.014034
C25   C     C_R   0.315571 0.091484 0.584081 0.014079
C26   C     C_R   0.684430 0.908515 0.415919 0.014089
C27   C     C_R   0.050419 0.626717 0.250564 0.659045
C28   C     C_R   0.949591 0.373282 0.749431 0.659024
C29   C     C_R   0.626733 0.250576 0.050432 0.659065
C30   C     C_R   0.373283 0.749426 0.949567 0.659091
C31   C     C_R   0.250579 0.050479 0.626697 0.659160
C32   C     C_R   0.110179 0.110150 0.389902 0.785965
C33   C     C_R   0.749417 0.949528 0.373291 0.659138
C34   C     C_R   0.095795 0.667186 0.161521 -0.218440
C35   C     C_R   0.904216 0.332821 0.838478 -0.218426
C36   C     C_R   0.667191 0.161530 0.095817 -0.218443
C37   C     C_R   0.332824 0.838473 0.904185 -0.218432
C38   C     C_R   0.161548 0.095866 0.667170 -0.218478
C39   C     C_R   0.838448 0.904147 0.332812 -0.218473
C40   C     C_R   0.182069 0.665064 0.136893 -0.177487
C41   C     C_R   0.817933 0.334956 0.863118 -0.177457
C42   C     C_R   0.665027 0.136883 0.182116 -0.177476
C43   C     C_R   0.889826 0.889845 0.610098 0.785957
C44   C     C_R   0.334968 0.863120 0.817894 -0.177506
C45   C     C_R   0.136944 0.182133 0.665060 -0.177429
C46   C     C_R   0.863058 0.817877 0.334930 -0.177448
C47   C     C_R   0.989850 0.590589 0.465073 -0.249753
C48   C     C_R   0.010147 0.409411 0.534926 -0.249736
C49   C     C_R   0.590584 0.465074 0.989860 -0.249750
C50   C     C_R   0.409415 0.534926 0.010140 -0.249744
C51   C     C_R   0.465091 0.989877 0.590579 -0.250019
C52   C     C_R   0.534909 0.010120 0.409421 -0.250016
C53   C     C_R   0.944895 0.552431 0.555110 -0.048074
C54   C     C_R   0.110160 0.389900 0.110170 0.785886
C55   C     C_R   0.055102 0.447570 0.444889 -0.048070
C56   C     C_R   0.552432 0.555110 0.944891 -0.048062
C57   C     C_R   0.447567 0.444891 0.055109 -0.048068
C58   C     C_R   0.555114 0.944895 0.552430 -0.047914
C59   C     C_R   0.444886 0.055101 0.447571 -0.047917
C60   C     C_R   0.955195 0.460599 0.590538 0.068119
C61   C     C_R   0.044802 0.539401 0.409462 0.068117
C62   C     C_R   0.460606 0.590538 0.955181 0.068129
C63   C     C_R   0.539393 0.409463 0.044819 0.068132
C64   C     C_R   0.590526 0.955169 0.460608 0.068137
C65   C     C_R   0.889846 0.610098 0.889826 0.785854
C66   C     C_R   0.409475 0.044827 0.539392 0.068142
C67   C     C_R   0.110724 0.390419 0.389757 0.800673
C68   C     C_R   0.889276 0.609581 0.610243 0.800669
C69   C     C_R   0.390416 0.389757 0.110727 0.800667
C70   C     C_R   0.609583 0.610243 0.889273 0.800679
C71   C     C_R   0.389754 0.110725 0.390418 0.800573
C72   C     C_R   0.610246 0.889274 0.609582 0.800567
C73   C     C_R   0.180880 0.926663 0.401293 -0.129550
C74   C     C_R   0.819094 0.073366 0.598662 -0.129504
C75   C     C_R   0.926723 0.401177 0.180838 -0.129611
C76   C     C_R   0.223361 0.622246 0.201194 -0.077761
C77   C     C_R   0.073277 0.598813 0.819156 -0.129680
C78   C     C_R   0.399733 0.180312 0.927231 -0.130010
C79   C     C_R   0.600339 0.819708 0.072735 -0.130046
C80   C     C_R   0.215975 0.837801 0.406140 -0.130143
C81   C     C_R   0.783995 0.162236 0.593809 -0.130116
C82   C     C_R   0.837892 0.405958 0.215911 -0.130302
C83   C     C_R   0.162111 0.594024 0.784093 -0.130262
C84   C     C_R   0.403737 0.215105 0.838696 -0.130476
C85   C     C_R   0.596326 0.784906 0.161274 -0.130459
C86   C     C_R   0.162370 0.784289 0.459556 -0.143948
C87   C     C_R   0.776634 0.377777 0.798823 -0.077727
C88   C     C_R   0.837611 0.215734 0.540422 -0.143986
C89   C     C_R   0.784380 0.459371 0.162312 -0.143928
C90   C     C_R   0.215650 0.540606 0.837687 -0.143944
C91   C     C_R   0.457114 0.161505 0.785195 -0.143945
C92   C     C_R   0.542861 0.838488 0.214803 -0.143889
C93   C     C_R   0.073389 0.819358 0.508396 -0.152974
C94   C     C_R   0.926602 0.180654 0.491600 -0.152960
C95   C     C_R   0.819417 0.508279 0.073356 -0.153170
C96   C     C_R   0.180625 0.491704 0.926628 -0.153163
C97   C     C_R   0.506772 0.072836 0.819948 -0.153090
C98   C     C_R   0.622179 0.201170 0.223421 -0.077690
C99   C     C_R   0.493170 0.927154 0.180064 -0.153099
C100  C     C_R   0.035868 0.909734 0.504014 0.073289
C101  C     C_R   0.964123 0.090275 0.495978 0.073280
C102  C     C_R   0.909770 0.503957 0.035845 0.073203
C103  C     C_R   0.090262 0.496031 0.964132 0.073264
C104  C     C_R   0.503201 0.035576 0.910041 0.073375
C105  C     C_R   0.496784 0.964424 0.089960 0.073377
C106  C     C_R   0.090388 0.964157 0.449706 0.075974
C107  C     C_R   0.909599 0.035857 0.550274 0.075955
C108  C     C_R   0.964195 0.449648 0.090363 0.075995
F1    F     F_    0.967565 0.627331 0.273135 -0.700661
F2    F     F_    0.032450 0.372660 0.726850 -0.700676
F3    F     F_    0.627383 0.273163 0.967557 -0.700607
F4    F     F_    0.372650 0.726838 0.032434 -0.700600
F5    F     F_    0.273129 0.967632 0.627307 -0.700559
F6    F     F_    0.726863 0.032378 0.372675 -0.700564
H1    H     H_    0.810040 0.284887 0.536413 0.136407
H2    H     H_    0.339477 0.562140 0.016580 0.167510
H3    H     H_    0.437890 0.983450 0.660513 0.167457
H4    H     H_    0.562110 0.016546 0.339487 0.167458
H5    H     H_    0.225677 0.965148 0.359725 0.126633
H6    H     H_    0.774300 0.034872 0.640224 0.126609
H7    H     H_    0.965216 0.359603 0.225627 0.126674
H8    H     H_    0.034779 0.640385 0.774357 0.126651
H9    H     H_    0.358213 0.225151 0.965658 0.127323
H10   H     H_    0.641916 0.774884 0.034285 0.127387
H11   H     H_    0.285228 0.810245 0.368647 0.140230
H12   H     H_    0.189952 0.715128 0.463588 0.136398
H13   H     H_    0.714735 0.189801 0.631288 0.140219
H14   H     H_    0.810362 0.368407 0.285138 0.140313
H15   H     H_    0.189616 0.631579 0.714878 0.140326
H16   H     H_    0.365628 0.284130 0.811375 0.140667
H17   H     H_    0.634498 0.715882 0.188578 0.140652
H18   H     H_    0.034822 0.774638 0.549886 0.125624
H19   H     H_    0.965175 0.225373 0.450130 0.125638
H20   H     H_    0.774694 0.549761 0.034795 0.125736
H21   H     H_    0.225364 0.450221 0.965189 0.125705
H22   H     H_    0.548248 0.034323 0.775187 0.126364
H23   H     H_    0.284787 0.536636 0.810138 0.136512
H24   H     H_    0.451651 0.965659 0.224836 0.126310
H25   H     H_    0.216931 0.696275 0.067889 0.164553
H26   H     H_    0.783071 0.303754 0.932127 0.164540
H27   H     H_    0.696228 0.067875 0.216984 0.164533
H28   H     H_    0.303766 0.932128 0.783028 0.164525
H29   H     H_    0.067949 0.217003 0.696275 0.164587
H30   H     H_    0.932053 0.783011 0.303710 0.164584
H31   H     H_    0.290476 0.619893 0.181970 0.200371
H32   H     H_    0.709511 0.380143 0.818058 0.200372
H33   H     H_    0.619793 0.181929 0.290555 0.200297
H34   H     H_    0.715248 0.463341 0.189871 0.136527
H35   H     H_    0.380164 0.818073 0.709467 0.200308
H36   H     H_    0.182051 0.290511 0.619913 0.200326
H37   H     H_    0.817964 0.709486 0.380099 0.200308
H38   H     H_    0.210781 0.548747 0.339706 0.149256
H39   H     H_    0.789207 0.451270 0.660312 0.149248
H40   H     H_    0.548666 0.339675 0.210843 0.149238
H41   H     H_    0.451295 0.660325 0.789173 0.149246
H42   H     H_    0.339767 0.210794 0.548758 0.149213
H43   H     H_    0.660246 0.789192 0.451264 0.149206
H44   H     H_    0.064321 0.699771 0.111433 0.166101
H45   H     H_    0.539457 0.811126 0.283726 0.136562
H46   H     H_    0.935696 0.300233 0.888561 0.166099
H47   H     H_    0.699801 0.111452 0.064332 0.166130
H48   H     H_    0.300231 0.888552 0.935666 0.166128
H49   H     H_    0.111451 0.064407 0.699752 0.166109
H50   H     H_    0.888540 0.935613 0.300218 0.166112
H51   H     H_    0.460498 0.188857 0.716277 0.136566
H52   H     H_    0.983403 0.660531 0.437857 0.167526
H53   H     H_    0.016594 0.339469 0.562143 0.167517
H54   H     H_    0.660522 0.437860 0.983420 0.167501
O1    O     O_3   0.250000 0.250000 0.250000 -0.493853
O2    O     O_R   0.865800 0.694910 0.573470 -0.648570
O3    O     O_R   0.305090 0.426530 0.134200 -0.648590
O4    O     O_R   0.694910 0.573470 0.865800 -0.648591
O5    O     O_R   0.426530 0.134200 0.305090 -0.648672
O6    O     O_R   0.573470 0.865800 0.694910 -0.648680
O7    O     O_R   0.134190 0.426530 0.134200 -0.629455
O8    O     O_R   0.865810 0.573470 0.865800 -0.629456
O9    O     O_R   0.426530 0.134200 0.134190 -0.629584
O10   O     O_R   0.573470 0.865800 0.865810 -0.629591
O11   O     O_R   0.134200 0.134190 0.426530 -0.629468
O12   O     O_3   0.750000 0.750000 0.750000 -0.493850
O13   O     O_R   0.865800 0.865810 0.573470 -0.629467
O14   O     O_R   0.426530 0.305080 0.134210 -0.627499
O15   O     O_R   0.573470 0.694920 0.865790 -0.627492
O16   O     O_R   0.305080 0.134210 0.426530 -0.627507
O17   O     O_R   0.694920 0.865790 0.573470 -0.627507
O18   O     O_R   0.134210 0.426530 0.305080 -0.627539
O19   O     O_R   0.865790 0.573470 0.694920 -0.627542
O20   O     O_R   0.305080 0.134200 0.134200 -0.638581
O21   O     O_R   0.694920 0.865800 0.865800 -0.638599
O22   O     O_R   0.134200 0.134200 0.305080 -0.638401
O23   O     O_R   0.865800 0.865800 0.694920 -0.638389
O24   O     O_R   0.134200 0.305080 0.134200 -0.638539
O25   O     O_R   0.865800 0.694920 0.865800 -0.638538
O26   O     O_R   0.134200 0.305090 0.426530 -0.648573
Zn1   Zn    Zn3+2 0.206620 0.206630 0.380140 0.978590
Zn2   Zn    Zn3+2 0.793380 0.793370 0.619860 0.978590
Zn3   Zn    Zn3+2 0.206630 0.380140 0.206620 0.978564
Zn4   Zn    Zn3+2 0.793370 0.619860 0.793380 0.978559
Zn5   Zn    Zn3+2 0.380140 0.206620 0.206630 0.978451
Zn6   Zn    Zn3+2 0.619860 0.793380 0.793370 0.978452
Zn7   Zn    Zn3+2 0.206620 0.206620 0.206620 0.966523
Zn8   Zn    Zn3+2 0.793380 0.793380 0.793380 0.966519

loop_
_geom_bond_atom_site_label_1
_geom_bond_atom_site_label_2
_ccdc_geom_bond_type
C25   C31   A    
C89   H34   S    
C101  C107  A    
C73   H5    S    
C87   H32   S    
C86   H12   S    
C36   C42   A    
C1    C11   S    
C75   C82   A    
C58   C72   S    
O1    Zn1   S    
O11   Zn1   S    
C9    C108  A    
C29   C36   A    
C33   F6    S    
C33   C39   A    
C82   C89   A    
C54   O24   A    
C92   H45   S    
C34   C40   A    
C23   C29   A    
O1    Zn3   S    
C86   C93   A    
C99   H24   S    
C83   H15   S    
O12   Zn8   S    
C42   C98   A    
C59   C66   A    
C22   C60   S    
C13   C46   A    
O5    Zn5   S    
C80   H11   S    
C77   C83   A    
C40   H25   S    
C4    C104  A    
O20   Zn7   S    
C94   H19   S    
C55   C67   S    
C69   O3    A    
C20   C61   S    
C19   C26   A    
C53   C68   S    
C70   O4    A    
C35   H46   S    
O7    Zn3   S    
C41   H26   S    
C80   C86   A    
C77   H8    S    
C74   C107  A    
C68   O2    A    
C85   C92   A    
C15   C22   A    
C94   C101  A    
C2    C44   A    
C38   C45   A    
C11   C105  A    
O9    Zn5   S    
O24   Zn7   S    
C32   O11   A    
O4    Zn4   S    
O23   Zn8   S    
C72   O6    A    
C5    C79   A    
C67   O26   A    
O12   Zn2   S    
C95   C102  A    
C9    C103  A    
C69   O14   A    
O1    Zn5   S    
C48   C60   A    
C2    H35   S    
C23   C63   S    
O26   Zn1   S    
C48   C55   A    
C43   O23   A    
C8    C65   S    
C27   C34   A    
C22   C28   A    
C81   H13   S    
C2    C17   A    
C18   C25   A    
C1    O9    A    
C41   C87   A    
C53   C60   A    
C91   H51   S    
C57   C63   A    
C96   H21   S    
C65   O25   A    
C49   C63   A    
C10   C21   S    
C58   C64   A    
C99   C105  A    
C88   C94   A    
C17   C24   A    
C13   C19   A    
O19   Zn4   S    
C19   H43   S    
C14   C20   A    
C28   C35   A    
C49   H54   S    
C3    C8    A    
C52   C64   A    
C47   H52   S    
C5    C105  A    
C28   F2    S    
C43   O13   A    
C95   H20   S    
O25   Zn8   S    
C40   C76   A    
C30   C37   A    
C30   F4    S    
C51   C66   A    
C6    C100  A    
C54   O7    A    
C89   C95   A    
C4    C78   A    
O12   Zn6   S    
C52   C59   A    
C12   H36   S    
C26   C33   A    
C21   O21   A    
C6    C107  A    
C82   H14   S    
C42   H27   S    
C7    C106  A    
C32   O22   A    
O18   Zn3   S    
C51   C58   A    
C91   C97   A    
C4    C11   A    
C102  C108  A    
C78   H9    S    
C93   C100  A    
C13   H37   S    
C39   C46   A    
C34   H44   S    
C21   O10   A    
C84   C91   A    
C76   H31   S    
C16   C23   A    
C56   C70   S    
C6    C43   S    
C65   O8    A    
C16   H40   S    
C36   H47   S    
C50   C62   A    
C56   C62   A    
C74   C81   A    
C12   C18   A    
C93   H18   S    
C98   H33   S    
C52   H4    S    
C79   C85   A    
C90   H23   S    
C18   H42   S    
C15   C87   A    
O14   Zn5   S    
C1    O20   A    
C3    C103  A    
C83   C90   A    
O10   Zn6   S    
C38   H49   S    
C24   C62   S    
C7    C32   S    
C14   C76   A    
C75   H7    S    
C50   C57   A    
C100  C106  A    
C71   O16   A    
C29   F3    S    
C25   C66   S    
O8    Zn4   S    
C12   C45   A    
C47   C61   A    
C46   H30   S    
C67   O18   A    
O22   Zn7   S    
C90   C96   A    
C20   C27   A    
C26   C64   S    
O21   Zn8   S    
O13   Zn2   S    
O16   Zn1   S    
C74   H6    S    
C79   H10   S    
O6    Zn6   S    
O15   Zn6   S    
C31   C38   A    
C47   C53   A    
C97   C104  A    
C37   C44   A    
C10   C104  A    
C5    C10   A    
O3    Zn3   S    
C49   C56   A    
C71   O5    A    
C85   H17   S    
O2    Zn2   S    
C16   C98   A    
C73   C106  A    
C48   H53   S    
C88   H1    S    
C55   C61   A    
C84   H16   S    
C51   H3    S    
C73   C80   A    
C50   H2    S    
C35   C41   A    
C24   C30   A    
C72   O17   A    
C15   H39   S    
C81   C88   A    
O12   Zn4   S    
O1    Zn7   S    
C68   O19   A    
C78   C84   A    
C70   O15   A    
C75   C108  A    
C27   F1    S    
C44   H28   S    
C7    C101  A    
C96   C103  A    
C14   H38   S    
C45   H29   S    
C9    C54   S    
O17   Zn2   S    
C97   H22   S    
C57   C69   S    
C39   H50   S    
C3    C77   A    
C8    C102  A    
C31   F5    S    
C92   C99   A    
C59   C71   S    
C37   H48   S    
C17   H41   S    
