data_mof_unit_30264.cif
_audit_creation_date              2012-12-10T20:38:24-0500
_audit_creation_method            fapswitch 2.2
_symmetry_space_group_name_H-M    P1
_symmetry_Int_Tables_number       1
_space_group_crystal_system       triclinic
_cell_length_a                    9.867192
_cell_length_b                    10.678146
_cell_length_c                    16.616973
_cell_angle_alpha                 89.922157
_cell_angle_beta                  85.013384
_cell_angle_gamma                 89.979734
_cell_volume                      1744.19093291

loop_
_atom_site_label
_atom_site_type_symbol
_atom_type_description
_atom_site_fract_x
_atom_site_fract_y
_atom_site_fract_z
_atom_type_partial_charge
C1    C     C_R   0.500266 0.740032 0.497665 0.879347
C2    C     C_R   0.531433 0.528594 0.260135 -0.127360
C3    C     C_R   0.378516 0.936197 0.487767 0.147698
C4    C     C_R   0.480686 0.506084 0.653293 0.854097
C5    C     C_R   0.501234 0.871446 0.485211 -0.107643
C6    C     C_R   0.624506 0.935214 0.467535 -0.222631
C7    C     C_R   0.624541 0.064743 0.467538 -0.220911
C8    C     C_R   0.501312 0.128563 0.485232 -0.111861
C9    C     C_R   0.378559 0.063904 0.487797 0.137689
C10   C     C_3   0.256648 0.070948 0.547721 -0.477319
C11   C     C_3   0.256583 0.928979 0.547665 -0.493804
C12   C     C_R   0.351234 0.516761 0.787700 -0.213631
C13   C     C_R   0.918650 0.500293 0.570979 0.231981
C14   C     C_R   0.938295 0.489266 0.429903 -0.142994
C15   C     C_R   0.082048 0.489151 0.429906 -0.130021
C16   C     C_R   0.500347 0.259966 0.497661 0.884972
C17   C     C_R   0.061145 0.500553 0.570927 0.210706
C18   C     C_3   0.058069 0.598750 0.634589 -0.500072
C19   C     C_3   0.904247 0.598172 0.635061 -0.524420
C20   C     C_R   0.519180 0.502682 0.346394 0.885890
C21   C     C_R   0.466707 0.548141 0.736615 -0.023524
C22   C     C_R   0.560215 0.635499 0.761655 -0.216923
C23   C     C_R   0.424325 0.548545 0.136206 -0.185683
C24   C     C_R   0.543307 0.685193 0.838810 -0.158962
C25   C     C_R   0.432651 0.647574 0.891747 0.199287
C26   C     C_R   0.334236 0.566567 0.865265 -0.159849
C27   C     C_R   0.420474 0.507527 0.215339 -0.210401
C28   C     C_R   0.647748 0.589285 0.224644 -0.198089
C29   C     C_R   0.651824 0.634224 0.145756 0.463536
C30   C     C_R   0.538038 0.614288 0.100932 0.074424
C31   C     C_2   0.431763 0.672116 0.978017 -0.236116
C32   C     C_2   0.543830 0.645340 0.014789 -0.242240
H1    H     H_    0.644850 0.667307 0.721085 0.148363
H2    H     H_    0.094510 0.562892 0.691681 0.202967
H3    H     H_    0.330301 0.459869 0.241667 0.157051
H4    H     H_    0.105643 0.687979 0.612212 0.212578
H5    H     H_    0.853413 0.560903 0.692403 0.203418
H6    H     H_    0.861716 0.687407 0.613520 0.211588
H7    H     H_    0.733504 0.607673 0.259454 0.171971
H8    H     H_    0.639618 0.627941 0.979128 0.164473
H9    H     H_    0.248655 0.536559 0.905998 0.130154
H10   H     H_    0.338773 0.526013 0.102284 0.152116
H11   H     H_    0.275959 0.452408 0.768070 0.138892
H12   H     H_    0.720790 0.886104 0.459188 0.174048
H13   H     H_    0.334374 0.685332 0.012740 0.160041
H14   H     H_    0.618769 0.749601 0.858197 0.134097
H15   H     H_    0.748042 0.746185 0.067374 0.330043
H16   H     H_    0.720840 0.113790 0.459176 0.173707
H17   H     H_    0.280022 0.112097 0.606401 0.201391
H18   H     H_    0.167126 0.112149 0.521134 0.207392
H19   H     H_    0.279888 0.887402 0.606317 0.202142
H20   H     H_    0.167037 0.888142 0.521000 0.206933
H21   H     H_    0.892786 0.482473 0.373206 0.153984
H22   H     H_    0.143787 0.482189 0.373127 0.153119
N1    N     N_R   0.857140 0.500860 0.500530 -0.107635
N2    N     N_R   0.142780 0.500820 0.500530 -0.107097
O1    O     O_R   0.385310 0.683210 0.499990 -0.610288
O2    O     O_R   0.614650 0.683240 0.500000 -0.623477
O3    O     O_R   0.371780 0.500000 0.615800 -0.614887
O4    O     O_R   0.601120 0.500040 0.615800 -0.612953
O5    O     O_R   0.385350 0.316760 0.500000 -0.613241
O6    O     O_R   0.614690 0.316790 0.500010 -0.616238
O7    O     O_R   0.398880 0.499960 0.384200 -0.620711
O8    O     O_R   0.628220 0.500000 0.384200 -0.628282
O9    O     O_3   0.767201 0.698273 0.116083 -0.784942
Zn1   Zn    Zn3+2 0.346870 0.499980 0.499990 0.943997
Zn2   Zn    Zn3+2 0.653130 0.500020 0.500010 0.940115

loop_
_geom_bond_atom_site_label_1
_geom_bond_atom_site_label_2
_ccdc_geom_bond_type
C20   O8    A    
N1    Zn2   S    
C24   C25   A    
C15   H22   S    
C25   C31   S    
C6    C7    A    
C3    C9    A    
C19   H6    S    
C23   C27   A    
C9    C10   S    
C31   C32   D    
C13   C17   A    
O1    Zn1   S    
C2    C27   A    
C24   H14   S    
C7    H16   S    
C4    O4    A    
C20   O7    A    
C14   N1    A    
O7    Zn1   S    
C7    C8    A    
C8    C16   S    
C6    H12   S    
C21   C22   A    
C15   N2    A    
C30   C32   S    
C4    C21   S    
C18   H2    S    
C17   N2    A    
C29   C30   A    
C23   H10   S    
C16   O6    A    
O6    Zn2   S    
C29   O9    S    
O5    Zn1   S    
C4    O3    A    
C28   C29   A    
C17   C18   S    
C12   H11   S    
C22   C24   A    
C32   H8    S    
O3    Zn1   S    
C31   H13   S    
C5    C6    A    
N2    Zn1   S    
C11   H19   S    
C10   C11   S    
C13   C19   S    
C2    C20   S    
C10   H18   S    
O8    Zn2   S    
C3    C5    A    
O2    Zn2   S    
C1    C5    S    
C14   H21   S    
C3    C11   S    
C23   C30   A    
C26   H9    S    
C18   C19   S    
C16   O5    A    
C22   H1    S    
C14   C15   A    
C2    C28   A    
C11   H20   S    
C19   H5    S    
C28   H7    S    
C27   H3    S    
C25   C26   A    
C1    O2    A    
C10   H17   S    
C18   H4    S    
C12   C21   A    
H15   O9    S    
O4    Zn2   S    
C12   C26   A    
C8    C9    A    
C13   N1    A    
C1    O1    A    
