data_mof_unit_32129.cif
_audit_creation_date              2012-12-11T16:23:19-0500
_audit_creation_method            fapswitch 2.2
_symmetry_space_group_name_H-M    P1
_symmetry_Int_Tables_number       1
_space_group_crystal_system       monoclinic
_cell_length_a                    20.020938
_cell_length_b                    7.204564
_cell_length_c                    19.789626
_cell_angle_alpha                 90.0
_cell_angle_beta                  98.883898
_cell_angle_gamma                 90.0
_cell_volume                      2820.25325151

loop_
_atom_site_label
_atom_site_type_symbol
_atom_type_description
_atom_site_fract_x
_atom_site_fract_y
_atom_site_fract_z
_atom_type_partial_charge
O1    O     O_R   0.188410 0.619490 0.310050 -0.542486
O2    O     O_R   0.811590 0.380510 0.689950 -0.544002
O3    O     O_R   0.311590 0.119490 0.189950 -0.542486
O4    O     O_R   0.688410 0.880510 0.810050 -0.544002
O5    O     O_R   0.327280 0.288800 0.321740 -0.529605
O6    O     O_R   0.672720 0.711200 0.678260 -0.528090
O7    O     O_R   0.172720 0.788800 0.178260 -0.529605
O8    O     O_R   0.827280 0.211200 0.821740 -0.528090
C1    C     C_R   0.351585 0.457226 0.338714 0.717584
C2    C     C_R   0.648432 0.542755 0.661279 0.711577
C3    C     C_R   0.148415 0.957226 0.161286 0.717584
C4    C     C_R   0.851568 0.042755 0.838721 0.711576
O9    O     O_R   0.189900 0.289710 0.318190 -0.541643
O10   O     O_R   0.810100 0.710290 0.681810 -0.539990
O11   O     O_R   0.310100 0.789710 0.181810 -0.541643
O12   O     O_R   0.689900 0.210290 0.818190 -0.539991
O13   O     O_R   0.173230 0.120350 0.186370 -0.533509
O14   O     O_R   0.826770 0.879650 0.813630 -0.533587
O15   O     O_R   0.326770 0.620350 0.313630 -0.533509
O16   O     O_R   0.673230 0.379650 0.686370 -0.533587
C5    C     C_R   0.169410 0.458467 0.333786 0.688134
C6    C     C_R   0.830380 0.541532 0.666016 0.684572
C7    C     C_R   0.330589 0.958467 0.166214 0.688134
C8    C     C_R   0.669620 0.041532 0.833984 0.684572
O17   O     O_3   0.244690 0.453290 0.206760 -0.372014
O18   O     O_3   0.755310 0.546710 0.793240 -0.371951
O19   O     O_3   0.255310 0.953290 0.293240 -0.372014
O20   O     O_3   0.744690 0.046710 0.706760 -0.371951
V1    V     V_3+5 0.250980 0.178070 0.258020 1.485859
V2    V     V_3+5 0.749020 0.821930 0.741980 1.479696
V3    V     V_3+5 0.249020 0.678070 0.241980 1.485859
V4    V     V_3+5 0.750980 0.321930 0.758020 1.479697
C9    C     C_R   0.463558 0.145497 0.065817 -0.122032
C10   C     C_R   0.563198 0.850462 0.961774 -0.124588
C11   C     C_R   0.036442 0.645497 0.434183 -0.122032
C12   C     C_R   0.936802 0.350462 0.538226 -0.124588
H1    H     H_    0.491706 0.273240 0.064161 0.109918
H2    H     H_    0.557615 0.719040 0.986806 0.109583
H3    H     H_    0.008294 0.773240 0.435839 0.109918
H4    H     H_    0.942385 0.219039 0.513195 0.109583
C13   C     C_R   0.416571 0.134038 0.111183 -0.129834
C14   C     C_R   0.609892 0.862197 0.916064 -0.138033
C15   C     C_R   0.083429 0.634038 0.388817 -0.129833
C16   C     C_R   0.890108 0.362197 0.583936 -0.138033
H5    H     H_    0.409658 0.254090 0.142308 0.124101
H6    H     H_    0.638001 0.738804 0.906754 0.134282
H7    H     H_    0.090341 0.754090 0.357692 0.124101
H8    H     H_    0.861999 0.238804 0.593246 0.134282
C17   C     C_R   0.380015 0.969511 0.117209 -0.046382
C18   C     C_R   0.620720 0.030845 0.883506 -0.049030
C19   C     C_R   0.119985 0.469511 0.382791 -0.046382
C20   C     C_R   0.879280 0.530845 0.616494 -0.049030
C21   C     C_R   0.391619 0.816845 0.076278 -0.135214
C22   C     C_R   0.583421 0.187469 0.897894 -0.137445
C23   C     C_R   0.108381 0.316845 0.423722 -0.135214
C24   C     C_R   0.916578 0.687469 0.602106 -0.137446
H9    H     H_    0.364192 0.688252 0.079171 0.135450
H10   H     H_    0.589890 0.319242 0.873370 0.122684
H11   H     H_    0.135808 0.188252 0.420829 0.135450
H12   H     H_    0.910109 0.819242 0.626630 0.122684
C25   C     C_R   0.438120 0.829013 0.030231 -0.123373
C26   C     C_R   0.536073 0.175209 0.943006 -0.123355
C27   C     C_R   0.061880 0.329013 0.469769 -0.123373
C28   C     C_R   0.963927 0.675209 0.556994 -0.123355
H13   H     H_    0.444387 0.709775 0.998541 0.108962
H14   H     H_    0.507170 0.297870 0.951231 0.105521
H15   H     H_    0.055613 0.209775 0.501459 0.108962
H16   H     H_    0.992830 0.797870 0.548769 0.105521
C29   C     C_R   0.474992 0.993485 0.024400 0.088910
C30   C     C_R   0.525248 0.006490 0.975765 0.089953
C31   C     C_R   0.025008 0.493485 0.475599 0.088910
C32   C     C_R   0.974752 0.506490 0.524235 0.089953
C33   C     C_R   0.087174 0.957167 0.107870 -0.164684
C34   C     C_R   0.912875 0.042568 0.892028 -0.143555
C35   C     C_R   0.412826 0.457167 0.392130 -0.164684
C36   C     C_R   0.587125 0.542568 0.607972 -0.143555
C37   C     C_R   0.016603 0.199904 0.944176 0.490915
C38   C     C_R   0.984184 0.797588 0.055000 0.522643
C39   C     C_R   0.483397 0.699904 0.555824 0.490916
C40   C     C_R   0.515816 0.297588 0.445000 0.522645
C41   C     C_R   0.961067 0.183576 0.891821 -0.186989
C42   C     C_R   0.039382 0.814906 0.107659 -0.176095
C43   C     C_R   0.538933 0.683576 0.608179 -0.186989
C44   C     C_R   0.460618 0.314906 0.392341 -0.176095
C45   C     C_R   0.920961 0.913977 0.945688 -0.096748
C46   C     C_R   0.079030 0.085919 0.054249 -0.102776
C47   C     C_R   0.579039 0.413977 0.554312 -0.096748
C48   C     C_R   0.420970 0.585919 0.445751 -0.102772
C49   C     C_R   0.976061 0.926405 0.999983 -0.029048
C50   C     C_R   0.024292 0.072379 0.999601 -0.018840
C51   C     C_R   0.523939 0.426406 0.500017 -0.029048
C52   C     C_R   0.475707 0.572379 0.500399 -0.018837
H17   H     H_    0.117227 0.191931 0.054868 0.203616
H18   H     H_    0.882332 0.809358 0.945487 0.200258
H19   H     H_    0.382773 0.691931 0.445132 0.203615
H20   H     H_    0.617668 0.309358 0.554513 0.200258
H21   H     H_    0.045719 0.715241 0.149091 0.175011
H22   H     H_    0.954796 0.282827 0.850269 0.150522
H23   H     H_    0.454282 0.215241 0.350909 0.175011
H24   H     H_    0.545204 0.782827 0.649731 0.150522
S1    S     S_3+6 0.074913 0.382581 0.938035 0.029131
O21   O     O_2   0.080694 0.502376 0.000793 -0.307444
O22   O     O_2   0.143237 0.301677 0.933211 -0.334503
O23   O     O_3   0.049908 0.516092 0.868977 -0.484003
H25   H     H_    0.062641 0.445701 0.829890 0.338529
S2    S     S_3+6 0.927416 0.610469 0.059888 0.006187
O24   O     O_2   0.859555 0.686844 0.069104 -0.328963
O25   O     O_2   0.920079 0.499462 0.994867 -0.338918
O26   O     O_3   0.955875 0.470550 0.126197 -0.507220
H26   H     H_    0.927587 0.357391 0.118748 0.372348
S3    S     S_3+6 0.425087 0.882581 0.561965 0.029131
O27   O     O_2   0.419307 0.002376 0.499207 -0.307443
O28   O     O_2   0.356763 0.801677 0.566789 -0.334504
O29   O     O_3   0.450092 0.016093 0.631023 -0.484003
H27   H     H_    0.437359 0.945702 0.670110 0.338529
S4    S     S_3+6 0.572584 0.110470 0.440111 0.006185
O30   O     O_2   0.640445 0.186846 0.430896 -0.328967
O31   O     O_2   0.579921 0.999462 0.505133 -0.338915
O32   O     O_3   0.544125 0.970552 0.373803 -0.507222
H28   H     H_    0.572418 0.857402 0.381247 0.372349

loop_
_geom_bond_atom_site_label_1
_geom_bond_atom_site_label_2
_ccdc_geom_bond_type
O17   V3    S    
C16   H8    S    
O18   V4    S    
S1    O21   D    
C4    C34   S    
O19   V1    S    
O13   V1    S    
C23   H11   S    
C37   S1    S    
S3    O27   D    
C10   C14   A    
C40   C44   A    
O15   V3    S    
O29   H27   S    
O1    C5    A    
C18   C22   A    
C28   H16   S    
O9    V1    S    
C47   C51   A    
O16   V4    S    
O4    C8    A    
C35   C44   A    
C7    C17   S    
C41   H22   S    
C12   C32   A    
O1    V3    S    
S4    O30   D    
C26   C30   A    
O2    V4    S    
C14   H6    S    
O3    V1    S    
C21   C25   A    
C1    O15   A    
C40   S4    S    
C2    O16   A    
C23   C27   A    
O2    C6    A    
C24   C28   A    
O14   V2    S    
C11   C15   A    
C10   C30   A    
C9    C29   A    
C16   C20   A    
O11   C7    A    
C48   H19   S    
C11   C31   A    
S1    O22   D    
C2    C36   S    
O10   V2    S    
C36   C43   A    
C13   C17   A    
O23   H25   S    
O7    C3    A    
O5    V1    S    
C38   C49   A    
C8    C18   S    
C27   H15   S    
C37   C50   A    
O7    V3    S    
C26   H14   S    
O8    V4    S    
C48   C52   A    
C12   H4    S    
C3    C33   S    
C51   C52   A    
C21   H9    S    
C22   C26   A    
O3    C7    A    
C9    H1    S    
C24   H12   S    
C11   H3    S    
O5    C1    A    
C46   H17   S    
C45   H18   S    
C38   C42   A    
C37   C41   A    
O8    C4    A    
C47   H20   S    
O9    C5    A    
S3    O28   D    
C36   C47   A    
C39   C52   A    
C14   C18   A    
O6    V2    S    
C27   C31   A    
S1    O23   S    
C43   H24   S    
C46   C50   A    
C42   H21   S    
C12   C16   A    
C34   C41   A    
C33   C42   A    
C5    C19   S    
C6    C20   S    
C22   H10   S    
C25   C29   A    
C3    O13   A    
C45   C49   A    
C10   H2    S    
C44   H23   S    
O6    C2    A    
O32   H28   S    
O11   V3    S    
O12   V4    S    
S4    O32   S    
C39   S3    S    
C38   S2    S    
C9    C13   A    
O10   C6    A    
C40   C51   A    
O20   V2    S    
C31   C32   S    
O26   H26   S    
C39   C43   A    
C15   C19   A    
S2    O25   D    
C17   C21   A    
S4    O31   D    
S3    O29   S    
C19   C23   A    
C28   C32   A    
C34   C45   A    
C29   C30   S    
C33   C46   A    
C25   H13   S    
C35   C48   A    
O12   C8    A    
S2    O24   D    
C4    O14   A    
C13   H5    S    
C1    C35   S    
C49   C50   A    
C15   H7    S    
O4    V2    S    
C20   C24   A    
S2    O26   S    
