data_mof_unit_22148.cif
_audit_creation_date              2012-12-11T14:13:10-0500
_audit_creation_method            fapswitch 2.2
_symmetry_space_group_name_H-M    P1
_symmetry_Int_Tables_number       1
_space_group_crystal_system       triclinic
_cell_length_a                    11.731461
_cell_length_b                    18.396623
_cell_length_c                    10.093176
_cell_angle_alpha                 90.121665
_cell_angle_beta                  111.532877
_cell_angle_gamma                 90.104388
_cell_volume                      2026.25936171

loop_
_atom_site_label
_atom_site_type_symbol
_atom_type_description
_atom_site_fract_x
_atom_site_fract_y
_atom_site_fract_z
_atom_type_partial_charge
C1    C     C_R   0.075244 0.645402 0.141369 0.550496
C2    C     C_R   0.871321 0.362272 0.841409 0.576664
C3    C     C_R   0.923766 0.145464 0.857625 0.557328
C4    C     C_R   0.078000 0.855392 0.142936 0.539841
C5    C     C_R   0.396591 0.459956 0.496170 -0.052165
C6    C     C_R   0.601518 0.537239 0.493216 -0.044938
C7    C     C_R   0.607349 0.958619 0.507841 -0.042056
C8    C     C_R   0.403933 0.034033 0.516210 -0.047966
C9    C     C_2   0.376645 0.940196 0.996658 0.109074
C10   C     C_2   0.626087 0.060071 0.994749 0.073184
C11   C     C_2   0.596872 0.433564 0.044974 0.121408
C12   C     C_2   0.361481 0.558404 0.024547 0.067975
C13   C     C_2   0.486909 0.961473 0.999179 -0.050555
C14   C     C_2   0.524068 0.037925 0.013263 -0.046111
C15   C     C_2   0.500437 0.451921 0.079025 -0.078295
C16   C     C_2   0.473759 0.529415 0.084779 -0.067431
C17   C     C_2   0.038857 0.930465 0.131370 0.058261
C18   C     C_2   0.964185 0.071040 0.868443 0.061636
C19   C     C_2   0.898496 0.440602 0.853878 0.075995
C20   C     C_2   0.021972 0.573120 0.123738 0.063267
C21   C     C_2   0.009430 0.962152 0.006323 -0.104350
C22   C     C_2   0.009304 0.040846 0.995384 -0.103787
C23   C     C_2   0.913580 0.473988 0.976014 -0.100156
C24   C     C_2   0.944491 0.551103 0.997466 -0.118606
C25   C     C_R   0.471042 0.646914 0.442854 0.551206
C26   C     C_R   0.528833 0.352330 0.555936 0.529695
C27   C     C_R   0.529604 0.146161 0.558049 0.520938
C28   C     C_R   0.472417 0.851800 0.445456 0.528665
C29   C     C_R   0.349873 0.638853 0.016411 0.578654
C30   C     C_R   0.624121 0.356845 0.031822 0.584027
C31   C     C_R   0.647577 0.138041 0.987430 0.586137
C32   C     C_R   0.353849 0.862649 0.009565 0.599725
C33   C     C_R   0.496015 0.422656 0.480270 -0.032018
C34   C     C_R   0.502960 0.574472 0.511805 0.006133
C35   C     C_R   0.509734 0.921016 0.525711 -0.027578
C36   C     C_R   0.499517 0.072588 0.491506 -0.029835
C37   C     C_R   0.291509 0.422113 0.493155 -0.071931
C38   C     C_R   0.706652 0.575515 0.498315 -0.050015
C39   C     C_R   0.712125 0.920379 0.513721 -0.109733
C40   C     C_R   0.297128 0.069513 0.512798 -0.087645
C41   C     C_R   0.214088 0.451178 0.555909 0.178816
C42   C     C_R   0.781917 0.549012 0.429571 0.148037
C43   C     C_R   0.789546 0.947946 0.450622 0.178398
C44   C     C_R   0.219501 0.038660 0.575073 0.163114
C45   C     C_R   0.226695 0.524687 0.596035 0.096213
C46   C     C_R   0.767142 0.475960 0.383800 0.121232
C47   C     C_R   0.773473 0.019180 0.398987 0.162267
C48   C     C_R   0.238433 0.965563 0.620564 0.160015
C49   C     C_R   0.327915 0.565109 0.592043 0.122452
C50   C     C_R   0.674126 0.432360 0.399219 0.145877
C51   C     C_R   0.674282 0.061629 0.403472 0.106457
C52   C     C_R   0.341534 0.927762 0.617752 0.140525
C53   C     C_R   0.408899 0.533940 0.533076 0.026817
C54   C     C_R   0.590204 0.462919 0.456847 -0.008647
C55   C     C_R   0.593618 0.032336 0.467282 -0.008026
C56   C     C_R   0.419435 0.960404 0.555179 -0.013734
Cr1   Cr    Cr6+3 0.187610 0.750000 0.979860 0.982603
Cr2   Cr    Cr6+3 0.812390 0.250000 0.020140 1.009867
Cr3   Cr    Cr6+3 0.245810 0.750000 0.341640 0.976969
Cr4   Cr    Cr6+3 0.754190 0.250000 0.658360 0.966549
Cr5   Cr    Cr6+3 0.485760 0.750000 0.219910 0.979387
Cr6   Cr    Cr6+3 0.514240 0.250000 0.780090 0.985879
H1    H     H_    0.274713 0.367185 0.451335 0.140390
H2    H     H_    0.722304 0.629180 0.545530 0.134541
H3    H     H_    0.727333 0.865459 0.555422 0.125053
H4    H     H_    0.278412 0.123122 0.466451 0.136411
H5    H     H_    0.465384 0.077768 0.036157 0.167442
H6    H     H_    0.552576 0.921012 0.993972 0.163039
H7    H     H_    0.553890 0.564431 0.125655 0.155949
H8    H     H_    0.444167 0.411112 0.103665 0.121591
H9    H     H_    0.035761 0.074587 0.090633 0.166058
H10   H     H_    0.992773 0.929092 0.911551 0.175063
H11   H     H_    0.914296 0.588373 0.907767 0.146729
H12   H     H_    0.911621 0.442521 0.065664 0.176072
O1    O     O_R   0.267710 0.668200 0.902110 -0.551227
O2    O     O_R   0.732290 0.331800 0.097890 -0.483873
O3    O     O_R   0.732290 0.168200 0.097890 -0.515114
O4    O     O_R   0.267710 0.831800 0.902110 -0.468258
O5    O     O_R   0.099480 0.674460 0.038850 -0.527004
O6    O     O_R   0.900520 0.325540 0.961150 -0.507484
O7    O     O_R   0.900520 0.174460 0.961150 -0.523268
O8    O     O_R   0.099480 0.825540 0.038850 -0.528158
O9    O     O_R   0.116720 0.669210 0.267660 -0.524642
O10   O     O_R   0.883280 0.330790 0.732340 -0.526182
O11   O     O_R   0.883280 0.169210 0.732340 -0.528107
O12   O     O_R   0.116720 0.830790 0.267660 -0.528722
O13   O     O_R   0.366710 0.675440 0.427590 -0.469640
O14   O     O_R   0.633290 0.324560 0.572410 -0.518358
O15   O     O_R   0.633290 0.175440 0.572410 -0.507651
O16   O     O_R   0.366710 0.824560 0.427590 -0.505680
O17   O     O_R   0.534870 0.669390 0.371760 -0.548606
O18   O     O_R   0.465130 0.330610 0.628240 -0.523576
O19   O     O_R   0.465130 0.169390 0.628240 -0.525870
O20   O     O_R   0.534870 0.830610 0.371760 -0.528687
O21   O     O_R   0.453080 0.674480 0.075160 -0.508469
O22   O     O_R   0.546920 0.325520 0.924840 -0.507264
O23   O     O_R   0.546920 0.174480 0.924840 -0.504541
O24   O     O_R   0.453080 0.825520 0.075160 -0.514852
O25   O     O_3   0.306390 0.750000 0.180470 -0.286386
O26   O     O_3   0.693610 0.250000 0.819530 -0.288556
N1    N     N_2   0.129292 0.404840 0.586426 -0.519438
H13   H     H_    0.067212 0.431412 0.618741 0.276878
C57   C     C_3   0.183869 0.344671 0.680345 -0.290479
H14   H     H_    0.110707 0.311319 0.695567 0.158686
H15   H     H_    0.245997 0.365053 0.785850 0.151557
H16   H     H_    0.236452 0.309493 0.634414 0.155347
N2    N     N_2   0.867738 0.595080 0.398837 -0.521017
H17   H     H_    0.869260 0.587306 0.298505 0.247686
C58   C     C_3   0.876936 0.671342 0.438127 -0.322745
H18   H     H_    0.947904 0.697947 0.406163 0.148578
H19   H     H_    0.905520 0.677362 0.555397 0.146467
H20   H     H_    0.788179 0.699155 0.382642 0.149662
N3    N     N_2   0.874516 0.900542 0.424871 -0.516379
H21   H     H_    0.911299 0.862936 0.504851 0.228738
C59   C     C_3   0.824870 0.865410 0.286824 -0.304066
H22   H     H_    0.894003 0.828064 0.273652 0.145987
H23   H     H_    0.800420 0.906515 0.200459 0.186865
H24   H     H_    0.742127 0.832989 0.277293 0.152685
N4    N     N_2   0.131158 0.081649 0.606675 -0.516273
H25   H     H_    0.136847 0.074644 0.710212 0.267220
C60   C     C_3   0.115323 0.157323 0.565268 -0.319407
H26   H     H_    0.041506 0.181312 0.595354 0.159055
H27   H     H_    0.088020 0.162641 0.448087 0.152395
H28   H     H_    0.201549 0.187483 0.621487 0.142960
N5    N     N_3   0.131547 0.559060 0.629730 -0.667045
H29   H     H_    0.168324 0.579434 0.732298 0.256885
H30   H     H_    0.100207 0.603139 0.561289 0.257021
N6    N     N_3   0.849917 0.443503 0.326598 -0.580545
H31   H     H_    0.841368 0.470376 0.233463 0.224461
H32   H     H_    0.938702 0.452903 0.397346 0.265068
N7    N     N_3   0.861901 0.048745 0.347243 -0.578367
H33   H     H_    0.818325 0.059939 0.239900 0.267906
H34   H     H_    0.893322 0.097862 0.399859 0.243452
N8    N     N_3   0.153445 0.927991 0.669054 -0.592561
H35   H     H_    0.126148 0.880618 0.608198 0.228903
H36   H     H_    0.073021 0.957571 0.646485 0.261000
N9    N     N_3   0.360427 0.632930 0.666935 -0.599212
H37   H     H_    0.395564 0.621536 0.775477 0.261431
H38   H     H_    0.283766 0.666557 0.641917 0.248319
N10   N     N_3   0.657339 0.361263 0.334947 -0.586603
H39   H     H_    0.726437 0.326420 0.397268 0.273259
H40   H     H_    0.570421 0.339482 0.315461 0.210119
N11   N     N_3   0.647925 0.128296 0.323744 -0.608238
H41   H     H_    0.558899 0.146435 0.303909 0.227743
H42   H     H_    0.710968 0.168088 0.379756 0.255085
N12   N     N_3   0.372808 0.860152 0.694483 -0.567535
H43   H     H_    0.312323 0.819446 0.637547 0.255753
H44   H     H_    0.462550 0.844123 0.712185 0.223226
N13   N     N_3   0.701033 0.009304 0.955692 -0.677529
H45   H     H_    0.791582 0.017198 0.023454 0.242693
H46   H     H_    0.695114 0.021944 0.852487 0.225857
N14   N     N_3   0.288276 0.992604 0.002242 -0.663733
H47   H     H_    0.205875 0.981610 0.918847 0.270676
H48   H     H_    0.274414 0.984910 0.097820 0.216803
N15   N     N_3   0.255314 0.512073 0.980412 -0.652827
H49   H     H_    0.252755 0.483649 0.889751 0.242472
H50   H     H_    0.176313 0.543699 0.952958 0.242740
N16   N     N_3   0.641125 0.486296 0.969733 -0.643469
H51   H     H_    0.712380 0.516399 0.041702 0.213046
H52   H     H_    0.671388 0.460356 0.896546 0.233180
N17   N     N_3   0.920523 0.026212 0.743057 -0.668662
H53   H     H_    0.825512 0.023188 0.712665 0.234940
H54   H     H_    0.938042 0.052209 0.661053 0.266569
N18   N     N_3   0.066617 0.973720 0.258097 -0.628495
H55   H     H_    0.161872 0.974371 0.307924 0.230837
H56   H     H_    0.031607 0.948026 0.326804 0.298642
N19   N     N_3   0.070779 0.521970 0.237954 -0.646877
H57   H     H_    0.164859 0.517675 0.260386 0.252561
H58   H     H_    0.059297 0.543271 0.327848 0.255678
N20   N     N_3   0.903767 0.481889 0.735625 -0.641480
H59   H     H_    0.993273 0.501062 0.763153 0.244557
H60   H     H_    0.887028 0.448199 0.647839 0.256959

loop_
_geom_bond_atom_site_label_1
_geom_bond_atom_site_label_2
_ccdc_geom_bond_type
C44   C48   A    
C9    N14   S    
N1    H13   S    
C5    C37   A    
C12   C29   S    
C3    O11   A    
Cr3   O25   S    
Cr1   O5    S    
C2    O10   A    
Cr5   O24   S    
C19   N20   S    
C7    C55   A    
N6    H31   S    
C8    C56   A    
N17   H53   S    
Cr4   O14   S    
Cr2   O2    S    
N19   H58   S    
Cr4   O15   S    
N9    H38   S    
C50   C54   A    
C7    C39   A    
C46   N6    S    
N18   H55   S    
N10   H40   S    
C38   C42   A    
C49   N9    S    
N13   H46   S    
C10   N13   S    
C42   C46   A    
C18   N17   S    
C50   N10   S    
C24   H11   S    
C4    O12   A    
N20   H59   S    
C26   O18   A    
C15   C16   S    
Cr1   O25   S    
C25   O13   A    
C3    C18   S    
C28   O20   A    
C8    C36   A    
C20   N19   S    
C9    C13   D    
C60   H28   S    
C30   O22   A    
C9    C32   S    
N17   H54   S    
N3    H21   S    
C11   C15   D    
C10   C31   S    
C47   C51   A    
C20   C24   D    
C11   C30   S    
C45   N5    S    
C59   H23   S    
Cr6   O18   S    
C3    O7    A    
N2    H17   S    
C6    C38   A    
C42   N2    S    
C40   C44   A    
C38   H2    S    
Cr2   O3    S    
Cr2   O6    S    
C25   C34   S    
C35   C56   A    
N1    C57   S    
C40   H4    S    
C21   C22   S    
N16   H52   S    
N2    C58   S    
Cr5   O25   S    
C6    C54   A    
C37   H1    S    
C31   O3    A    
N12   H44   S    
N4    C60   S    
C25   O17   A    
C21   H10   S    
C52   C56   A    
C12   C16   D    
Cr2   O26   S    
N10   H39   S    
C28   C35   S    
C10   C14   D    
C58   H20   S    
N19   H57   S    
C29   O21   A    
Cr5   O20   S    
C39   C43   A    
C44   N4    S    
Cr4   O26   S    
C17   C21   D    
C6    C34   A    
C47   N7    S    
C23   H12   S    
Cr3   O16   S    
C19   C23   D    
C17   N18   S    
Cr6   O23   S    
C30   O2    A    
C26   C33   S    
C45   C49   A    
C14   H5    S    
C59   H24   S    
C57   H15   S    
N15   H50   S    
C60   H26   S    
Cr6   O26   S    
C4    C17   S    
N14   H48   S    
N16   H51   S    
C1    O5    A    
C27   O19   A    
C12   N15   S    
N7    H33   S    
C22   H9    S    
C57   H14   S    
N12   H43   S    
C5    C53   A    
C33   C54   A    
N11   H42   S    
C15   H8    S    
C46   C50   A    
Cr2   O7    S    
C1    C20   S    
C52   N12   S    
C41   N1    S    
C2    C19   S    
C18   C22   D    
C7    C35   A    
Cr1   O4    S    
C16   H7    S    
Cr3   O9    S    
N7    H34   S    
N6    H32   S    
C48   N8    S    
N8    H36   S    
N4    H25   S    
Cr5   O21   S    
N8    H35   S    
C29   O1    A    
C51   N11   S    
C27   C36   S    
C1    O9    A    
N9    H37   S    
C39   H3    S    
Cr1   O1    S    
N18   H56   S    
N11   H41   S    
Cr3   O12   S    
C36   C55   A    
N13   H45   S    
C43   N3    S    
Cr4   O10   S    
N5    H29   S    
N20   H60   S    
C49   C53   A    
C58   H19   S    
C32   O24   A    
C27   O15   A    
C57   H16   S    
C51   C55   A    
C5    C33   A    
C31   O23   A    
C37   C41   A    
Cr3   O13   S    
C60   H27   S    
C2    O6    A    
C23   C24   S    
C32   O4    A    
Cr5   O17   S    
C48   C52   A    
C4    O8    A    
N14   H47   S    
C34   C53   A    
C26   O14   A    
Cr6   O19   S    
C58   H18   S    
N15   H49   S    
N5    H30   S    
C41   C45   A    
Cr1   O8    S    
Cr4   O11   S    
C28   O16   A    
C8    C40   A    
Cr6   O22   S    
C13   C14   S    
C43   C47   A    
C59   H22   S    
C11   N16   S    
N3    C59   S    
C13   H6    S    
