data_mof_unit_40922.cif
_audit_creation_date              2012-12-10T19:00:01-0500
_audit_creation_method            fapswitch 2.2
_symmetry_space_group_name_H-M    P1
_symmetry_Int_Tables_number       1
_space_group_crystal_system       triclinic
_cell_length_a                    10.637672
_cell_length_b                    10.67198
_cell_length_c                    9.846457
_cell_angle_alpha                 90.220472
_cell_angle_beta                  89.968919
_cell_angle_gamma                 89.689692
_cell_volume                      1117.79440897

loop_
_atom_site_label
_atom_site_type_symbol
_atom_type_description
_atom_site_fract_x
_atom_site_fract_y
_atom_site_fract_z
_atom_type_partial_charge
C1    C     C_R   0.499195 0.259971 0.499716 0.880516
C2    C     C_R   0.455354 0.064772 0.614263 -0.203750
C3    C     C_R   0.501670 0.872428 0.500741 0.012080
C4    C     C_R   0.498322 0.127572 0.499258 0.012096
C5    C     C_R   0.577118 0.578420 0.072194 -0.076702
C6    C     C_R   0.422881 0.421581 0.927806 -0.076770
C7    C     C_R   0.577130 0.578339 0.928325 -0.092762
C8    C     C_R   0.422869 0.421662 0.071675 -0.092711
C9    C     C_R   0.260472 0.502490 0.499942 0.936088
C10   C     C_R   0.739529 0.497519 0.500058 0.936101
C11   C     C_R   0.201696 0.924560 0.391684 -0.123610
C12   C     C_R   0.500804 0.740028 0.500284 0.880492
C13   C     C_R   0.798618 0.075223 0.607679 -0.123638
C14   C     C_R   0.143999 0.820998 0.451333 -0.197257
C15   C     C_R   0.856262 0.178917 0.548244 -0.197214
C16   C     C_R   0.129052 0.709639 0.376875 0.111430
C17   C     C_R   0.870963 0.290231 0.622852 0.111267
C18   C     C_R   0.173225 0.702768 0.242646 -0.096381
C19   C     C_R   0.826583 0.296926 0.757013 -0.096394
C20   C     C_R   0.232618 0.805910 0.184082 -0.142220
C21   C     C_R   0.767242 0.193648 0.815365 -0.142269
C22   C     C_R   0.246316 0.916909 0.258331 -0.105530
C23   C     C_R   0.871944 0.497807 0.500279 -0.106870
C24   C     C_R   0.753807 0.082691 0.740972 -0.105434
C25   C     C_R   0.932412 0.599012 0.438678 0.044647
C26   C     C_R   0.067593 0.400987 0.561299 0.044659
C27   C     C_R   0.128058 0.502201 0.499717 -0.106882
C28   C     C_R   0.937262 0.398364 0.561915 -0.090597
C29   C     C_R   0.062743 0.601618 0.438030 -0.090662
C30   C     C_R   0.542573 0.063531 0.384817 -0.224019
C31   C     C_R   0.457411 0.936469 0.615178 -0.224171
C32   C     C_R   0.544632 0.935228 0.385733 -0.203712
H1    H     H_    0.291764 0.996901 0.212700 0.125115
H2    H     H_    0.837997 0.381957 0.816055 0.125869
H3    H     H_    0.267345 0.800031 0.080895 0.123679
H4    H     H_    0.732355 0.199389 0.918501 0.123662
H5    H     H_    0.577125 0.112346 0.296119 0.152487
H6    H     H_    0.422857 0.887654 0.703875 0.152498
H7    H     H_    0.579962 0.885417 0.297372 0.151378
H8    H     H_    0.420025 0.114584 0.702624 0.151387
H9    H     H_    0.638777 0.641135 0.126895 0.127183
H10   H     H_    0.361222 0.358866 0.873105 0.127202
H11   H     H_    0.885209 0.707248 0.276984 0.187258
H12   H     H_    0.708414 0.002590 0.786440 0.125207
H13   H     H_    0.880982 0.782566 0.429261 0.176193
H14   H     H_    0.114739 0.292648 0.722934 0.187266
H15   H     H_    0.119104 0.217447 0.570593 0.176227
H16   H     H_    0.638832 0.640963 0.874036 0.125343
H17   H     H_    0.361166 0.359038 0.125964 0.125333
H18   H     H_    0.212358 0.010579 0.448991 0.136698
H19   H     H_    0.788157 0.989241 0.550255 0.136579
H20   H     H_    0.109815 0.827846 0.554742 0.130112
H21   H     H_    0.890612 0.172209 0.444886 0.130130
H22   H     H_    0.161615 0.617702 0.183719 0.125763
N1    N     N_R   0.499970 0.499970 0.857200 -0.077058
N2    N     N_R   0.500030 0.500030 0.142800 -0.077037
N3    N     N_3   0.859825 0.698818 0.379119 -0.463180
N4    N     N_3   0.140186 0.301168 0.620827 -0.463168
O1    O     O_R   0.499990 0.316750 0.614620 -0.615308
O2    O     O_R   0.500010 0.683250 0.385380 -0.615277
O3    O     O_R   0.499990 0.316780 0.385290 -0.637453
O4    O     O_R   0.500010 0.683220 0.614710 -0.637454
O5    O     O_R   0.316760 0.500000 0.614660 -0.610284
O6    O     O_R   0.683240 0.500000 0.385340 -0.610282
O7    O     O_R   0.316760 0.500020 0.385330 -0.628777
O8    O     O_R   0.683240 0.499980 0.614670 -0.628840
Zn1   Zn    Zn3+2 0.500000 0.499980 0.653120 0.945833
Zn2   Zn    Zn3+2 0.500000 0.500020 0.346880 0.945897

loop_
_geom_bond_atom_site_label_1
_geom_bond_atom_site_label_2
_ccdc_geom_bond_type
C9    O5    A    
C2    C4    A    
C5    C7    A    
O5    Zn1   S    
C10   C23   S    
C27   C29   A    
C12   O4    A    
C11   C22   A    
N1    Zn1   S    
C31   H6    S    
C7    N1    A    
C6    N1    A    
C3    C31   A    
O7    Zn2   S    
H13   N3    S    
C7    H16   S    
C1    C4    S    
C10   O8    A    
O8    Zn1   S    
C4    C30   A    
C9    C27   S    
C11   H18   S    
C13   H19   S    
C23   C28   A    
H14   N4    S    
H15   N4    S    
C21   H4    S    
C26   N4    S    
O3    Zn2   S    
C8    N2    A    
C26   C27   A    
C25   N3    S    
O4    Zn1   S    
C6    C8    A    
C15   H21   S    
C13   C24   A    
C14   H20   S    
C17   C19   A    
C1    O1    A    
C20   C22   A    
C9    O7    A    
C13   C15   A    
C25   C29   A    
C3    C32   A    
C24   H12   S    
C11   C14   A    
C14   C16   A    
C21   C24   A    
H11   N3    S    
C30   C32   A    
O6    Zn2   S    
C2    H8    S    
C23   C25   A    
O2    Zn2   S    
C18   C20   A    
C16   C18   A    
C6    H10   S    
C32   H7    S    
C15   C17   A    
C22   H1    S    
C18   H22   S    
C5    H9    S    
C3    C12   S    
C5    N2    A    
O1    Zn1   S    
C16   C29   S    
N2    Zn2   S    
C17   C28   S    
C26   C28   A    
C8    H17   S    
C20   H3    S    
C10   O6    A    
C30   H5    S    
C1    O3    A    
C2    C31   A    
C19   C21   A    
C19   H2    S    
C12   O2    A    
