data_mof_unit_54417.cif
_audit_creation_date              2012-12-11T16:26:28-0500
_audit_creation_method            fapswitch 2.2
_symmetry_space_group_name_H-M    P1
_symmetry_Int_Tables_number       1
_space_group_crystal_system       triclinic
_cell_length_a                    13.997582
_cell_length_b                    13.997083
_cell_length_c                    31.875195
_cell_angle_alpha                 90.007479
_cell_angle_beta                  89.993089
_cell_angle_gamma                 120.005098
_cell_volume                      5408.18729129

loop_
_atom_site_label
_atom_site_type_symbol
_atom_type_description
_atom_site_fract_x
_atom_site_fract_y
_atom_site_fract_z
_atom_type_partial_charge
C1    C     C_R   0.567412 0.444112 0.810393 0.545247
C2    C     C_R   0.443650 0.568273 0.189213 0.545839
C3    C     C_R   0.432573 0.876726 0.310390 0.546099
C4    C     C_R   0.124774 0.556412 0.189169 0.546137
C5    C     C_1   0.028126 0.527013 0.015800 0.104906
C6    C     C_1   0.521064 0.016615 0.478919 0.122060
C7    C     C_1   0.475190 0.499921 0.016181 0.079415
C8    C     C_1   0.979188 0.502841 0.478433 0.129479
C9    C     C_1   0.498817 0.973577 0.015973 0.104477
C10   C     C_1   0.496357 0.478858 0.478803 0.124674
C11   C     C_1   0.522625 0.021761 0.516521 0.117762
C12   C     C_R   0.875390 0.431718 0.689211 0.547239
C13   C     C_1   0.022513 0.525613 0.978212 0.127464
C14   C     C_1   0.499986 0.477239 0.516404 0.120455
C15   C     C_1   0.502778 0.979143 0.978388 0.088718
C16   C     C_1   0.973799 0.498885 0.516032 0.120797
C17   C     C_1   0.476717 0.495904 0.978600 0.096885
C18   C     C_R   0.935848 0.473975 0.850395 -0.032323
C19   C     C_R   0.541032 0.073705 0.647512 -0.031321
C20   C     C_R   0.526459 0.461687 0.850523 -0.031062
C21   C     C_R   0.925164 0.466558 0.647266 -0.031284
C22   C     C_R   0.537926 0.064259 0.850422 -0.028189
C23   C     C_R   0.555834 0.123229 0.810376 0.544144
C24   C     C_R   0.532904 0.458853 0.647449 -0.031293
C25   C     C_R   0.473204 0.935274 0.350539 -0.020350
C26   C     C_R   0.075755 0.541988 0.147098 -0.028013
C27   C     C_R   0.462280 0.526762 0.350484 -0.024951
C28   C     C_R   0.466443 0.924545 0.147171 -0.031855
C29   C     C_R   0.064320 0.537995 0.350435 -0.029716
C30   C     C_R   0.458446 0.533264 0.147288 -0.027654
C31   C     C_R   0.919369 0.548845 0.874257 -0.115030
C32   C     C_R   0.633145 0.087523 0.624828 -0.118597
C33   C     C_R   0.451795 0.370203 0.874376 -0.109901
C34   C     C_R   0.568203 0.443707 0.689252 0.547328
C35   C     C_R   0.911908 0.545437 0.624756 -0.119022
C36   C     C_R   0.629148 0.080495 0.874295 -0.109322
C37   C     C_R   0.454953 0.366637 0.624715 -0.120064
C38   C     C_R   0.549750 0.920804 0.374119 -0.116422
C39   C     C_R   0.089955 0.634592 0.124645 -0.119992
C40   C     C_R   0.371402 0.450118 0.374098 -0.113040
C41   C     C_R   0.543726 0.909080 0.124480 -0.118245
C42   C     C_R   0.080436 0.629173 0.374316 -0.121515
C43   C     C_R   0.366026 0.454973 0.124722 -0.113778
C44   C     C_R   0.955119 0.570751 0.915669 -0.110080
C45   C     C_R   0.876747 0.432627 0.810383 0.545760
C46   C     C_R   0.624534 0.065244 0.582009 -0.120934
C47   C     C_R   0.430644 0.383783 0.915915 -0.122917
C48   C     C_R   0.932785 0.558443 0.581827 -0.120702
C49   C     C_R   0.615207 0.045275 0.915780 -0.110761
C50   C     C_R   0.441571 0.375193 0.581871 -0.121974
C51   C     C_R   0.570145 0.954772 0.415774 -0.110606
C52   C     C_R   0.069695 0.627294 0.081683 -0.117799
C53   C     C_R   0.385191 0.429708 0.415727 -0.102228
C54   C     C_R   0.556690 0.929849 0.081557 -0.135100
C55   C     C_R   0.045164 0.615169 0.415799 -0.113253
C56   C     C_R   0.556276 0.124446 0.689265 0.547098
C57   C     C_R   0.373945 0.441610 0.081833 -0.126673
C58   C     C_R   0.009445 0.519886 0.933556 0.032955
C59   C     C_R   0.523851 0.027865 0.561403 0.025205
C60   C     C_R   0.482081 0.488842 0.933933 0.039205
C61   C     C_R   0.968150 0.493834 0.560924 0.024235
C62   C     C_R   0.510050 0.991806 0.933728 0.021773
C63   C     C_R   0.504791 0.475941 0.561288 0.024510
C64   C     C_R   0.515806 0.005037 0.434200 0.048219
C65   C     C_R   0.033867 0.527396 0.060682 0.005755
C66   C     C_R   0.489870 0.484146 0.434091 0.041640
C67   C     C_R   0.444181 0.567415 0.310378 0.546060
C68   C     C_R   0.493831 0.967546 0.060846 0.023263
C69   C     C_R   0.991779 0.509984 0.433753 0.042929
C70   C     C_R   0.474269 0.505174 0.061040 0.011987
C71   C     C_R   0.036439 0.453254 0.908756 0.270187
C72   C     C_R   0.428447 0.004304 0.584438 0.271257
C73   C     C_R   0.548456 0.582636 0.909182 0.281968
C74   C     C_R   0.990978 0.421152 0.583716 0.272063
C75   C     C_R   0.416480 0.964954 0.908934 0.234649
C76   C     C_R   0.576340 0.571407 0.584355 0.271847
C77   C     C_R   0.447233 0.030125 0.409717 0.234963
C78   C     C_R   0.431674 0.875270 0.189187 0.547337
C79   C     C_R   0.010326 0.431554 0.083362 0.210205
C80   C     C_R   0.583408 0.552830 0.409562 0.234122
C81   C     C_R   0.422819 0.992394 0.083773 0.264143
C82   C     C_R   0.965081 0.416404 0.408921 0.284334
C83   C     C_R   0.569882 0.577289 0.083866 0.217274
C84   C     C_R   0.997806 0.429527 0.867365 -0.101786
C85   C     C_R   0.438226 0.028222 0.627378 -0.102385
C86   C     C_R   0.571414 0.567991 0.867654 -0.102494
C87   C     C_R   0.968584 0.407788 0.626776 -0.102188
C88   C     C_R   0.431491 0.002962 0.867459 -0.099501
C89   C     C_R   0.123266 0.555866 0.310385 0.546072
C90   C     C_R   0.590207 0.561677 0.627321 -0.102121
C91   C     C_R   0.425520 0.993664 0.368061 -0.118370
C92   C     C_R   0.032183 0.439957 0.126467 -0.107065
C93   C     C_R   0.568446 0.574533 0.367933 -0.119269
C94   C     C_R   0.409210 0.969865 0.126836 -0.109833
C95   C     C_R   0.003174 0.431576 0.367461 -0.097026
C96   C     C_R   0.560871 0.591132 0.126891 -0.107795
Cr1   Cr    Cr6+3 0.504240 0.249200 0.750000 1.052129
Cr2   Cr    Cr6+3 0.744960 0.495760 0.750000 1.052559
Cr3   Cr    Cr6+3 0.750800 0.255040 0.750000 1.052316
Cr4   Cr    Cr6+3 0.249200 0.504240 0.250000 1.050358
Cr5   Cr    Cr6+3 0.495760 0.744960 0.250000 1.047413
Cr6   Cr    Cr6+3 0.255040 0.750800 0.250000 1.047741
H1    H     H_    0.872066 0.584592 0.861978 0.164516
H2    H     H_    0.588796 0.873826 0.139206 0.166495
H3    H     H_    0.127138 0.712242 0.361990 0.150690
H4    H     H_    0.285819 0.409351 0.139507 0.164761
H5    H     H_    0.086801 0.700999 0.064483 0.195103
H6    H     H_    0.623666 0.936064 0.434317 0.150436
H7    H     H_    0.300405 0.385202 0.064504 0.171985
H8    H     H_    0.065210 0.687365 0.434607 0.161031
H9    H     H_    0.612270 0.911688 0.064152 0.175779
H10   H     H_    0.313062 0.376103 0.434308 0.175366
H11   H     H_    0.697852 0.082257 0.564557 0.185287
H12   H     H_    0.713616 0.122698 0.639431 0.164197
H13   H     H_    0.934784 0.622674 0.934480 0.183087
H14   H     H_    0.385534 0.301795 0.564391 0.187684
H15   H     H_    0.687399 0.065380 0.934589 0.174410
H16   H     H_    0.916350 0.615397 0.564555 0.187718
H17   H     H_    0.378835 0.311422 0.934696 0.152946
H18   H     H_    0.020717 0.367988 0.143474 0.176294
H19   H     H_    0.367415 0.006430 0.349917 0.164130
H20   H     H_    0.632708 0.651508 0.144002 0.175645
H21   H     H_    0.989029 0.360630 0.349035 0.172871
H22   H     H_    0.349604 0.982308 0.144052 0.175688
H23   H     H_    0.415679 0.287228 0.861974 0.162907
H24   H     H_    0.639228 0.632706 0.349758 0.164446
H25   H     H_    0.366613 0.016926 0.644613 0.174980
H26   H     H_    0.012291 0.372943 0.848952 0.175006
H27   H     H_    0.650299 0.633350 0.644591 0.175200
H28   H     H_    0.360494 0.988637 0.849041 0.174794
H29   H     H_    0.979298 0.346892 0.643843 0.175150
H30   H     H_    0.627862 0.639154 0.849256 0.174015
H31   H     H_    0.811743 0.288752 0.033978 0.333873
H32   H     H_    0.218665 0.952642 0.427322 0.333386
H33   H     H_    0.712925 0.520670 0.034869 0.332423
H34   H     H_    0.878270 0.591817 0.639621 0.164437
H35   H     H_    0.940810 0.166208 0.452287 0.372078
H36   H     H_    0.368985 0.159149 0.009659 0.380122
H37   H     H_    0.732940 0.780841 0.427237 0.329890
H38   H     H_    0.211800 0.033286 0.534934 0.394306
H39   H     H_    0.233255 0.430883 0.977517 0.371907
H40   H     H_    0.821619 0.787916 0.534538 0.392866
H41   H     H_    0.285832 0.747817 0.951496 0.363464
H42   H     H_    0.954360 0.172153 0.534954 0.376680
H43   H     H_    0.571406 0.801974 0.978047 0.369186
H44   H     H_    0.712201 0.127256 0.861961 0.163050
H45   H     H_    0.409724 0.286144 0.639310 0.164374
H46   H     H_    0.588026 0.876281 0.361409 0.148085
H47   H     H_    0.123807 0.714524 0.139600 0.165062
H48   H     H_    0.288553 0.411773 0.361438 0.161445
O1    O     O_R   0.480350 0.140770 0.796330 -0.509122
O2    O     O_R   0.140770 0.480350 0.203670 -0.510449
O3    O     O_R   0.519650 0.660420 0.296330 -0.512810
O4    O     O_R   0.339580 0.859230 0.203670 -0.509859
O5    O     O_R   0.514930 0.348530 0.793250 -0.492654
O6    O     O_R   0.833600 0.485070 0.706750 -0.493906
O7    O     O_R   0.651470 0.166400 0.793250 -0.492742
O8    O     O_R   0.514930 0.348530 0.706750 -0.493856
O9    O     O_R   0.833600 0.485070 0.793250 -0.492515
O10   O     O_R   0.651470 0.166400 0.706750 -0.493993
O11   O     O_R   0.348530 0.514930 0.293250 -0.492795
O12   O     O_R   0.660420 0.519650 0.703670 -0.510619
O13   O     O_R   0.485070 0.833600 0.206750 -0.493972
O14   O     O_R   0.166400 0.651470 0.293250 -0.493324
O15   O     O_R   0.348530 0.514930 0.206750 -0.494284
O16   O     O_R   0.485070 0.833600 0.293250 -0.493489
O17   O     O_R   0.166400 0.651470 0.206750 -0.494363
O18   O     O_3   0.666667 0.333333 0.750000 -0.248507
O19   O     O_3   0.333333 0.666667 0.250000 -0.246957
O20   O     O_2   0.058906 0.298821 0.040104 -0.196806
O21   O     O_2   0.905972 0.210143 0.089790 -0.262939
O22   O     O_3   0.872574 0.284423 0.019912 -0.478953
O23   O     O_R   0.859230 0.339580 0.796330 -0.508399
O24   O     O_2   0.448822 0.177563 0.464585 -0.209092
O25   O     O_2   0.360530 0.161035 0.396651 -0.282357
O26   O     O_3   0.258036 0.003741 0.450807 -0.450310
O27   O     O_2   0.704082 0.758451 0.040816 -0.190386
O28   O     O_2   0.791220 0.693116 0.090748 -0.265882
O29   O     O_3   0.717440 0.585846 0.020749 -0.476788
O30   O     O_2   0.814939 0.271847 0.463607 -0.236268
O31   O     O_2   0.826429 0.201748 0.394434 -0.298542
O32   O     O_3   0.983673 0.246995 0.447742 -0.474038
O33   O     O_2   0.243353 0.948117 0.040008 -0.188544
O34   O     O_R   0.480350 0.140770 0.703670 -0.510696
O35   O     O_2   0.308482 0.098894 0.091014 -0.274330
O36   O     O_3   0.418533 0.134586 0.021545 -0.521499
O37   O     O_2   0.729540 0.551490 0.464331 -0.209872
O38   O     O_2   0.800978 0.639608 0.396342 -0.284894
O39   O     O_3   0.746383 0.742205 0.450536 -0.455159
O40   O     O_2   0.283183 0.876686 0.525095 -0.247093
O41   O     O_2   0.207958 0.894807 0.592146 -0.290476
O42   O     O_3   0.290828 0.062594 0.541437 -0.466826
O43   O     O_2   0.031215 0.283320 0.948363 -0.180576
O44   O     O_2   0.172778 0.374114 0.894259 -0.282211
O45   O     O_R   0.660420 0.519650 0.796330 -0.508573
O46   O     O_3   0.201771 0.474587 0.965661 -0.507530
O47   O     O_2   0.593794 0.716737 0.525095 -0.249950
O48   O     O_2   0.687559 0.791932 0.592081 -0.291968
O49   O     O_3   0.772065 0.708961 0.541213 -0.467480
O50   O     O_2   0.252532 0.972074 0.948365 -0.179409
O51   O     O_2   0.200113 0.829756 0.894727 -0.281341
O52   O     O_3   0.270660 0.800978 0.966369 -0.481133
O53   O     O_2   0.115637 0.400577 0.523822 -0.236854
O54   O     O_2   0.096369 0.305931 0.590643 -0.289115
O55   O     O_3   0.927870 0.224749 0.540261 -0.492872
O56   O     O_R   0.859230 0.339580 0.703670 -0.510791
O57   O     O_2   0.718714 0.746360 0.949055 -0.176781
O58   O     O_2   0.628832 0.798506 0.895054 -0.284945
O59   O     O_3   0.527849 0.726578 0.966343 -0.508124
O60   O     O_R   0.140770 0.480350 0.296330 -0.509665
O61   O     O_R   0.519650 0.660420 0.203670 -0.510514
O62   O     O_R   0.339580 0.859230 0.296330 -0.512682
S1    S     S_3+6 0.961927 0.302301 0.058523 0.054264
S2    S     S_3+6 0.280845 0.891202 0.929319 0.056972
S3    S     S_3+6 0.037971 0.338760 0.559172 0.038763
S4    S     S_3+6 0.609803 0.718037 0.929712 0.055467
S5    S     S_3+6 0.380128 0.098325 0.430635 0.051926
S6    S     S_3+6 0.699598 0.657568 0.059280 0.058251
S7    S     S_3+6 0.891942 0.280445 0.429047 0.040535
S8    S     S_3+6 0.343890 0.043382 0.059229 0.049938
S9    S     S_3+6 0.718817 0.620069 0.430386 0.049276
S10   S     S_3+6 0.298081 0.954296 0.560347 0.042230
S11   S     S_3+6 0.111255 0.392511 0.929063 0.049933
S12   S     S_3+6 0.656671 0.701794 0.560265 0.039216

loop_
_geom_bond_atom_site_label_1
_geom_bond_atom_site_label_2
_ccdc_geom_bond_type
C19   C56   S    
C84   H26   S    
C21   C87   A    
Cr6   O17   S    
C65   C79   A    
O35   S8    D    
C74   S3    S    
C64   C77   A    
C60   C73   A    
C45   O9    A    
C88   H28   S    
O27   S6    D    
O47   S12   D    
C77   S5    S    
C7    C70   S    
C29   C89   S    
C72   C85   A    
C66   C80   A    
O20   S1    D    
Cr5   O61   S    
O54   S3    D    
C2    O61   A    
O33   S8    D    
H32   O26   S    
O29   S6    S    
C67   O3    A    
C68   C81   A    
O53   S3    D    
H36   O36   S    
H31   O22   S    
C71   C84   A    
O40   S10   D    
C29   C42   A    
O39   S9    S    
C58   C71   A    
C54   C68   A    
C63   C76   A    
C35   C48   A    
C26   C92   A    
C28   C41   A    
O52   S2    S    
C28   C94   A    
H40   O49   S    
C87   H29   S    
C1    O5    A    
C93   H24   S    
C30   C96   A    
C69   C82   A    
C47   C60   A    
C90   H27   S    
C57   H7    S    
C82   S7    S    
C52   H5    S    
C44   C58   A    
C51   H6    S    
C7    C17   T    
C20   C86   A    
O31   S7    D    
O50   S2    D    
C73   S4    S    
Cr5   O19   S    
Cr4   O11   S    
C82   C95   A    
C22   C88   A    
C57   C70   A    
C28   C78   S    
Cr6   O4    S    
C89   O14   A    
C5    C13   T    
O41   S10   D    
C59   C72   A    
O38   S9    D    
Cr6   O19   S    
C47   H17   S    
C39   C52   A    
C80   S9    S    
O32   S7    S    
O58   S4    D    
Cr3   O10   S    
C50   C63   A    
O25   S5    D    
C12   O6    A    
C11   C59   S    
C19   C32   A    
O51   S2    D    
Cr2   O12   S    
H43   O59   S    
C10   C66   S    
Cr1   O1    S    
C41   C54   A    
Cr2   O6    S    
C25   C91   A    
O59   S4    S    
C71   S11   S    
C31   C44   A    
Cr3   O56   S    
C8    C16   T    
C3    C25   S    
C81   C94   A    
C44   H13   S    
C5    C65   S    
C10   C14   T    
C6    C11   T    
C29   C95   A    
C83   S6    S    
C43   C57   A    
C78   O4    A    
C48   H16   S    
C38   C51   A    
C56   O34   A    
C34   O12   A    
Cr5   O3    S    
C81   S8    S    
O36   S8    S    
C12   C21   S    
Cr6   O62   S    
Cr4   O2    S    
C18   C31   A    
Cr4   O15   S    
C43   H4    S    
C12   O56   A    
O48   S12   D    
C76   S12   S    
C36   C49   A    
C70   C83   A    
C45   O23   A    
C25   C38   A    
C67   O11   A    
C18   C84   A    
Cr3   O23   S    
C27   C93   A    
Cr5   O13   S    
C27   C40   A    
C72   S10   S    
C50   H14   S    
C33   H23   S    
C24   C37   A    
C8    C69   S    
C40   H48   S    
H35   O32   S    
O24   S5    D    
C37   H45   S    
C4    O2    A    
C53   C66   A    
C2    O15   A    
C38   H46   S    
C79   C92   A    
C55   C69   A    
C79   S1    S    
C21   C35   A    
C20   C33   A    
C34   O8    A    
C53   H10   S    
C36   H44   S    
O26   S5    S    
Cr3   O7    S    
C55   H8    S    
C74   C87   A    
C49   H15   S    
C30   C43   A    
C85   H25   S    
C16   C61   S    
C62   C75   A    
O22   S1    S    
C18   C45   S    
C22   C36   A    
Cr1   O34   S    
Cr3   O18   S    
C95   H21   S    
C3    O62   A    
C23   O1    A    
C77   C91   A    
C1    C20   S    
C49   C62   A    
C46   H11   S    
C1    O45   A    
Cr4   O19   S    
C32   C46   A    
O28   S6    D    
C51   C64   A    
C19   C85   A    
C24   C90   A    
C35   H34   S    
C4    C26   S    
Cr2   O45   S    
C4    O17   A    
C6    C64   S    
C89   O60   A    
C13   C58   S    
C61   C74   A    
Cr1   O18   S    
O37   S9    D    
C39   H47   S    
C75   S2    S    
C41   H2    S    
C96   H20   S    
C2    C30   S    
Cr1   O8    S    
C92   H18   S    
O43   S11   D    
H33   O29   S    
C56   O10   A    
C37   C50   A    
C86   H30   S    
C48   C61   A    
C42   C55   A    
H38   O42   S    
C83   C96   A    
C23   O7    A    
Cr4   O60   S    
O57   S4    D    
C33   C47   A    
C15   C62   S    
C54   H9    S    
C14   C63   S    
Cr1   O5    S    
C9    C15   T    
Cr5   O16   S    
C26   C39   A    
C42   H3    S    
C24   C34   S    
C73   C86   A    
C9    C68   S    
O46   S11   S    
C27   C67   S    
H42   O55   S    
C17   C60   S    
O42   S10   S    
O21   S1    D    
H37   O39   S    
C75   C88   A    
C78   O13   A    
H41   O52   S    
Cr2   O9    S    
O55   S3    S    
C46   C59   A    
Cr6   O14   S    
C40   C53   A    
C91   H19   S    
C76   C90   A    
C22   C23   S    
O30   S7    D    
O49   S12   S    
C32   H12   S    
C80   C93   A    
H39   O46   S    
Cr2   O18   S    
C52   C65   A    
C3    O16   A    
C31   H1    S    
O44   S11   D    
C94   H22   S    
