data_mof_unit_38503.cif
_audit_creation_date              2012-12-10T16:43:27-0500
_audit_creation_method            fapswitch 2.2
_symmetry_space_group_name_H-M    P1
_symmetry_Int_Tables_number       1
_space_group_crystal_system       triclinic
_cell_length_a                    10.96644
_cell_length_b                    8.879456
_cell_length_c                    7.473313
_cell_angle_alpha                 101.648141
_cell_angle_beta                  93.56097
_cell_angle_gamma                 95.837646
_cell_volume                      706.48319235

loop_
_atom_site_label
_atom_site_type_symbol
_atom_type_description
_atom_site_fract_x
_atom_site_fract_y
_atom_site_fract_z
_atom_type_partial_charge
C1    C     C_R   0.492715 0.200736 0.455629 0.817449
C2    C     C_R   0.506407 0.800069 0.545711 0.963156
C3    C     C_R   0.738450 0.507838 0.498742 0.821587
C4    C     C_R   0.134594 0.551225 0.853262 -0.250360
C5    C     C_R   0.098154 0.653084 0.001506 0.401081
C6    C     C_R   0.983299 0.701243 0.990289 -0.329662
C7    C     C_R   0.915603 0.674552 0.821047 0.407765
C8    C     C_R   0.950400 0.571618 0.667863 -0.019416
C9    C     C_R   0.597743 0.058618 0.740590 0.155419
C10   C     C_R   0.563281 0.044518 0.914696 -0.061514
C11   C     C_R   0.646021 0.103217 0.067828 -0.009396
C12   C     C_R   0.070570 0.527964 0.677646 -0.008701
C13   C     C_R   0.755080 0.191470 0.052789 -0.121846
C14   C     C_R   0.782694 0.224709 0.884202 -0.080820
C15   C     C_R   0.707562 0.151867 0.726743 0.053905
C16   C     C_R   0.126229 0.482632 0.510727 -0.022769
C17   C     C_R   0.053541 0.458683 0.343442 -0.140727
C18   C     C_R   0.930465 0.483101 0.338889 -0.226658
C19   C     C_R   0.874686 0.524907 0.500900 -0.042408
C20   C     C_2   0.483757 0.034409 0.436614 -0.380678
C21   C     C_2   0.523826 0.968338 0.571698 -0.191249
C22   C     C_R   0.261535 0.489824 0.502831 0.830654
Cu1   Cu    Cu3+1 0.513920 0.517380 0.684380 1.033302
Cu2   Cu    Cu3+1 0.486080 0.482620 0.315620 1.028410
H1    H     H_    0.092897 0.425246 0.214055 0.154035
H2    H     H_    0.478717 0.975746 0.930074 0.177411
H3    H     H_    0.631953 0.069047 0.195262 0.127199
H4    H     H_    0.821401 0.222216 0.169921 0.115620
H5    H     H_    0.868149 0.293448 0.872894 0.124608
H6    H     H_    0.736019 0.165092 0.593973 0.090954
H7    H     H_    0.596934 0.623051 0.050267 0.256603
H8    H     H_    0.215810 0.498730 0.879580 0.195267
H9    H     H_    0.958345 0.785481 0.104427 0.185825
H10   H     H_    0.878883 0.470530 0.207837 0.152199
H11   H     H_    0.441993 0.964698 0.307885 0.244411
H12   H     H_    0.403853 0.375603 0.950000 0.216395
H13   H     H_    0.142847 0.998021 0.210346 0.344367
H14   H     H_    0.944417 0.011285 0.001816 0.335560
N1    N     N_2   0.465100 0.456430 0.038520 -0.206474
N2    N     N_2   0.534900 0.543570 0.961480 -0.188569
O1    O     O_R   0.509050 0.286130 0.619770 -0.601756
O2    O     O_2   0.335135 0.727904 0.108264 -0.278445
O3    O     O_3   0.206428 0.957902 0.131103 -0.534202
O4    O     O_2   0.791105 0.826618 0.599756 -0.325244
O5    O     O_2   0.734081 0.829903 0.914365 -0.351978
O6    O     O_3   0.938929 0.991130 0.866250 -0.516364
O7    O     O_R   0.485540 0.256780 0.308360 -0.591038
O8    O     O_R   0.331410 0.514680 0.655740 -0.604753
O9    O     O_R   0.307900 0.485330 0.344330 -0.545855
O10   O     O_R   0.514460 0.743220 0.691640 -0.542461
O11   O     O_R   0.490950 0.713870 0.380230 -0.541846
O12   O     O_R   0.692100 0.514670 0.655670 -0.574667
O13   O     O_R   0.668590 0.485320 0.344260 -0.603178
O14   O     O_2   0.192279 0.766267 0.350491 -0.314229
S1    S     S_3+6 0.211532 0.774224 0.155316 -0.013024
S2    S     S_3+6 0.838025 0.830974 0.794060 -0.012896

loop_
_geom_bond_atom_site_label_1
_geom_bond_atom_site_label_2
_ccdc_geom_bond_type
H13   O3    S    
C22   O8    A    
C3    O12   A    
C13   H4    S    
C3    C19   S    
C6    C7    A    
O2    S1    D    
C4    C12   A    
C3    O13   A    
C9    C10   A    
O4    S2    D    
Cu1   O1    S    
C6    H9    S    
C11   H3    S    
Cu1   Cu2   S    
C17   H1    S    
C10   H2    S    
C2    C21   S    
C17   C18   A    
C9    C15   A    
C7    C8    A    
C13   C14   A    
C20   C21   D    
C11   C13   A    
C9    C21   S    
Cu1   O12   S    
C4    H8    S    
C7    S2    S    
Cu2   O11   S    
C22   O9    A    
C1    O1    A    
C5    S1    S    
C18   H10   S    
C5    C6    A    
H14   O6    S    
C8    C19   A    
C16   C17   A    
C10   C11   A    
C14   H5    S    
O6    S2    S    
Cu1   N2    S    
C12   C16   A    
N1    N2    D    
Cu2   N1    S    
H7    N2    S    
C15   H6    S    
C18   C19   A    
C2    O11   A    
O3    S1    S    
Cu2   O9    S    
C14   C15   A    
C1    O7    A    
C1    C20   S    
C16   C22   S    
Cu1   O8    S    
C2    O10   A    
Cu2   O13   S    
O14   S1    D    
Cu2   O7    S    
C20   H11   S    
H12   N1    S    
C8    C12   A    
O5    S2    D    
C4    C5    A    
Cu1   O10   S    
