data_mof_unit_19687.cif
_audit_creation_date              2012-12-11T16:08:34-0500
_audit_creation_method            fapswitch 2.2
_symmetry_space_group_name_H-M    P1
_symmetry_Int_Tables_number       1
_space_group_crystal_system       triclinic
_cell_length_a                    12.87271
_cell_length_b                    13.317513
_cell_length_c                    27.743991
_cell_angle_alpha                 94.448446
_cell_angle_beta                  90.785501
_cell_angle_gamma                 119.015935
_cell_volume                      4139.52054615

loop_
_atom_site_label
_atom_site_type_symbol
_atom_type_description
_atom_site_fract_x
_atom_site_fract_y
_atom_site_fract_z
_atom_type_partial_charge
C1    C     C_R   0.628090 0.896608 0.427235 0.557893
C2    C     C_R   0.734760 0.465648 0.243029 0.035901
C3    C     C_R   0.723765 0.447438 0.293045 0.035881
C4    C     C_R   0.683000 0.334680 0.306821 0.036627
C5    C     C_R   0.704206 0.370486 0.207996 0.035233
C6    C     C_1   0.705811 0.382837 0.156645 -0.071012
C7    C     C_1   0.660498 0.306901 0.356283 -0.076453
C8    C     C_1   0.708864 0.402004 0.114737 -0.026940
C9    C     C_R   0.148066 0.742733 0.356330 -0.141750
C10   C     C_R   0.121654 0.728241 0.306809 -0.012766
C11   C     C_R   0.100850 0.707801 0.205739 0.015529
C12   C     C_R   0.601397 0.222835 0.440758 0.535272
C13   C     C_R   0.079416 0.610688 0.230416 0.003231
C14   C     C_R   0.088936 0.622143 0.280936 -0.119433
C15   C     C_R   0.094649 0.701567 0.155450 -0.130889
C16   C     C_R   0.103896 0.794077 0.131154 -0.007176
C17   C     C_R   0.199877 0.944491 0.358478 -0.127678
C18   C     C_R   0.171683 0.930869 0.308896 0.016679
C19   C     C_R   0.137955 0.823577 0.282577 0.052011
C20   C     C_R   0.186255 0.024956 0.284667 -0.133783
C21   C     C_R   0.171464 0.013991 0.234324 -0.135108
C22   C     C_R   0.143271 0.909279 0.207708 0.016407
C23   C     C_R   0.266853 0.875977 0.426428 0.544848
C24   C     C_R   0.126483 0.813246 0.231990 0.042996
C25   C     C_R   0.129644 0.898311 0.157274 -0.137335
C26   C     C_R   0.196985 0.852670 0.381192 -0.002820
C27   C     C_R   0.759458 0.933442 0.357991 0.249422
C28   C     C_R   0.771558 0.907709 0.309497 0.015319
C29   C     C_R   0.779272 0.892167 0.209806 0.011001
C30   C     C_R   0.879510 0.973274 0.238204 -0.148511
C31   C     C_R   0.877320 0.978021 0.287874 -0.122360
C32   C     C_R   0.782378 0.890702 0.160391 -0.125657
C33   C     C_R   0.692467 0.799560 0.130691 -0.007902
C34   C     C_R   0.627765 0.898999 0.564990 0.543542
C35   C     C_R   0.563658 0.761481 0.353109 -0.188501
C36   C     C_R   0.568822 0.742047 0.302958 -0.009510
C37   C     C_R   0.673200 0.817826 0.281230 -0.010731
C38   C     C_R   0.470818 0.652402 0.273938 0.033291
C39   C     C_R   0.482392 0.635085 0.223496 0.022231
C40   C     C_R   0.582211 0.719524 0.201524 0.008569
C41   C     C_R   0.677769 0.809354 0.230876 0.034794
C42   C     C_R   0.591724 0.715276 0.150901 -0.138201
C43   C     C_R   0.653886 0.860022 0.379853 -0.005772
C44   C     C_R   0.744730 0.304250 0.651003 -0.187423
C45   C     C_R   0.605152 0.229582 0.577796 0.560448
C46   C     C_R   0.770396 0.352647 0.699146 -0.000483
C47   C     C_R   0.797430 0.421204 0.798941 0.008922
C48   C     C_R   0.871389 0.382310 0.777618 -0.124112
C49   C     C_R   0.856581 0.346388 0.728193 -0.117341
C50   C     C_R   0.804270 0.446026 0.848982 -0.148100
C51   C     C_R   0.722190 0.472307 0.871673 0.003659
C52   C     C_R   0.601378 0.371662 0.640782 0.249722
C53   C     C_R   0.619817 0.412314 0.689936 0.017498
C54   C     C_R   0.702567 0.400650 0.719532 0.018433
C55   C     C_R   0.551590 0.458103 0.710472 -0.123142
C56   C     C_R   0.272155 0.879500 0.563430 0.544542
C57   C     C_R   0.557271 0.482604 0.760165 -0.145735
C58   C     C_R   0.635605 0.466952 0.791096 0.025899
C59   C     C_R   0.713268 0.431585 0.769895 0.050173
C60   C     C_R   0.634829 0.481926 0.842305 -0.008990
C61   C     C_R   0.654219 0.306211 0.622898 -0.007936
C62   C     C_1   0.223042 0.861888 0.610135 -0.010970
C63   C     C_R   0.223393 0.783428 0.727977 -0.087515
C64   C     C_R   0.209722 0.775474 0.777926 0.019948
C65   C     C_R   0.095499 0.877016 0.775763 -0.122592
C66   C     C_R   0.109231 0.883941 0.726002 -0.114451
C67   C     C_1   0.636380 0.274737 0.396126 -0.040094
C68   C     C_R   0.173253 0.837229 0.702037 0.023280
C69   C     C_R   0.146043 0.823825 0.802017 0.052404
C70   C     C_1   0.124839 0.812664 0.852810 -0.057439
C71   C     C_1   0.194884 0.849791 0.651460 -0.059079
C72   C     C_1   0.099850 0.796511 0.894271 -0.017885
C73   C     C_1   0.643336 0.866387 0.611405 -0.022234
C74   C     C_R   0.720351 0.785748 0.721968 -0.111345
C75   C     C_R   0.725256 0.776390 0.771707 -0.106628
C76   C     C_R   0.588817 0.851876 0.783770 -0.113648
C77   C     C_R   0.583776 0.861125 0.734053 -0.108684
C78   C     C_R   0.657279 0.243372 0.271635 -0.133061
C79   C     C_R   0.650136 0.828885 0.703109 0.032394
C80   C     C_R   0.659984 0.809979 0.802713 0.029172
C81   C     C_1   0.668770 0.802310 0.853872 -0.070274
C82   C     C_1   0.648992 0.845856 0.652588 -0.067905
C83   C     C_1   0.683580 0.791997 0.895786 -0.024255
C84   C     C_R   0.060783 0.769342 0.080387 0.546103
C85   C     C_R   0.717686 0.441678 0.067552 0.557955
C86   C     C_R   0.721439 0.781658 0.081361 0.547205
C87   C     C_R   0.055803 0.765743 0.941129 0.538377
C88   C     C_R   0.732055 0.491437 0.925509 0.566468
C89   C     C_R   0.667623 0.261007 0.222775 -0.129435
C90   C     C_R   0.715645 0.776563 0.943155 0.539911
Cr1   Cr    Cr6+3 0.416430 0.829200 0.492370 1.006738
Cr2   Cr    Cr6+3 0.674630 0.087020 0.504170 1.013755
Cr3   Cr    Cr6+3 0.408920 0.083740 0.503490 1.042714
Cr4   Cr    Cr6+3 0.914010 0.832750 0.013970 1.017820
Cr5   Cr    Cr6+3 0.922310 0.578600 0.003000 1.015121
Cr6   Cr    Cr6+3 0.656280 0.574630 0.003870 1.002305
H1    H     H_    0.626468 0.156975 0.282012 0.112658
H2    H     H_    0.184047 0.087915 0.216147 0.100314
H3    H     H_    0.211698 0.107614 0.304546 0.106624
H4    H     H_    0.235185 0.029196 0.378096 0.133535
H5    H     H_    0.861411 0.956309 0.145385 0.136481
H6    H     H_    0.959312 0.033818 0.221954 0.105068
H7    H     H_    0.956308 0.042245 0.309085 0.151410
H8    H     H_    0.523167 0.646394 0.126844 0.128611
H9    H     H_    0.644735 0.188181 0.196261 0.119720
H10   H     H_    0.485895 0.704739 0.371334 0.140994
H11   H     H_    0.871134 0.439355 0.870552 0.137377
H12   H     H_    0.789362 0.258203 0.636609 0.139694
H13   H     H_    0.937198 0.374861 0.799549 0.107506
H14   H     H_    0.910430 0.311068 0.712945 0.112901
H15   H     H_    0.497385 0.512198 0.773358 0.118744
H16   H     H_    0.488469 0.469482 0.688531 0.159840
H17   H     H_    0.273539 0.748043 0.709211 0.108069
H18   H     H_    0.044818 0.912710 0.793783 0.114663
H19   H     H_    0.070647 0.926262 0.706340 0.116391
H20   H     H_    0.772105 0.760737 0.698450 0.106984
H21   H     H_    0.780567 0.743695 0.786061 0.118933
H22   H     H_    0.538527 0.878517 0.807388 0.114128
H23   H     H_    0.529423 0.894961 0.719808 0.116317
H24   H     H_    0.074274 0.621212 0.134903 0.144662
H25   H     H_    0.142414 0.671038 0.374436 0.123476
H26   H     H_    0.075325 0.549235 0.300188 0.104103
H27   H     H_    0.135590 0.969221 0.138507 0.116801
O1    O     O_R   0.296680 0.802170 0.437540 -0.521924
O2    O     O_R   0.662610 0.183990 0.557860 -0.519004
O3    O     O_R   0.500730 0.201280 0.562180 -0.452763
O4    O     O_R   0.312500 0.978850 0.548170 -0.489613
O5    O     O_3   0.499990 0.999990 0.500010 -0.246727
O6    O     O_R   0.820790 0.857990 0.068830 -0.522212
O7    O     O_R   0.016700 0.827330 0.062850 -0.497721
O8    O     O_R   0.041970 0.673520 0.060040 -0.523132
O9    O     O_R   0.817980 0.483660 0.048840 -0.491733
O10   O     O_R   0.637200 0.461990 0.052510 -0.503481
O11   O     O_R   0.664790 0.681920 0.057970 -0.501034
O12   O     O_R   0.525380 0.838530 0.443500 -0.515871
O13   O     O_R   0.815840 0.852920 0.961840 -0.498821
O14   O     O_R   0.012100 0.822630 0.963670 -0.493153
O15   O     O_R   0.037010 0.668460 0.953040 -0.520337
O16   O     O_R   0.813390 0.478970 0.949660 -0.499453
O17   O     O_R   0.632250 0.456930 0.945520 -0.519165
O18   O     O_R   0.660200 0.677230 0.958780 -0.533002
O19   O     O_3   0.830870 0.661990 0.006950 -0.263981
O20   O     O_R   0.702130 0.995190 0.446810 -0.470299
O21   O     O_R   0.661770 0.181390 0.458760 -0.515498
O22   O     O_R   0.499820 0.198480 0.455280 -0.510658
O23   O     O_R   0.311660 0.976250 0.449080 -0.503639
O24   O     O_R   0.297580 0.804960 0.544440 -0.511931
O25   O     O_R   0.526220 0.841130 0.542590 -0.497540
O26   O     O_R   0.703030 0.997990 0.553710 -0.507067
O27   O     O_3   0.848197 0.033896 0.383165 -0.546125
C91   C     C_3   0.835731 0.129285 0.370886 0.013085
H28   H     H_    0.743317 0.113941 0.374964 0.151230
H29   H     H_    0.858379 0.148252 0.332973 0.108105
C92   C     C_3   0.920001 0.235920 0.403987 -0.344854
H30   H     H_    0.013418 0.255874 0.399273 0.137779
H31   H     H_    0.910138 0.310752 0.394892 0.090173
H32   H     H_    0.899345 0.221145 0.442369 0.180195
C93   C     C_3   0.392666 0.525734 0.193459 -0.404412
H33   H     H_    0.338965 0.454293 0.215641 0.127275
H34   H     H_    0.333230 0.544005 0.170781 0.125969
H35   H     H_    0.439520 0.491367 0.169893 0.133147
C94   C     C_3   0.352631 0.582223 0.296280 -0.401676
H36   H     H_    0.276756 0.534114 0.269268 0.132362
H37   H     H_    0.358819 0.521134 0.319657 0.120017
H38   H     H_    0.328523 0.640566 0.318110 0.137009
C95   C     C_3   0.534745 0.500004 0.862521 -0.375390
H39   H     H_    0.533465 0.515574 0.901572 0.191387
H40   H     H_    0.536757 0.576307 0.848655 0.112643
H41   H     H_    0.447955 0.423136 0.850587 0.125725
O28   O     O_3   0.522006 0.385519 0.611607 -0.543899
C96   C     C_3   0.586980 0.486322 0.587976 -0.013262
H42   H     H_    0.648943 0.476065 0.562986 0.128007
H43   H     H_    0.638657 0.563166 0.614611 0.119045
C97   C     C_3   0.500955 0.508199 0.558342 -0.356860
H44   H     H_    0.438783 0.520065 0.582451 0.156429
H45   H     H_    0.551217 0.587417 0.539613 0.098575
H46   H     H_    0.449106 0.434002 0.530827 0.165298
C98   C     C_3   0.776311 0.585747 0.227917 -0.383398
H47   H     H_    0.784673 0.591210 0.188407 0.141897
H48   H     H_    0.712024 0.614707 0.238989 0.142092
H49   H     H_    0.864970 0.646844 0.245683 0.144080
C99   C     C_3   0.261913 0.714706 0.804801 -0.404506
H50   H     H_    0.310351 0.683290 0.780638 0.121431
H51   H     H_    0.325300 0.774772 0.834542 0.134159
H52   H     H_    0.189622 0.639307 0.820392 0.139605
C100  C     C_3   0.754206 0.547929 0.330713 -0.396931
H53   H     H_    0.742462 0.523097 0.368274 0.134052
H54   H     H_    0.848702 0.614677 0.328900 0.138810
H55   H     H_    0.696207 0.586237 0.324001 0.138454
C101  C     C_3   0.046760 0.494821 0.204072 -0.408334
H56   H     H_    0.119696 0.502725 0.181053 0.121430
H57   H     H_    0.031704 0.429191 0.229499 0.122867
H58   H     H_    0.963458 0.462832 0.181165 0.144469

loop_
_geom_bond_atom_site_label_1
_geom_bond_atom_site_label_2
_ccdc_geom_bond_type
C50   H11   S    
C66   C68   A    
C96   H42   S    
C101  H56   S    
C14   H26   S    
C55   H16   S    
C11   C13   A    
C65   H18   S    
C35   C36   A    
C75   H21   S    
C96   C97   S    
Cr2   O2    S    
Cr1   O24   S    
C98   H47   S    
C95   H40   S    
C57   H15   S    
C53   C54   A    
C96   H43   S    
C46   C49   A    
Cr4   O7    S    
C33   C42   A    
C36   C37   A    
C8    C85   S    
C29   C32   A    
C52   C61   A    
C85   O9    A    
C5    C6    S    
C98   H48   S    
C91   C92   S    
O28   C96   S    
C58   C60   A    
C15   C16   A    
C11   C24   A    
C16   C84   S    
C15   H24   S    
C18   C20   A    
C18   C19   A    
C23   C26   S    
C45   C61   S    
Cr2   O20   S    
C99   H50   S    
C88   O17   A    
C93   H35   S    
Cr6   O18   S    
C97   H44   S    
C34   O25   A    
C86   O11   A    
C45   O2    A    
C22   C25   A    
C9    H25   S    
C91   H28   S    
Cr3   O22   S    
C35   C43   A    
C75   C80   A    
C45   O3    A    
C92   H31   S    
C101  H58   S    
C64   C99   S    
C44   H12   S    
C48   H13   S    
C13   C14   A    
Cr5   O8    S    
C46   C54   A    
C11   C15   A    
C87   O14   A    
C4    C7    S    
Cr2   O21   S    
Cr2   O5    S    
Cr1   O25   S    
C81   C83   T    
C34   O26   A    
C44   C46   A    
C9    C26   A    
C17   C18   A    
C47   C50   A    
C94   H37   S    
C54   C59   A    
C53   C55   A    
C78   C89   A    
C38   C39   A    
C23   O23   A    
Cr4   O6    S    
C66   H19   S    
Cr4   O19   S    
C76   C77   A    
C92   H32   S    
Cr1   O5    S    
C52   O28   S    
C39   C40   A    
C80   C81   S    
C6    C8    T    
C12   C67   S    
C58   C59   A    
Cr6   O19   S    
C56   O4    A    
C76   H22   S    
C13   C101  S    
C12   O21   A    
C99   H52   S    
C31   H7    S    
C12   O22   A    
C33   C86   S    
Cr3   O4    S    
C88   O16   A    
C4    C78   A    
C29   C30   A    
C1    O20   A    
C94   H38   S    
C90   O13   A    
Cr4   O13   S    
C47   C48   A    
C10   C19   A    
C74   H20   S    
C30   H6    S    
C78   H1    S    
C50   C51   A    
C77   C79   A    
Cr3   O23   S    
C64   C69   A    
C20   C21   A    
C25   H27   S    
C97   H46   S    
C92   H30   S    
Cr6   O10   S    
C1    C43   S    
Cr5   O19   S    
C48   C49   A    
C27   O27   S    
C74   C79   A    
C55   C57   A    
C39   C93   S    
C10   C14   A    
C93   H33   S    
C56   C62   S    
Cr2   O26   S    
C2    C5    A    
C17   C26   A    
C87   O15   A    
C100  H54   S    
C3    C4    A    
C3    C100  S    
C73   C82   T    
Cr5   O9    S    
C72   C87   S    
C52   C53   A    
C98   H49   S    
C94   H36   S    
C9    C10   A    
C16   C25   A    
C83   C90   S    
C63   C68   A    
C40   C41   A    
Cr5   O15   S    
C101  H57   S    
C29   C41   A    
O27   C91   S    
C28   C31   A    
C76   C80   A    
C40   C42   A    
C77   H23   S    
C42   H8    S    
C51   C88   S    
Cr6   O17   S    
C79   C82   S    
Cr6   O11   S    
C86   O6    A    
C23   O1    A    
C44   C61   A    
C84   O8    A    
Cr5   O16   S    
Cr1   O1    S    
C32   C33   A    
C56   O24   A    
C36   C38   A    
C19   C24   A    
Cr3   O5    S    
C35   H10   S    
C1    O12   A    
C21   H2    S    
C93   H34   S    
C30   C31   A    
C57   C58   A    
C95   H39   S    
C20   H3    S    
C28   C37   A    
C100  H55   S    
C68   C71   S    
C65   C69   A    
C84   O7    A    
C47   C59   A    
C97   H45   S    
C62   C71   T    
C2    C3    A    
C22   C24   A    
C91   H29   S    
C37   C41   A    
C69   C70   S    
Cr3   O3    S    
C17   H4    S    
C99   H51   S    
C90   O18   A    
C34   C73   S    
C7    C67   T    
C63   C64   A    
C63   H17   S    
C27   C43   A    
C38   C94   S    
Cr1   O12   S    
C74   C75   A    
C95   H41   S    
C60   C95   S    
C65   C66   A    
C89   H9    S    
C27   C28   A    
Cr4   O14   S    
C32   H5    S    
C70   C72   T    
C51   C60   A    
C2    C98   S    
C100  H53   S    
C21   C22   A    
C5    C89   A    
C85   O10   A    
C49   H14   S    
