data_mof_unit_37571.cif
_audit_creation_date              2012-12-11T17:07:55-0500
_audit_creation_method            fapswitch 2.2
_symmetry_space_group_name_H-M    P1
_symmetry_Int_Tables_number       1
_space_group_crystal_system       triclinic
_cell_length_a                    17.322202
_cell_length_b                    17.245199
_cell_length_c                    17.381955
_cell_angle_alpha                 89.722131
_cell_angle_beta                  90.356202
_cell_angle_gamma                 90.48675
_cell_volume                      5192.07393537

loop_
_atom_site_label
_atom_site_type_symbol
_atom_type_description
_atom_site_fract_x
_atom_site_fract_y
_atom_site_fract_z
_atom_type_partial_charge
Br1   Br    Br    0.443011 0.796339 0.926979 -0.576471
Br2   Br    Br    0.703342 0.937059 0.422472 -0.540445
Br3   Br    Br    0.057696 0.715430 0.356440 -0.561476
Br4   Br    Br    0.296451 0.061806 0.424031 -0.548992
Br5   Br    Br    0.937652 0.702483 0.579437 -0.569665
Br6   Br    Br    0.704690 0.062748 0.611730 -0.559849
Br7   Br    Br    0.066064 0.298187 0.577739 -0.577326
Br8   Br    Br    0.284496 0.938195 0.641990 -0.556241
Br9   Br    Br    0.221142 0.446535 0.844463 -0.554166
Br10  Br    Br    0.564469 0.200912 0.920428 -0.548323
Br11  Br    Br    0.780913 0.559883 0.850073 -0.534261
Br12  Br    Br    0.442916 0.218535 0.151920 -0.517177
Br13  Br    Br    0.201249 0.565683 0.083173 -0.580158
Br14  Br    Br    0.560038 0.781597 0.150244 -0.509685
Br15  Br    Br    0.798510 0.434603 0.080035 -0.553296
Br16  Br    Br    0.943795 0.284294 0.354920 -0.573105
C1    C     C_R   0.424171 0.332236 0.855588 -0.160263
C2    C     C_R   0.171493 0.920218 0.357805 -0.127514
C3    C     C_R   0.682717 0.754958 0.362363 -0.131610
C4    C     C_R   0.246887 0.316631 0.635951 -0.135244
C5    C     C_R   0.222279 0.861793 0.803746 -0.142930
C6    C     C_R   0.755453 0.682651 0.639042 -0.135598
C7    C     C_R   0.711714 0.236541 0.687961 -0.125790
C8    C     C_R   0.674455 0.263874 0.752274 -0.159197
C9    C     C_R   0.710494 0.638584 0.690222 -0.149742
C10   C     C_R   0.264820 0.819695 0.857679 -0.152663
C11   C     C_R   0.290503 0.360934 0.688204 -0.146079
C12   C     C_R   0.638818 0.710933 0.310088 -0.149888
C13   C     C_R   0.107800 0.197887 0.401161 -0.143444
C14   C     C_R   0.724046 0.289488 0.241147 -0.163915
C15   C     C_R   0.361791 0.287151 0.310384 -0.148637
C16   C     C_R   0.282974 0.716629 0.244989 -0.165996
C17   C     C_R   0.828045 0.079932 0.357742 -0.128561
C18   C     C_R   0.901888 0.192421 0.615713 -0.134112
C19   C     C_R   0.197532 0.106710 0.600218 -0.158552
C20   C     C_R   0.078131 0.830071 0.643959 -0.119558
C21   C     C_R   0.803083 0.892839 0.600774 -0.144346
C22   C     C_3   0.896011 0.217983 0.801272 -0.476317
C23   C     C_3   0.685422 0.867843 0.729188 -0.456261
C24   C     C_3   0.074023 0.718255 0.804244 -0.486108
C25   C     C_R   0.696023 0.392818 0.898172 -0.127886
C26   C     C_3   0.314453 0.131632 0.731255 -0.461465
C27   C     C_3   0.867222 0.680663 0.275446 -0.440075
C28   C     C_3   0.858823 0.137521 0.133336 -0.478225
C29   C     C_3   0.133334 0.319261 0.274450 -0.435012
C30   C     C_3   0.126652 0.845007 0.133125 -0.476168
C31   C     C_3   0.173588 0.797176 0.077457 -0.461050
C32   C     C_3   0.180896 0.365966 0.218238 -0.432139
C33   C     C_3   0.812295 0.184995 0.076067 -0.464361
C34   C     C_3   0.819613 0.633282 0.219701 -0.431309
C35   C     C_3   0.361933 0.179610 0.786667 -0.428547
C36   C     C_R   0.575152 0.667531 0.854919 -0.142449
C37   C     C_3   0.119754 0.673355 0.862978 -0.416747
C38   C     C_3   0.636504 0.820157 0.783510 -0.421980
C39   C     C_3   0.854732 0.248866 0.871217 -0.457108
C40   C     C_R   0.392979 0.699438 0.903164 0.290130
C41   C     C_R   0.326358 0.415822 0.857634 0.338689
C42   C     C_R   0.605017 0.302403 0.898813 0.272257
C43   C     C_R   0.673746 0.584747 0.858415 0.329473
C44   C     C_R   0.415423 0.325389 0.141704 0.327679
C45   C     C_R   0.302925 0.606350 0.101878 0.288045
C46   C     C_R   0.585036 0.674049 0.141615 0.329524
C47   C     C_R   0.302364 0.608366 0.902717 -0.114721
C48   C     C_R   0.697654 0.393047 0.099932 0.288375
C49   C     C_R   0.913981 0.177422 0.361701 0.334976
C50   C     C_R   0.801513 0.891563 0.400662 0.302490
C51   C     C_R   0.085788 0.822728 0.361909 0.338759
C52   C     C_R   0.198510 0.108150 0.401120 0.299152
C53   C     C_R   0.892134 0.801326 0.600159 0.287614
C54   C     C_R   0.807571 0.103632 0.614233 0.343092
C55   C     C_R   0.108771 0.198402 0.599883 0.308747
C56   C     C_R   0.176252 0.914879 0.639895 0.328784
C57   C     C_R   0.362730 0.359507 0.813638 -0.054476
C58   C     C_R   0.393958 0.697037 0.101583 -0.124836
C59   C     C_R   0.680110 0.317001 0.881014 -0.028133
C60   C     C_R   0.636683 0.640563 0.813591 -0.062575
C61   C     C_R   0.314833 0.686331 0.890015 -0.026268
C62   C     C_R   0.318152 0.682667 0.116337 -0.049003
C63   C     C_R   0.641166 0.637178 0.186204 -0.059488
C64   C     C_R   0.683197 0.316195 0.112188 -0.041786
C65   C     C_R   0.359383 0.361606 0.185977 -0.057302
C66   C     C_R   0.815689 0.813792 0.385626 -0.037533
C67   C     C_R   0.143693 0.856861 0.318862 -0.090884
C68   C     C_R   0.184640 0.186061 0.386203 -0.036983
C69   C     C_R   0.668163 0.575592 0.144620 -0.155272
C70   C     C_R   0.855572 0.143455 0.318962 -0.086043
C71   C     C_R   0.829251 0.176370 0.639781 -0.058301
C72   C     C_R   0.186151 0.183646 0.615416 -0.032646
C73   C     C_R   0.140573 0.858187 0.685097 -0.064996
C74   C     C_R   0.815009 0.815744 0.616296 -0.035129
C75   C     C_R   0.797354 0.283122 0.816743 0.155400
C76   C     C_R   0.644993 0.754322 0.728481 0.121273
C77   C     C_R   0.191285 0.704750 0.826072 0.140116
C78   C     C_R   0.354585 0.245183 0.730445 0.109938
C79   C     C_R   0.753323 0.643359 0.273373 0.115654
C80   C     C_R   0.606962 0.302289 0.099064 -0.118240
C81   C     C_R   0.756861 0.199852 0.139565 0.187061
C82   C     C_R   0.247553 0.355551 0.272323 0.116114
C83   C     C_R   0.234746 0.793700 0.138261 0.176008
C84   C     C_R   0.192198 0.837190 0.188700 0.142094
C85   C     C_R   0.204496 0.312754 0.323467 0.137315
C86   C     C_R   0.798871 0.156649 0.191342 0.143044
C87   C     C_R   0.796395 0.686818 0.324079 0.138435
C88   C     C_R   0.311226 0.201765 0.680103 0.150260
C89   C     C_R   0.149133 0.746464 0.772168 0.168614
C90   C     C_R   0.689507 0.797525 0.679024 0.145132
C91   C     C_R   0.332280 0.423663 0.144366 -0.154989
C92   C     C_R   0.834006 0.254896 0.753743 0.159086
C93   C     C_R   0.717521 0.280284 0.819356 0.073144
C94   C     C_R   0.662254 0.676607 0.742309 0.070415
C95   C     C_R   0.253819 0.739095 0.864482 0.035898
C96   C     C_R   0.337241 0.323047 0.742586 0.068599
C97   C     C_R   0.676593 0.662309 0.258108 0.069576
C98   C     C_R   0.725919 0.269800 0.163253 0.076407
C99   C     C_R   0.324061 0.335968 0.257632 0.070237
C100  C     C_R   0.274845 0.729734 0.165930 0.084147
C101  C     C_R   0.190858 0.816811 0.266302 0.081933
C102  C     C_R   0.892623 0.802202 0.400905 -0.146984
C103  C     C_R   0.236658 0.248870 0.361512 0.058452
C104  C     C_R   0.808151 0.183317 0.266227 0.079748
C105  C     C_R   0.763972 0.750634 0.361109 0.058826
C106  C     C_R   0.249271 0.234975 0.640220 0.059212
C107  C     C_R   0.168548 0.823564 0.756418 0.057188
C108  C     C_R   0.752309 0.764252 0.641477 0.058986
C109  C     C_R   0.791066 0.224948 0.692327 0.052420
C110  C     C_R   0.241065 0.760756 0.295549 -0.095140
C111  C     C_R   0.317902 0.243805 0.363126 -0.134691
C112  C     C_R   0.764815 0.245343 0.293231 -0.097050
H1    H     H_    0.464826 0.289616 0.837171 0.160944
H2    H     H_    0.220302 0.955324 0.341498 0.184911
H3    H     H_    0.083437 0.253980 0.411431 0.210719
H4    H     H_    0.778977 0.045041 0.341506 0.185542
H5    H     H_    0.931703 0.246658 0.622141 0.196627
H6    H     H_    0.253207 0.081354 0.591124 0.211478
H7    H     H_    0.038612 0.785740 0.662604 0.168195
H8    H     H_    0.747193 0.917708 0.591957 0.210331
H9    H     H_    0.895171 0.153592 0.797733 0.200931
H10   H     H_    0.742249 0.884849 0.754355 0.208974
H11   H     H_    0.039172 0.765506 0.829596 0.202484
H12   H     H_    0.752912 0.418005 0.901190 0.206619
H13   H     H_    0.257201 0.114258 0.754644 0.207525
H14   H     H_    0.886722 0.737189 0.250980 0.212059
H15   H     H_    0.916190 0.163523 0.147240 0.214971
H16   H     H_    0.113179 0.262784 0.250697 0.213376
H17   H     H_    0.073232 0.815084 0.153125 0.218647
H18   H     H_    0.192862 0.830503 0.026048 0.198592
H19   H     H_    0.162456 0.427434 0.213998 0.236177
H20   H     H_    0.785629 0.149332 0.029760 0.206925
H21   H     H_    0.838515 0.571948 0.216377 0.233509
H22   H     H_    0.422392 0.159144 0.792390 0.231675
H23   H     H_    0.533832 0.709504 0.835434 0.168338
H24   H     H_    0.113999 0.609527 0.856009 0.245064
H25   H     H_    0.575969 0.840729 0.786797 0.233421
H26   H     H_    0.888290 0.294057 0.902619 0.225507
H27   H     H_    0.953350 0.245705 0.791704 0.222259
H28   H     H_    0.652755 0.915706 0.701470 0.247290
H29   H     H_    0.042106 0.680347 0.763176 0.240821
H30   H     H_    0.348184 0.084111 0.705235 0.248833
H31   H     H_    0.912794 0.645834 0.304104 0.251033
H32   H     H_    0.859395 0.074613 0.119757 0.204116
H33   H     H_    0.088277 0.354588 0.302431 0.251324
H34   H     H_    0.246396 0.582880 0.912539 0.199521
H35   H     H_    0.118755 0.905981 0.113824 0.199786
H36   H     H_    0.147363 0.739532 0.064856 0.231993
H37   H     H_    0.188923 0.336177 0.162269 0.221504
H38   H     H_    0.842582 0.238531 0.056232 0.224376
H39   H     H_    0.810897 0.662761 0.163288 0.222166
H40   H     H_    0.331936 0.190535 0.841917 0.221482
H41   H     H_    0.112067 0.694378 0.922827 0.206733
H42   H     H_    0.665155 0.809430 0.839970 0.222196
H43   H     H_    0.829293 0.202389 0.907775 0.199939
H44   H     H_    0.244560 0.748679 0.356731 0.165465
H45   H     H_    0.419350 0.753949 0.097527 0.215018
H46   H     H_    0.347659 0.203398 0.399722 0.195969
H47   H     H_    0.766183 0.261894 0.353315 0.164381
H48   H     H_    0.652883 0.795321 0.398178 0.196567
H49   H     H_    0.208533 0.346624 0.597435 0.196210
H50   H     H_    0.234157 0.923096 0.796556 0.167017
H51   H     H_    0.795523 0.652628 0.603112 0.195580
H52   H     H_    0.678473 0.220730 0.637456 0.182093
H53   H     H_    0.612387 0.271025 0.749982 0.142977
H54   H     H_    0.718957 0.576557 0.693915 0.169977
H55   H     H_    0.307407 0.850524 0.890882 0.198791
H56   H     H_    0.710535 0.534409 0.163419 0.165343
H57   H     H_    0.282505 0.423060 0.690324 0.174534
H58   H     H_    0.577253 0.720366 0.305688 0.171061
H59   H     H_    0.693391 0.340164 0.260848 0.138642
H60   H     H_    0.423260 0.277300 0.306551 0.172448
H61   H     H_    0.319323 0.670606 0.267033 0.141066
H62   H     H_    0.581482 0.245484 0.093810 0.213376
H63   H     H_    0.290202 0.464630 0.163132 0.168567
H64   H     H_    0.917592 0.746220 0.411231 0.210381
N1    N     N_R   0.425360 0.368540 0.922560 -0.047618
N2    N     N_R   0.131460 0.925360 0.422560 -0.049722
N3    N     N_R   0.074640 0.131460 0.422560 -0.065224
N4    N     N_R   0.868540 0.074640 0.422560 -0.051870
N5    N     N_R   0.925360 0.131460 0.577440 -0.062899
N6    N     N_R   0.131460 0.074640 0.577440 -0.067339
N7    N     N_R   0.074640 0.868540 0.577440 -0.049047
N8    N     N_R   0.868540 0.925360 0.577440 -0.061876
N9    N     N_R   0.425340 0.631500 0.922560 -0.080388
N10   N     N_R   0.368500 0.425340 0.922560 -0.068708
N11   N     N_R   0.574660 0.368500 0.922560 -0.081978
N12   N     N_R   0.631460 0.425360 0.922560 -0.068299
N13   N     N_R   0.631500 0.574660 0.922560 -0.067529
N14   N     N_R   0.425340 0.368500 0.077440 -0.068602
N15   N     N_R   0.368500 0.574660 0.077440 -0.083074
N16   N     N_R   0.574660 0.631500 0.077440 -0.066696
N17   N     N_R   0.631500 0.425340 0.077440 -0.084184
N18   N     N_R   0.925340 0.131500 0.422560 -0.070272
N19   N     N_R   0.868500 0.925340 0.422560 -0.079363
N20   N     N_R   0.074660 0.868500 0.422560 -0.068313
N21   N     N_R   0.131500 0.074660 0.422560 -0.079262
N22   N     N_R   0.925340 0.868500 0.577440 -0.080022
N23   N     N_R   0.574640 0.631460 0.922560 -0.046103
N24   N     N_R   0.868500 0.074660 0.577440 -0.076177
N25   N     N_R   0.074660 0.131500 0.577440 -0.078249
N26   N     N_R   0.131500 0.925340 0.577440 -0.065797
N27   N     N_R   0.368540 0.574640 0.922560 -0.069435
N28   N     N_R   0.425360 0.631460 0.077440 -0.069859
N29   N     N_R   0.631460 0.574640 0.077440 -0.047711
N30   N     N_R   0.574640 0.368540 0.077440 -0.071731
N31   N     N_R   0.368540 0.425360 0.077440 -0.048389
N32   N     N_R   0.925360 0.868540 0.422560 -0.066297
Ni1   Ni    Ni4+2 0.500000 0.369720 0.000000 0.270045
Ni2   Ni    Ni4+2 0.630280 0.500000 0.000000 0.272121
Ni3   Ni    Ni4+2 0.500000 0.630280 0.000000 0.273904
Ni4   Ni    Ni4+2 0.369720 0.500000 0.000000 0.265977
Ni5   Ni    Ni4+2 0.000000 0.869720 0.500000 0.274293
Ni6   Ni    Ni4+2 0.130280 1.000000 0.500000 0.274844
Ni7   Ni    Ni4+2 1.000000 0.130280 0.500000 0.259691
Ni8   Ni    Ni4+2 0.869720 1.000000 0.500000 0.269206

loop_
_geom_bond_atom_site_label_1
_geom_bond_atom_site_label_2
_ccdc_geom_bond_type
C28   C33   S    
C20   C73   A    
C39   H26   S    
C5    C10   A    
C65   C91   A    
C51   C67   A    
N20   Ni5   S    
C2    N2    A    
C14   C98   A    
C38   H42   S    
C1    N1    A    
C34   H21   S    
C20   N7    A    
C15   C111  A    
C85   C103  A    
N11   N12   A    
C76   C94   A    
C38   H25   S    
C53   N22   A    
C49   C70   A    
N15   N28   A    
C47   H34   S    
C21   C74   A    
Br10  C42   S    
Br1   C40   S    
C27   H31   S    
C28   H15   S    
N16   Ni3   S    
Br7   C55   S    
Br12  C44   S    
C34   C79   S    
C23   C38   S    
C50   C66   A    
C41   C57   A    
C19   N6    A    
Br14  C46   S    
C24   H11   S    
C31   C83   S    
C89   C107  A    
Br6   C54   S    
C11   H57   S    
C21   N8    A    
C47   N27   A    
C61   C95   S    
Br9   C41   S    
C29   H33   S    
C3    H48   S    
N26   Ni6   S    
C25   H12   S    
C39   C75   S    
C77   C89   A    
C102  H64   S    
C44   C65   A    
C22   C39   S    
N4    Ni8   S    
C17   N4    A    
C58   N28   A    
C6    C9    A    
C41   N10   A    
C16   H61   S    
C29   H16   S    
Br5   C53   S    
Br15  C48   S    
C37   H24   S    
C92   C109  A    
C64   C80   A    
C101  C110  A    
N14   N31   A    
C66   C105  S    
C4    C106  A    
C81   C86   A    
C37   H41   S    
C26   C35   S    
C7    C109  A    
N4    N18   A    
C10   H55   S    
C43   N13   A    
C111  H46   S    
C31   H18   S    
C78   C88   A    
C55   N25   A    
C1    C57   A    
N17   N30   A    
C48   C64   A    
Br13  C45   S    
C35   H40   S    
C26   H30   S    
N7    N26   A    
C80   H62   S    
C22   H27   S    
C26   H13   S    
Br11  C43   S    
C54   C71   A    
C19   H6    S    
C46   N16   A    
C79   C87   A    
C42   C59   A    
C62   C100  S    
C91   N31   A    
N5    Ni7   S    
C14   C112  A    
C59   C93   S    
Br8   C56   S    
N19   Ni8   S    
C32   H37   S    
C1    H1    S    
C39   H43   S    
C24   H29   S    
N13   Ni2   S    
C35   H22   S    
C13   C68   A    
C72   C106  S    
C63   C69   A    
C83   C100  A    
Br4   C52   S    
C28   C86   S    
N31   Ni4   S    
N10   Ni4   S    
C40   N9    A    
C73   C107  S    
N30   Ni1   S    
Br2   C50   S    
N16   N29   A    
C13   N3    A    
C102  N32   A    
N29   Ni2   S    
C36   N23   A    
C40   C61   A    
C33   H20   S    
C75   C93   A    
C52   C68   A    
C15   H60   S    
C17   C70   A    
C38   C76   S    
C3    C12   A    
C12   H58   S    
C18   C71   A    
C25   C59   A    
C19   C72   A    
C46   C63   A    
N8    N22   A    
C83   C84   A    
C45   C62   A    
C7    C8    A    
C65   C99   S    
N14   Ni1   S    
N6    Ni6   S    
C2    C67   A    
C49   N18   A    
C23   C90   S    
N3    Ni7   S    
C51   N20   A    
C16   C100  A    
C25   N12   A    
C52   N21   A    
N9    N27   A    
C7    H52   S    
N5    N24   A    
C29   C85   S    
C9    C94   A    
C45   N15   A    
C31   H36   S    
C17   H4    S    
C76   C90   A    
C5    H50   S    
C77   C95   A    
C42   N11   A    
N18   Ni7   S    
C80   N30   A    
C30   H35   S    
C63   C97   S    
N27   Ni4   S    
C48   N17   A    
C2    H2    S    
N6    N25   A    
N17   Ni2   S    
C66   C102  A    
N12   Ni2   S    
C53   C74   A    
C87   C105  A    
C20   H7    S    
C71   C109  S    
C86   C104  A    
C9    H54   S    
C57   C96   S    
C47   C61   A    
C29   C32   S    
N9    Ni3   S    
C30   C84   S    
C30   C31   S    
C3    C105  A    
C112  H47   S    
C21   H8    S    
N2    Ni6   S    
C8    H53   S    
C74   C108  S    
C75   C92   A    
Br3   C51   S    
C8    C93   A    
C64   C98   S    
C6    H51   S    
C36   C60   A    
N11   Ni1   S    
C26   C88   S    
C68   C103  S    
C11   C96   A    
C104  C112  A    
C27   C34   S    
C6    C108  A    
C4    H49   S    
C84   C101  A    
C4    C11   A    
C69   H56   S    
C82   C85   A    
C56   N26   A    
C50   N19   A    
C18   H5    S    
C23   H28   S    
N13   N23   A    
C54   N24   A    
C14   H59   S    
C67   C101  S    
N7    Ni5   S    
N1    Ni1   S    
C33   H38   S    
N32   Ni5   S    
N25   Ni7   S    
C56   C73   A    
C18   N5    A    
C44   N14   A    
C82   C99   A    
C13   H3    S    
C79   C97   A    
C36   H23   S    
C28   H32   S    
N19   N32   A    
C10   C95   A    
C78   C96   A    
N24   Ni8   S    
C22   H9    S    
C58   H45   S    
N23   Ni3   S    
C32   C82   S    
C15   C99   A    
C22   C92   S    
C27   C87   S    
C23   H10   S    
C33   C81   S    
C110  H44   S    
C12   C97   A    
N1    N10   A    
C35   C78   S    
N2    N20   A    
C55   C72   A    
C30   H17   S    
N15   Ni4   S    
C88   C106  A    
N28   Ni3   S    
C60   C94   S    
C24   C37   S    
C58   C62   A    
C91   H63   S    
C34   H39   S    
C24   C89   S    
C27   H14   S    
C70   C104  S    
Br16  C49   S    
N8    Ni8   S    
C90   C108  A    
C81   C98   A    
C16   C110  A    
N22   Ni5   S    
C69   N29   A    
C43   C60   A    
C37   C77   S    
C5    C107  A    
N21   Ni6   S    
N3    N21   A    
C32   H19   S    
C103  C111  A    
