data_mof_unit_51187.cif
_audit_creation_date              2012-12-10T17:54:37-0500
_audit_creation_method            fapswitch 2.2
_symmetry_space_group_name_H-M    P1
_symmetry_Int_Tables_number       1
_space_group_crystal_system       triclinic
_cell_length_a                    21.567612
_cell_length_b                    21.584148
_cell_length_c                    30.114664
_cell_angle_alpha                 90.001669
_cell_angle_beta                  90.001227
_cell_angle_gamma                 90.053382
_cell_volume                      14018.9280054

loop_
_atom_site_label
_atom_site_type_symbol
_atom_type_description
_atom_site_fract_x
_atom_site_fract_y
_atom_site_fract_z
_atom_type_partial_charge
C1    C     C_R   0.500026 0.120431 0.499966 0.931530
C2    C     C_R   0.120326 0.500036 0.499997 0.924957
C3    C     C_R   0.499974 0.879569 0.499967 0.931530
C4    C     C_R   0.879673 0.499964 0.499997 0.924957
C5    C     C_R   0.000020 0.620478 0.999926 0.927621
C6    C     C_R   0.620152 0.000029 0.999955 0.922324
C7    C     C_R   0.999980 0.379522 0.999927 0.927619
C8    C     C_R   0.379848 0.999970 0.999955 0.922327
C9    C     C_R   0.500004 0.999997 0.773484 -0.074355
C10   C     C_R   0.999992 0.500001 0.774137 -0.068213
C11   C     C_R   0.500001 0.000005 0.226228 -0.073615
C12   C     C_R   0.000002 0.499997 0.227561 -0.063441
C13   C     C_R   0.000002 0.499997 0.273962 -0.069148
C14   C     C_R   0.500000 0.000005 0.272645 -0.065175
C15   C     C_R   0.999991 0.500002 0.727740 -0.062560
C16   C     C_R   0.500003 0.999999 0.727062 -0.065577
C17   C     C_R   0.409441 0.931403 0.773467 0.344625
C18   C     C_R   0.001818 0.613642 0.774088 0.372556
C19   C     C_R   0.590573 0.068584 0.773474 0.344676
C20   C     C_R   0.998161 0.386361 0.774082 0.372562
C21   C     C_R   0.397550 0.049058 0.226263 0.355361
C22   C     C_R   0.892224 0.463675 0.227780 0.377713
C23   C     C_R   0.602452 0.950952 0.226265 0.355332
C24   C     C_R   0.107779 0.536320 0.227785 0.377712
C25   C     C_R   0.894908 0.456625 0.273916 0.365354
C26   C     C_R   0.395142 0.043766 0.272552 0.376791
C27   C     C_R   0.105095 0.543370 0.273921 0.365360
C28   C     C_R   0.604860 0.956245 0.272553 0.376807
C29   C     C_R   0.008369 0.613350 0.727880 0.370389
C30   C     C_R   0.405415 0.936889 0.727197 0.370505
C31   C     C_R   0.991608 0.386653 0.727874 0.370396
C32   C     C_R   0.594592 0.063106 0.727202 0.370565
C33   C     C_R   0.554388 0.218945 0.488779 -0.295409
C34   C     C_R   0.218480 0.449303 0.482464 -0.298233
C35   C     C_R   0.445611 0.781054 0.488783 -0.295400
C36   C     C_R   0.781519 0.550698 0.482469 -0.298234
C37   C     C_R   0.554296 0.781115 0.510860 -0.293327
C38   C     C_R   0.218552 0.551162 0.517276 -0.306091
C39   C     C_R   0.445704 0.218885 0.510857 -0.293307
C40   C     C_R   0.781449 0.448837 0.517274 -0.306091
C41   C     C_R   0.055670 0.719151 0.992785 -0.291416
C42   C     C_R   0.717785 0.956575 0.974266 -0.305777
C43   C     C_R   0.944331 0.280849 0.992781 -0.291408
C44   C     C_R   0.282214 0.043424 0.974267 -0.305773
C45   C     C_R   0.055658 0.280944 0.006623 -0.297553
C46   C     C_R   0.717770 0.043993 0.025334 -0.304945
C47   C     C_R   0.944340 0.719056 0.006613 -0.297537
C48   C     C_R   0.282232 0.956013 0.025337 -0.304950
C49   C     C_R   0.500067 0.187026 0.499904 -0.147431
C50   C     C_R   0.186763 0.500129 0.499981 -0.137604
C51   C     C_R   0.499933 0.812974 0.499907 -0.147426
C52   C     C_R   0.813237 0.499871 0.499982 -0.137602
C53   C     C_R   0.000030 0.687165 0.999804 -0.151496
C54   C     C_R   0.686259 0.000126 0.999904 -0.131304
C55   C     C_R   0.999969 0.312834 0.999807 -0.151490
C56   C     C_R   0.313741 0.999874 0.999905 -0.131304
C57   C     C_R   0.500001 0.000001 0.586871 0.882533
C58   C     C_R   0.999999 0.500001 0.587032 0.880841
C59   C     C_R   0.499999 1.000000 0.413060 0.884005
C60   C     C_R   0.000000 0.499999 0.413383 0.872892
C61   C     C_R   0.000001 0.500000 0.086997 0.884896
C62   C     C_R   0.500000 0.000001 0.086663 0.870699
C63   C     C_R   0.999999 0.500000 0.913422 0.872909
C64   C     C_R   0.500001 0.999999 0.913267 0.873285
C65   C     C_R   0.554136 0.283130 0.487433 0.390702
C66   C     C_R   0.282676 0.450060 0.480886 0.389581
C67   C     C_R   0.445862 0.716869 0.487438 0.390702
C68   C     C_R   0.717323 0.549942 0.480892 0.389558
C69   C     C_R   0.554056 0.716916 0.512178 0.393391
C70   C     C_R   0.282845 0.550581 0.518784 0.393979
C71   C     C_R   0.445945 0.283084 0.512175 0.393394
C72   C     C_R   0.717156 0.449418 0.518782 0.393971
C73   C     C_R   0.055629 0.783406 0.991435 0.399860
C74   C     C_R   0.781978 0.957884 0.972833 0.402621
C75   C     C_R   0.944371 0.216593 0.991432 0.399846
C76   C     C_R   0.218021 0.042117 0.972835 0.402625
C77   C     C_R   0.055650 0.216692 0.007977 0.399394
C78   C     C_R   0.782009 0.042937 0.026794 0.404456
C79   C     C_R   0.944348 0.783307 0.007968 0.399378
C80   C     C_R   0.217993 0.957071 0.026798 0.404440
C81   C     C_R   0.500098 0.314379 0.499925 -0.227105
C82   C     C_R   0.314114 0.500217 0.499940 -0.242555
C83   C     C_R   0.499901 0.685620 0.499928 -0.227094
C84   C     C_R   0.685885 0.499784 0.499942 -0.242543
C85   C     C_R   0.000038 0.814506 0.999890 -0.210113
C86   C     C_R   0.813623 0.000318 0.999910 -0.259097
C87   C     C_R   0.999960 0.185493 0.999893 -0.210109
C88   C     C_R   0.186377 0.999686 0.999913 -0.259093
C89   C     C_R   0.380010 0.500094 0.499989 1.024908
C90   C     C_R   0.499891 0.619902 0.499988 1.030644
C91   C     C_R   0.619990 0.499907 0.499990 1.024912
C92   C     C_R   0.500108 0.380098 0.499987 1.030642
C93   C     C_R   0.879837 0.000191 0.999986 1.016771
C94   C     C_R   0.999953 0.119854 0.999983 1.033744
C95   C     C_R   0.120163 0.999811 0.999987 1.016772
C96   C     C_R   0.000045 0.880146 0.999982 1.033743
C97   C     C_R   0.543402 0.035908 0.842971 -0.196738
C98   C     C_R   0.998494 0.443800 0.843636 -0.210187
C99   C     C_R   0.456607 0.964082 0.842967 -0.196730
C100  C     C_R   0.001497 0.556202 0.843639 -0.210191
C101  C     C_R   0.549850 0.973849 0.156740 -0.200204
C102  C     C_R   0.053408 0.517757 0.158090 -0.203895
C103  C     C_R   0.450151 0.026158 0.156739 -0.200207
C104  C     C_R   0.946595 0.482239 0.158088 -0.203890
C105  C     C_R   0.051350 0.523059 0.343449 -0.206674
C106  C     C_R   0.551813 0.978226 0.342141 -0.204090
C107  C     C_R   0.948653 0.476935 0.343447 -0.206672
C108  C     C_R   0.448185 0.021777 0.342140 -0.204076
C109  C     C_R   0.995989 0.443926 0.658273 -0.202443
C110  C     C_R   0.547213 0.030626 0.657569 -0.205227
C111  C     C_R   0.003997 0.556078 0.658276 -0.202446
C112  C     C_R   0.452791 0.969374 0.657566 -0.205234
C113  C     C_R   0.500003 0.999997 0.865585 -0.086939
C114  C     C_R   0.999997 0.500001 0.866049 -0.056263
C115  C     C_R   0.500000 0.000003 0.134214 -0.073213
C116  C     C_R   0.000001 0.499998 0.135154 -0.096083
C117  C     C_R   0.000001 0.499997 0.365919 -0.064750
C118  C     C_R   0.499999 0.000000 0.365008 -0.095441
C119  C     C_R   0.999995 0.500002 0.635274 -0.100276
C120  C     C_R   0.500002 0.000000 0.634795 -0.090071
C121  C     C_R   0.455073 0.964835 0.796740 -0.017011
C122  C     C_R   0.000963 0.557016 0.797401 -0.029111
C123  C     C_R   0.544937 0.035155 0.796743 -0.017039
C124  C     C_R   0.999021 0.442986 0.797398 -0.029113
C125  C     C_R   0.448904 0.025363 0.202970 -0.020815
C126  C     C_R   0.945865 0.482033 0.204345 -0.036588
C127  C     C_R   0.551097 0.974646 0.202971 -0.020811
C128  C     C_R   0.054139 0.517961 0.204348 -0.036586
C129  C     C_R   0.947587 0.477441 0.297216 -0.029632
C130  C     C_R   0.447396 0.021865 0.295892 -0.034311
C131  C     C_R   0.052416 0.522553 0.297219 -0.029635
C132  C     C_R   0.552604 0.978143 0.295893 -0.034317
C133  C     C_R   0.004370 0.556808 0.704518 -0.035824
C134  C     C_R   0.452322 0.968688 0.703819 -0.031048
C135  C     C_R   0.995611 0.443195 0.704515 -0.035835
C136  C     C_R   0.547683 0.031311 0.703821 -0.031059
H1    H     H_    0.596684 0.194322 0.480777 0.174708
H2    H     H_    0.193579 0.409592 0.469529 0.172446
H3    H     H_    0.403313 0.805676 0.480781 0.174711
H4    H     H_    0.806419 0.590410 0.469536 0.172454
H5    H     H_    0.596674 0.805824 0.518613 0.174924
H6    H     H_    0.193562 0.591039 0.529748 0.168218
H7    H     H_    0.403327 0.194178 0.518612 0.174934
H8    H     H_    0.806440 0.408959 0.529743 0.168219
H9    H     H_    0.098908 0.694496 0.988212 0.175652
H10   H     H_    0.692661 0.922525 0.954855 0.167173
H11   H     H_    0.901094 0.305503 0.988203 0.175657
H12   H     H_    0.307337 0.077471 0.954855 0.167176
H13   H     H_    0.098936 0.305687 0.010955 0.174390
H14   H     H_    0.692539 0.078295 0.044393 0.167043
H15   H     H_    0.901061 0.694314 0.010942 0.174404
H16   H     H_    0.307464 0.921713 0.044397 0.167047
H17   H     H_    0.576870 0.062853 0.861693 0.174214
H18   H     H_    0.996777 0.401076 0.862544 0.154237
H19   H     H_    0.423140 0.937136 0.861687 0.174242
H20   H     H_    0.003215 0.598926 0.862549 0.154242
H21   H     H_    0.588058 0.954414 0.137938 0.163448
H22   H     H_    0.094061 0.532357 0.139708 0.185078
H23   H     H_    0.411942 0.045592 0.137937 0.163446
H24   H     H_    0.905942 0.467639 0.139703 0.185082
H25   H     H_    0.090736 0.539866 0.362327 0.159120
H26   H     H_    0.591110 0.960564 0.360621 0.182852
H27   H     H_    0.909267 0.460128 0.362322 0.159122
H28   H     H_    0.408887 0.039437 0.360620 0.182849
H29   H     H_    0.993351 0.400784 0.639994 0.187662
H30   H     H_    0.582744 0.054906 0.638970 0.178723
H31   H     H_    0.006637 0.599219 0.639998 0.187658
H32   H     H_    0.417260 0.945094 0.638966 0.178727
O1    O     O_R   0.448270 0.091530 0.499990 -0.628336
O2    O     O_R   0.091530 0.551730 0.499990 -0.631039
O3    O     O_R   0.551730 0.908470 0.499990 -0.628336
O4    O     O_R   0.908470 0.448270 0.499990 -0.631041
O5    O     O_R   0.448270 0.908470 0.500010 -0.629671
O6    O     O_R   0.091530 0.448270 0.500010 -0.624694
O7    O     O_R   0.551730 0.091530 0.500010 -0.629672
O8    O     O_R   0.908470 0.551730 0.500010 -0.624696
O9    O     O_R   0.948270 0.591530 0.999990 -0.631042
O10   O     O_R   0.591530 0.051730 0.999990 -0.625175
O11   O     O_R   0.051730 0.408470 0.999990 -0.631039
O12   O     O_R   0.408470 0.948270 0.999990 -0.625170
O13   O     O_R   0.948270 0.408470 0.000010 -0.628345
O14   O     O_R   0.591530 0.948270 0.000010 -0.625946
O15   O     O_R   0.051730 0.591530 0.000010 -0.628346
O16   O     O_R   0.408470 0.051730 0.000010 -0.625946
O17   O     O_R   0.448270 0.999890 0.566070 -0.628538
O18   O     O_R   0.999890 0.551730 0.566070 -0.629865
O19   O     O_R   0.551730 0.000110 0.566070 -0.628540
O20   O     O_R   0.000110 0.448270 0.566070 -0.629865
O21   O     O_R   0.448270 0.000110 0.433930 -0.630253
O22   O     O_R   0.999890 0.448270 0.433930 -0.623010
O23   O     O_R   0.551730 0.999890 0.433930 -0.630254
O24   O     O_R   0.000110 0.551730 0.433930 -0.623008
O25   O     O_R   0.948270 0.499890 0.066070 -0.629828
O26   O     O_R   0.499890 0.051730 0.066070 -0.623102
O27   O     O_R   0.051730 0.500110 0.066070 -0.629828
O28   O     O_R   0.500110 0.948270 0.066070 -0.623101
O29   O     O_R   0.948270 0.500110 0.933930 -0.620158
O30   O     O_R   0.499890 0.948270 0.933930 -0.624598
O31   O     O_R   0.051730 0.499890 0.933930 -0.620158
O32   O     O_R   0.500110 0.051730 0.933930 -0.624602
O33   O     O_R   0.408290 0.499920 0.462700 -0.637789
O34   O     O_R   0.499920 0.591710 0.462700 -0.641906
O35   O     O_R   0.591710 0.500080 0.462700 -0.637798
O36   O     O_R   0.500080 0.408290 0.462700 -0.641893
O37   O     O_R   0.408290 0.500080 0.537300 -0.635739
O38   O     O_R   0.499920 0.408290 0.537300 -0.641236
O39   O     O_R   0.591710 0.499920 0.537300 -0.635738
O40   O     O_R   0.500080 0.591710 0.537300 -0.641218
O41   O     O_R   0.908290 0.999920 0.962700 -0.630071
O42   O     O_R   0.999920 0.091710 0.962700 -0.639524
O43   O     O_R   0.091710 0.000080 0.962700 -0.630084
O44   O     O_R   0.000080 0.908290 0.962700 -0.639509
O45   O     O_R   0.908290 0.000080 0.037300 -0.629528
O46   O     O_R   0.999920 0.908290 0.037300 -0.638176
O47   O     O_R   0.091710 0.999920 0.037300 -0.629516
O48   O     O_R   0.000080 0.091710 0.037300 -0.638170
Zn1   Zn    Zn3+2 0.430930 1.000000 0.500000 0.935972
Zn2   Zn    Zn3+2 1.000000 0.569070 0.500000 0.941515
Zn3   Zn    Zn3+2 0.569070 1.000000 0.500000 0.935968
Zn4   Zn    Zn3+2 1.000000 0.430930 0.500000 0.941515
Zn5   Zn    Zn3+2 0.930930 0.500000 0.000000 0.941659
Zn6   Zn    Zn3+2 0.500000 0.069070 0.000000 0.946099
Zn7   Zn    Zn3+2 0.069070 0.500000 0.000000 0.941657
Zn8   Zn    Zn3+2 0.500000 0.930930 0.000000 0.946108
Zn9   Zn    Zn3+2 0.500000 0.500000 0.450200 0.944495
Zn10  Zn    Zn3+2 0.500000 0.500000 0.549800 0.945234
Zn11  Zn    Zn3+2 0.000000 1.000000 0.950200 0.944088
Zn12  Zn    Zn3+2 0.000000 0.000000 0.049800 0.947713
O49   O     O_3   0.365730 0.896589 0.796082 -0.657453
C137  C     C_3   0.381635 0.832974 0.794066 0.133947
H33   H     H_    0.399818 0.818886 0.827090 0.138935
H34   H     H_    0.417828 0.821443 0.768775 0.128291
C138  C     C_3   0.323474 0.795184 0.783532 -0.319325
H35   H     H_    0.286774 0.805776 0.808250 0.225315
H36   H     H_    0.306083 0.808173 0.750095 0.250155
C139  C     C_3   0.336691 0.725760 0.784113 -0.982277
H37   H     H_    0.372155 0.713923 0.758745 0.270915
H38   H     H_    0.293487 0.699874 0.776436 0.272500
H39   H     H_    0.353445 0.711306 0.817413 0.264246
O50   O     O_3   0.000372 0.669844 0.796318 -0.647569
C140  C     C_3   0.938543 0.684372 0.808399 0.071289
H40   H     H_    0.940208 0.709318 0.840655 0.159916
H41   H     H_    0.908560 0.642813 0.813819 0.126420
C141  C     C_3   0.909002 0.727081 0.773755 -0.299141
H42   H     H_    0.937588 0.769678 0.770210 0.229948
H43   H     H_    0.907146 0.703199 0.741131 0.248608
C142  C     C_3   0.843157 0.745053 0.787032 -0.995297
H44   H     H_    0.813067 0.703293 0.788267 0.268418
H45   H     H_    0.823845 0.777855 0.762234 0.272657
H46   H     H_    0.843073 0.767756 0.820088 0.273428
O51   O     O_3   0.634296 0.103381 0.796092 -0.657475
C143  C     C_3   0.618389 0.166996 0.794114 0.133911
H47   H     H_    0.600283 0.181067 0.827164 0.139008
H48   H     H_    0.582137 0.178544 0.768869 0.128178
C144  C     C_3   0.676528 0.204792 0.783526 -0.319363
H49   H     H_    0.713300 0.194149 0.808178 0.225344
H50   H     H_    0.693814 0.191854 0.750050 0.250204
C145  C     C_3   0.663330 0.274218 0.784190 -0.982278
H51   H     H_    0.627775 0.286106 0.758900 0.270882
H52   H     H_    0.706512 0.300107 0.776454 0.272503
H53   H     H_    0.646704 0.288624 0.817535 0.264257
O52   O     O_3   0.999605 0.330158 0.796309 -0.647561
C146  C     C_3   0.061433 0.315625 0.808391 0.071295
H54   H     H_    0.059768 0.290691 0.840651 0.159906
H55   H     H_    0.091423 0.357181 0.813804 0.126416
C147  C     C_3   0.090962 0.272899 0.773752 -0.299143
H56   H     H_    0.062371 0.230305 0.770216 0.229935
H57   H     H_    0.092814 0.296768 0.741124 0.248622
C148  C     C_3   0.156807 0.254925 0.787027 -0.995294
H58   H     H_    0.186903 0.296682 0.788252 0.268418
H59   H     H_    0.176111 0.222109 0.762234 0.272659
H60   H     H_    0.156896 0.232237 0.820087 0.273426
O53   O     O_3   0.347582 0.074186 0.203766 -0.656449
C149  C     C_3   0.354083 0.139435 0.201105 0.118425
H61   H     H_    0.359085 0.152064 0.165505 0.146535
H62   H     H_    0.395418 0.158593 0.218905 0.119416
C150  C     C_3   0.295728 0.170273 0.219655 -0.306577
H63   H     H_    0.254157 0.151310 0.202652 0.224878
H64   H     H_    0.291545 0.159852 0.255633 0.255318
C151  C     C_3   0.297533 0.240436 0.213463 -0.991319
H65   H     H_    0.337878 0.260549 0.231326 0.273491
H66   H     H_    0.254455 0.261156 0.227107 0.267163
H67   H     H_    0.300797 0.252300 0.177652 0.265202
O54   O     O_3   0.837949 0.448326 0.205751 -0.645371
C152  C     C_3   0.804509 0.502935 0.195327 0.069508
H68   H     H_    0.775503 0.492661 0.165740 0.164998
H69   H     H_    0.835002 0.542624 0.185874 0.121221
C153  C     C_3   0.761686 0.521663 0.233714 -0.300606
H70   H     H_    0.732381 0.481491 0.243421 0.242276
H71   H     H_    0.789936 0.535844 0.262827 0.233872
C154  C     C_3   0.719953 0.575771 0.220710 -0.998095
H72   H     H_    0.748436 0.616532 0.211119 0.270139
H73   H     H_    0.690286 0.588839 0.249353 0.273359
H74   H     H_    0.689570 0.562544 0.192471 0.267803
O55   O     O_3   0.652420 0.925825 0.203768 -0.656437
C155  C     C_3   0.645923 0.860575 0.201108 0.118449
H75   H     H_    0.640903 0.847944 0.165510 0.146518
H76   H     H_    0.604600 0.841416 0.218919 0.119428
C156  C     C_3   0.704291 0.829745 0.219644 -0.306574
H77   H     H_    0.745850 0.848708 0.202630 0.224881
H78   H     H_    0.708492 0.840172 0.255621 0.255309
C157  C     C_3   0.702487 0.759581 0.213455 -0.991315
H79   H     H_    0.662155 0.739467 0.231330 0.273493
H80   H     H_    0.745576 0.738865 0.227087 0.267159
H81   H     H_    0.699201 0.747711 0.177645 0.265199
O56   O     O_3   0.162053 0.551671 0.205758 -0.645367
C158  C     C_3   0.195494 0.497064 0.195331 0.069510
H82   H     H_    0.224500 0.507341 0.165745 0.164998
H83   H     H_    0.165002 0.457375 0.185874 0.121220
C159  C     C_3   0.238318 0.478333 0.233717 -0.300608
H84   H     H_    0.267623 0.518504 0.243428 0.242276
H85   H     H_    0.210068 0.464150 0.262829 0.233868
C160  C     C_3   0.280050 0.424226 0.220710 -0.998100
H86   H     H_    0.251567 0.383466 0.211114 0.270139
H87   H     H_    0.309717 0.411156 0.249352 0.273359
H88   H     H_    0.310434 0.437455 0.192473 0.267804
O57   O     O_3   0.843631 0.433753 0.296261 -0.649481
C161  C     C_3   0.852327 0.370125 0.306104 0.076949
H89   H     H_    0.837116 0.362424 0.340913 0.158480
H90   H     H_    0.901624 0.354301 0.304324 0.121234
C162  C     C_3   0.812191 0.330383 0.275331 -0.294520
H91   H     H_    0.763159 0.345942 0.277458 0.234200
H92   H     H_    0.828208 0.336043 0.240523 0.251343
C163  C     C_3   0.815817 0.261908 0.287728 -0.996668
H93   H     H_    0.864297 0.245049 0.284825 0.269190
H94   H     H_    0.786127 0.234450 0.264898 0.270907
H95   H     H_    0.799272 0.254655 0.322266 0.264829
O58   O     O_3   0.342866 0.064321 0.294803 -0.648177
C164  C     C_3   0.305219 0.013177 0.306896 0.070601
H96   H     H_    0.283385 0.024415 0.339322 0.162386
H97   H     H_    0.331591 0.969223 0.312030 0.121758
C165  C     C_3   0.253872 0.003050 0.272507 -0.308207
H98   H     H_    0.228240 0.047106 0.267275 0.229843
H99   H     H_    0.274633 0.988580 0.240395 0.242758
C166  C     C_3   0.208481 0.953061 0.287693 -0.994380
H100  H     H_    0.232755 0.907987 0.291462 0.269555
H101  H     H_    0.171120 0.947670 0.262665 0.275683
H102  H     H_    0.186992 0.966169 0.319867 0.266807
O59   O     O_3   0.156372 0.566242 0.296269 -0.649478
C167  C     C_3   0.147673 0.629869 0.306117 0.076935
H103  H     H_    0.162888 0.637568 0.340926 0.158485
H104  H     H_    0.098374 0.645689 0.304340 0.121239
C168  C     C_3   0.187802 0.669616 0.275346 -0.294516
H105  H     H_    0.236835 0.654060 0.277469 0.234205
H106  H     H_    0.171781 0.663957 0.240538 0.251337
C169  C     C_3   0.184173 0.738089 0.287748 -0.996675
H107  H     H_    0.135692 0.754946 0.284849 0.269190
H108  H     H_    0.213859 0.765551 0.264919 0.270902
H109  H     H_    0.200723 0.745341 0.322286 0.264829
O60   O     O_3   0.657137 0.935691 0.294804 -0.648165
C170  C     C_3   0.694777 0.986836 0.306907 0.070551
H110  H     H_    0.716644 0.975576 0.339319 0.162405
H111  H     H_    0.668394 0.030775 0.312076 0.121776
C171  C     C_3   0.746092 0.997015 0.272503 -0.308193
H112  H     H_    0.771735 0.952973 0.267237 0.229875
H113  H     H_    0.725298 0.011509 0.240408 0.242712
C172  C     C_3   0.791479 0.047004 0.287698 -0.994388
H114  H     H_    0.767192 0.092064 0.291505 0.269552
H115  H     H_    0.828813 0.052437 0.262655 0.275692
H116  H     H_    0.813005 0.033869 0.319853 0.266807
O61   O     O_3   0.013680 0.669271 0.705614 -0.645425
C173  C     C_3   0.076688 0.680797 0.695064 0.070538
H117  H     H_    0.077563 0.707004 0.663318 0.162373
H118  H     H_    0.104351 0.637812 0.689282 0.115129
C174  C     C_3   0.107318 0.720442 0.731160 -0.287940
H119  H     H_    0.078321 0.762005 0.737709 0.239313
H120  H     H_    0.111068 0.693213 0.762328 0.239133
C175  C     C_3   0.172184 0.741236 0.717401 -1.010755
H121  H     H_    0.202412 0.700374 0.711651 0.267443
H122  H     H_    0.192772 0.769875 0.744246 0.269323
H123  H     H_    0.170045 0.769529 0.686630 0.269843
O62   O     O_3   0.357782 0.906862 0.705026 -0.644869
C176  C     C_3   0.310380 0.949774 0.694285 0.071035
H124  H     H_    0.288043 0.933473 0.663158 0.163818
H125  H     H_    0.328058 0.997436 0.687276 0.122650
C177  C     C_3   0.261134 0.951974 0.730975 -0.309572
H126  H     H_    0.244121 0.904348 0.737942 0.230894
H127  H     H_    0.281729 0.971219 0.761828 0.242044
C178  C     C_3   0.206328 0.992510 0.717564 -0.988541
H128  H     H_    0.221998 0.040793 0.711397 0.267566
H129  H     H_    0.171530 0.992980 0.744727 0.270997
H130  H     H_    0.183979 0.973962 0.687099 0.267030
O63   O     O_3   0.986292 0.330733 0.705606 -0.645425
C179  C     C_3   0.923283 0.319215 0.695051 0.070534
H131  H     H_    0.922407 0.293017 0.663300 0.162366
H132  H     H_    0.895624 0.362204 0.689275 0.115135
C180  C     C_3   0.892649 0.279564 0.731138 -0.287930
H133  H     H_    0.921640 0.237993 0.737678 0.239297
H134  H     H_    0.888906 0.306782 0.762312 0.239142
C181  C     C_3   0.827779 0.258785 0.717374 -1.010772
H135  H     H_    0.797557 0.299654 0.711636 0.267433
H136  H     H_    0.807187 0.230138 0.744212 0.269329
H137  H     H_    0.829910 0.230505 0.686596 0.269843
O64   O     O_3   0.642223 0.093135 0.705033 -0.644898
C182  C     C_3   0.689626 0.050225 0.694290 0.071032
H138  H     H_    0.711943 0.066513 0.663153 0.163811
H139  H     H_    0.671953 0.002556 0.687295 0.122636
C183  C     C_3   0.738892 0.048054 0.730968 -0.309563
H140  H     H_    0.755895 0.095687 0.737923 0.230890
H141  H     H_    0.718318 0.028816 0.761829 0.242086
C184  C     C_3   0.793701 0.007525 0.717551 -0.988537
H142  H     H_    0.778041 0.959236 0.711398 0.267570
H143  H     H_    0.828514 0.007077 0.744706 0.270983
H144  H     H_    0.816029 0.026064 0.687077 0.267031
O65   O     O_3   0.607761 0.315829 0.477883 -0.610905
C185  C     C_3   0.620421 0.311356 0.431982 0.104710
H145  H     H_    0.578878 0.324131 0.411871 0.136489
H146  H     H_    0.635147 0.263425 0.423333 0.127337
C186  C     C_3   0.673030 0.356026 0.420404 -0.275705
H147  H     H_    0.658950 0.403995 0.429038 0.235259
H148  H     H_    0.714923 0.344056 0.440119 0.235769
C187  C     C_3   0.688975 0.353560 0.371077 -1.017319
H149  H     H_    0.705071 0.306446 0.361803 0.268396
H150  H     H_    0.726541 0.387265 0.363817 0.279068
H151  H     H_    0.647827 0.365868 0.350737 0.268182
O66   O     O_3   0.315271 0.399569 0.464834 -0.608500
C188  C     C_3   0.309410 0.397225 0.418162 0.112683
H152  H     H_    0.321586 0.442729 0.402835 0.139782
H153  H     H_    0.261205 0.384362 0.408647 0.128609
C189  C     C_3   0.353712 0.348085 0.400118 -0.278446
H154  H     H_    0.402046 0.360237 0.409545 0.237883
H155  H     H_    0.342245 0.302398 0.415076 0.235743
C190  C     C_3   0.349434 0.343154 0.349638 -1.005397
H156  H     H_    0.301682 0.330043 0.339457 0.272511
H157  H     H_    0.382051 0.307076 0.337632 0.271595
H158  H     H_    0.361967 0.388048 0.333970 0.263982
O67   O     O_3   0.392236 0.684170 0.477886 -0.610905
C191  C     C_3   0.379578 0.688635 0.431985 0.104700
H159  H     H_    0.421121 0.675855 0.411877 0.136496
H160  H     H_    0.364855 0.736565 0.423332 0.127339
C192  C     C_3   0.326968 0.643965 0.420406 -0.275709
H161  H     H_    0.341045 0.595997 0.429044 0.235262
H162  H     H_    0.285075 0.655941 0.440117 0.235763
C193  C     C_3   0.311026 0.646421 0.371079 -1.017318
H163  H     H_    0.294932 0.693534 0.361800 0.268399
H164  H     H_    0.273460 0.612715 0.363818 0.279073
H165  H     H_    0.352175 0.634108 0.350742 0.268182
O68   O     O_3   0.684728 0.600433 0.464842 -0.608505
C194  C     C_3   0.690577 0.602769 0.418169 0.112686
H166  H     H_    0.678388 0.557265 0.402844 0.139793
H167  H     H_    0.738782 0.615621 0.408649 0.128605
C195  C     C_3   0.646281 0.651916 0.400128 -0.278434
H168  H     H_    0.597946 0.639775 0.409560 0.237891
H169  H     H_    0.657760 0.697603 0.415084 0.235738
C196  C     C_3   0.650546 0.656839 0.349648 -1.005406
H170  H     H_    0.698298 0.669940 0.339462 0.272510
H171  H     H_    0.617934 0.692923 0.337645 0.271594
H172  H     H_    0.638000 0.611946 0.333983 0.263983
O69   O     O_3   0.607877 0.684211 0.520979 -0.610263
C197  C     C_3   0.622628 0.689727 0.566488 0.101141
H173  H     H_    0.582198 0.676703 0.587664 0.135265
H174  H     H_    0.637173 0.737988 0.574386 0.128667
C198  C     C_3   0.676337 0.646053 0.577141 -0.273407
H175  H     H_    0.662194 0.597618 0.569883 0.231745
H176  H     H_    0.716792 0.657762 0.555845 0.240514
C199  C     C_3   0.695437 0.650626 0.625807 -1.004804
H177  H     H_    0.710947 0.698455 0.633735 0.269243
H178  H     H_    0.734349 0.618228 0.632345 0.270942
H179  H     H_    0.655947 0.637975 0.647695 0.265107
O70   O     O_3   0.315807 0.601762 0.533484 -0.607072
C200  C     C_3   0.307217 0.609296 0.579649 0.109284
H180  H     H_    0.317231 0.565318 0.597758 0.133468
H181  H     H_    0.258938 0.624348 0.586928 0.124344
C201  C     C_3   0.351789 0.659292 0.596261 -0.278541
H182  H     H_    0.400330 0.644451 0.589911 0.234202
H183  H     H_    0.343372 0.703060 0.577756 0.239758
C202  C     C_3   0.343446 0.671325 0.645860 -1.002645
H184  H     H_    0.295571 0.687606 0.652807 0.270781
H185  H     H_    0.376580 0.707643 0.656828 0.276214
H186  H     H_    0.352534 0.628390 0.665117 0.263790
O71   O     O_3   0.392124 0.315788 0.520980 -0.610263
C203  C     C_3   0.377397 0.310293 0.566493 0.101123
H187  H     H_    0.417834 0.323337 0.587658 0.135288
H188  H     H_    0.362868 0.262032 0.574405 0.128666
C204  C     C_3   0.323682 0.353959 0.577148 -0.273407
H189  H     H_    0.337809 0.402393 0.569877 0.231753
H190  H     H_    0.283220 0.342228 0.555864 0.240494
C205  C     C_3   0.304607 0.349406 0.625820 -1.004802
H191  H     H_    0.289114 0.301577 0.633762 0.269243
H192  H     H_    0.265689 0.381796 0.632359 0.270937
H193  H     H_    0.344104 0.362078 0.647696 0.265107
O72   O     O_3   0.684194 0.398236 0.533478 -0.607074
C206  C     C_3   0.692786 0.390700 0.579643 0.109289
H194  H     H_    0.682773 0.434677 0.597754 0.133464
H195  H     H_    0.741066 0.375649 0.586921 0.124342
C207  C     C_3   0.648216 0.340703 0.596251 -0.278564
H196  H     H_    0.599674 0.355544 0.589902 0.234203
H197  H     H_    0.656632 0.296937 0.577742 0.239761
C208  C     C_3   0.656562 0.328667 0.645849 -1.002605
H198  H     H_    0.704436 0.312385 0.652795 0.270767
H199  H     H_    0.623428 0.292349 0.656814 0.276229
H200  H     H_    0.647475 0.371601 0.665109 0.263788
O73   O     O_3   0.110146 0.816569 0.985730 -0.618176
C209  C     C_3   0.132690 0.807530 0.942144 0.097218
H201  H     H_    0.095230 0.814232 0.917012 0.135180
H202  H     H_    0.152408 0.760151 0.938697 0.137640
C210  C     C_3   0.183954 0.854770 0.932963 -0.286710
H203  H     H_    0.164404 0.902228 0.935034 0.222334
H204  H     H_    0.220971 0.850154 0.958434 0.244178
C211  C     C_3   0.212278 0.845658 0.887006 -1.005726
H205  H     H_    0.233271 0.798828 0.884358 0.268876
H206  H     H_    0.249071 0.880852 0.881437 0.278279
H207  H     H_    0.176301 0.851113 0.860901 0.266111
O74   O     O_3   0.814353 0.914651 0.948063 -0.607112
C212  C     C_3   0.808539 0.929260 0.902512 0.118381
H208  H     H_    0.815208 0.979873 0.896293 0.135658
H209  H     H_    0.761979 0.915017 0.890240 0.130323
C213  C     C_3   0.858145 0.894029 0.876598 -0.288975
H210  H     H_    0.904773 0.907266 0.889183 0.241453
H211  H     H_    0.851883 0.843448 0.881830 0.221982
C214  C     C_3   0.854681 0.908350 0.827025 -1.014666
H212  H     H_    0.808821 0.894463 0.813471 0.275206
H213  H     H_    0.891381 0.882242 0.809203 0.275271
H214  H     H_    0.861972 0.958638 0.821155 0.266659
O75   O     O_3   0.889854 0.183431 0.985720 -0.618172
C215  C     C_3   0.867325 0.192457 0.942129 0.097218
H215  H     H_    0.904791 0.185732 0.917005 0.135188
H216  H     H_    0.847623 0.239841 0.938668 0.137634
C216  C     C_3   0.816049 0.145228 0.932947 -0.286712
H217  H     H_    0.835586 0.097765 0.935030 0.222338
H218  H     H_    0.779027 0.149865 0.958411 0.244166
C217  C     C_3   0.787740 0.154329 0.886983 -1.005712
H219  H     H_    0.766762 0.201163 0.884323 0.268896
H220  H     H_    0.750940 0.119143 0.881414 0.278286
H221  H     H_    0.823723 0.148852 0.860885 0.266105
O76   O     O_3   0.185645 0.085350 0.948066 -0.607116
C218  C     C_3   0.191447 0.070732 0.902516 0.118382
H222  H     H_    0.184765 0.020120 0.896300 0.135666
H223  H     H_    0.238006 0.084963 0.890240 0.130315
C219  C     C_3   0.141842 0.105969 0.876605 -0.288960
H224  H     H_    0.095214 0.092746 0.889195 0.241463
H225  H     H_    0.148118 0.156550 0.881833 0.221975
C220  C     C_3   0.145290 0.091637 0.827032 -1.014692
H226  H     H_    0.191150 0.105509 0.813472 0.275212
H227  H     H_    0.108592 0.117750 0.809212 0.275275
H228  H     H_    0.137985 0.041349 0.821166 0.266650
O77   O     O_3   0.110312 0.183612 0.012842 -0.618716
C221  C     C_3   0.134479 0.192931 0.055937 0.093785
H229  H     H_    0.097979 0.186183 0.081780 0.132732
H230  H     H_    0.154293 0.240364 0.058925 0.134449
C222  C     C_3   0.186129 0.145885 0.064135 -0.283311
H231  H     H_    0.166594 0.098377 0.062261 0.223016
H232  H     H_    0.222333 0.150815 0.038097 0.243382
C223  C     C_3   0.215825 0.154765 0.109638 -1.010283
H233  H     H_    0.236974 0.201568 0.112160 0.269175
H234  H     H_    0.252694 0.119527 0.114537 0.276959
H235  H     H_    0.180540 0.149115 0.136201 0.264239
O78   O     O_3   0.814422 0.087271 0.050607 -0.606476
C224  C     C_3   0.807381 0.075658 0.096488 0.114183
H236  H     H_    0.817873 0.026272 0.104565 0.139536
H237  H     H_    0.759311 0.086768 0.107318 0.129996
C225  C     C_3   0.852511 0.116896 0.122107 -0.282972
H238  H     H_    0.900718 0.106734 0.111250 0.236704
H239  H     H_    0.842391 0.166332 0.114734 0.231325
C226  C     C_3   0.847389 0.106177 0.172055 -1.011816
H240  H     H_    0.799710 0.116747 0.183772 0.274599
H241  H     H_    0.880477 0.136946 0.189738 0.271476
H242  H     H_    0.858760 0.057289 0.180187 0.265529
O79   O     O_3   0.889684 0.816386 0.012831 -0.618713
C227  C     C_3   0.865532 0.807084 0.055931 0.093774
H243  H     H_    0.902035 0.813864 0.081768 0.132744
H244  H     H_    0.845737 0.759646 0.058935 0.134443
C228  C     C_3   0.813865 0.854117 0.064120 -0.283277
H245  H     H_    0.833384 0.901630 0.062235 0.223012
H246  H     H_    0.777660 0.849161 0.038086 0.243379
C229  C     C_3   0.784180 0.845249 0.109627 -1.010293
H247  H     H_    0.763049 0.798440 0.112160 0.269181
H248  H     H_    0.747299 0.880476 0.114519 0.276959
H249  H     H_    0.819467 0.850927 0.136187 0.264233
O80   O     O_3   0.185583 0.912743 0.050616 -0.606474
C230  C     C_3   0.192625 0.924372 0.096496 0.114192
H250  H     H_    0.182131 0.973759 0.104566 0.139534
H251  H     H_    0.240696 0.913268 0.107327 0.129996
C231  C     C_3   0.147498 0.883140 0.122119 -0.282984
H252  H     H_    0.099290 0.893295 0.111259 0.236706
H253  H     H_    0.157622 0.833702 0.114753 0.231321
C232  C     C_3   0.152620 0.893877 0.172066 -1.011798
H254  H     H_    0.200301 0.883316 0.183785 0.274604
H255  H     H_    0.119535 0.863113 0.189752 0.271475
H256  H     H_    0.141246 0.942768 0.180190 0.265529

loop_
_geom_bond_atom_site_label_1
_geom_bond_atom_site_label_2
_ccdc_geom_bond_type
C216  C217  S    
C29   C133  A    
C21   C26   A    
C144  H50   S    
C32   O64   S    
C172  H114  S    
C64   O30   A    
C58   O18   A    
C74   O74   S    
C59   O23   A    
C154  H72   S    
C24   C27   A    
C62   O28   A    
O67   C191  S    
C180  C181  S    
C8    C56   S    
C105  C131  A    
C25   O57   S    
O33   Zn9   S    
C108  H28   S    
C156  H78   S    
C143  H48   S    
O54   C152  S    
C10   C124  A    
C85   C96   S    
C98   C114  A    
C12   C126  A    
C149  C150  S    
C87   C94   S    
C96   O46   A    
O62   C176  S    
O47   Zn12  S    
C35   H3    S    
C104  C116  A    
C225  C226  S    
C89   O37   A    
C33   H1    S    
C163  H93   S    
O38   Zn10  S    
C9    C121  A    
C203  C204  S    
C84   C91   S    
C7    C55   S    
O25   Zn5   S    
C57   O17   A    
C26   C130  A    
C177  C178  S    
C107  C129  A    
C99   C121  A    
C27   O59   S    
C184  H143  S    
C88   C95   S    
C106  C118  A    
C17   C30   A    
C104  C126  A    
C6    C54   S    
C71   O71   S    
C19   C32   A    
C69   O69   S    
C175  H121  S    
O21   Zn1   S    
C190  H158  S    
C157  H80   S    
C43   C75   A    
C159  H85   S    
C230  H251  S    
O13   Zn5   S    
C228  H245  S    
C153  C154  S    
C178  H128  S    
C167  H103  S    
C45   H13   S    
C176  C177  S    
C112  C120  A    
C181  H136  S    
C63   O29   A    
C198  C199  S    
C106  C132  A    
C196  H170  S    
C231  H252  S    
C66   C82   A    
C210  C211  S    
C8    O12   A    
C232  H256  S    
O56   C158  S    
C60   C117  S    
C220  H227  S    
C30   O62   S    
C203  H187  S    
C137  H34   S    
C72   C84   A    
C18   C122  A    
C155  H75   S    
C202  H185  S    
C172  H116  S    
C148  H59   S    
C35   C51   A    
C101  C115  A    
C185  H146  S    
C59   O21   A    
C111  H31   S    
C62   O26   A    
C110  C120  A    
O63   C179  S    
O35   Zn9   S    
O74   C212  S    
C191  H160  S    
C14   C130  A    
C142  H46   S    
C146  H55   S    
C80   O80   S    
C189  H154  S    
C161  C162  S    
C189  C190  S    
C112  C134  A    
C215  H215  S    
C10   C122  A    
C179  H132  S    
C36   C68   A    
C80   C88   A    
C12   C128  A    
C23   C127  A    
C141  C142  S    
C223  H233  S    
C151  H65   S    
C224  H237  S    
O45   Zn12  S    
C22   O54   S    
C174  H119  S    
O66   C188  S    
C163  H95   S    
C47   C53   A    
C58   C119  S    
C9    C123  A    
O12   Zn8   S    
O60   C170  S    
C70   C82   A    
C57   O19   A    
O64   C182  S    
C166  H100  S    
C206  C207  S    
C60   O22   A    
C162  H91   S    
C39   C71   A    
C105  H25   S    
C72   O72   S    
C210  H204  S    
O36   Zn9   S    
O65   C185  S    
C175  H123  S    
C143  H47   S    
C90   O34   A    
C218  C219  S    
C197  H174  S    
C98   H18   S    
C67   C83   A    
C109  C135  A    
C110  C136  A    
C170  H110  S    
C167  C168  S    
C16   C134  A    
C34   C66   A    
C184  H142  S    
C170  C171  S    
C5    O9    A    
C192  H162  S    
C200  H180  S    
C141  H42   S    
C98   C124  A    
O79   C227  S    
O18   Zn2   S    
C19   C123  A    
O48   Zn12  S    
C82   C89   S    
C6    O14   A    
C187  H149  S    
C154  H73   S    
C149  H61   S    
O29   Zn5   S    
C194  H167  S    
C160  H87   S    
C197  C198  S    
C173  H117  S    
C79   O79   S    
C211  H205  S    
C207  C208  S    
C111  C119  A    
C140  H40   S    
C44   C76   A    
C161  H90   S    
C2    C50   S    
O40   Zn10  S    
O44   Zn11  S    
C155  C156  S    
C206  H194  S    
C211  H206  S    
C199  H177  S    
C30   C134  A    
C22   C25   A    
C138  H35   S    
C108  C130  A    
C36   C52   A    
C20   O52   S    
C225  H239  S    
C214  H214  S    
C150  H63   S    
C164  H97   S    
C207  H196  S    
C215  C216  S    
C188  H153  S    
O49   C137  S    
C18   O50   S    
C209  H202  S    
C212  H209  S    
C7    O13   A    
C223  H235  S    
C100  C114  A    
C165  H98   S    
C174  C175  S    
C201  H182  S    
C178  H130  S    
C34   H2    S    
C28   C132  A    
C153  H71   S    
C196  H172  S    
C11   C127  A    
C222  H231  S    
C86   C93   S    
C138  H36   S    
C37   C69   A    
O39   Zn10  S    
C169  H108  S    
C192  H161  S    
C35   C67   A    
C60   O24   A    
C162  C163  S    
C41   C53   A    
C66   O66   S    
C142  H45   S    
C18   C29   A    
C23   C28   A    
C186  C187  S    
C208  H199  S    
C68   O68   S    
C147  H57   S    
C204  H189  S    
C143  C144  S    
C90   O40   A    
C75   C87   A    
C39   C49   A    
C107  H27   S    
C94   O42   A    
C59   C118  S    
C57   C120  S    
C183  H141  S    
C148  H60   S    
C214  H212  S    
C16   C136  A    
C61   O25   A    
C184  H144  S    
C191  H159  S    
C169  H109  S    
C28   O60   S    
C200  C201  S    
C43   C55   A    
C216  H218  S    
O71   C203  S    
C229  H247  S    
C1    O7    A    
C230  C231  S    
C227  C228  S    
C4    O4    A    
C231  C232  S    
C187  H151  S    
O58   C164  S    
C180  H134  S    
C147  C148  S    
O22   Zn4   S    
C91   O39   A    
O52   C146  S    
O14   Zn8   S    
C139  H39   S    
O26   Zn6   S    
C14   C132  A    
C140  C141  S    
C95   O43   A    
C168  H106  S    
C145  H51   S    
C186  H147  S    
C62   C115  S    
C97   C123  A    
O24   Zn2   S    
C19   O51   S    
C199  H179  S    
C227  H244  S    
O50   C140  S    
C101  C127  A    
C107  C117  A    
C178  H129  S    
C219  H225  S    
C70   O70   S    
C205  H191  S    
C103  C125  A    
C156  C157  S    
C20   C124  A    
C217  H219  S    
C41   C73   A    
C12   C13   A    
C45   C55   A    
O15   Zn7   S    
C171  H112  S    
C150  C151  S    
C24   C128  A    
C13   C129  A    
C45   C77   A    
O9    Zn5   S    
C195  H168  S    
C148  H58   S    
C195  H169  S    
C159  C160  S    
O3    Zn3   S    
O75   C215  S    
C213  H210  S    
C71   C81   A    
C229  H249  S    
O1    Zn1   S    
C38   C70   A    
C73   O73   S    
C96   O44   A    
C219  C220  S    
C165  C166  S    
C105  C117  A    
C78   C86   A    
C175  H122  S    
C193  H163  S    
O51   C143  S    
C190  H157  S    
C221  H229  S    
C37   H5    S    
C11   C125  A    
C167  H104  S    
C222  C223  S    
C176  H125  S    
C182  C183  S    
C33   C49   A    
C152  H69   S    
C95   O47   A    
C164  H96   S    
C198  H176  S    
O68   C194  S    
C231  H253  S    
C157  H79   S    
C232  H255  S    
C99   H19   S    
C97   H17   S    
O34   Zn9   S    
C40   C72   A    
C61   O27   A    
C92   O36   A    
C191  C192  S    
C103  H23   S    
C100  H20   S    
C155  H76   S    
C144  C145  S    
C101  H21   S    
C230  H250  S    
C172  H115  S    
O8    Zn2   S    
C220  H226  S    
C6    O10   A    
C102  H22   S    
C104  H24   S    
C23   O55   S    
O20   Zn4   S    
C182  H139  S    
C42   C74   A    
C93   O45   A    
C158  H82   S    
C68   C84   A    
C215  H216  S    
C140  H41   S    
O55   C155  S    
C46   C78   A    
C3    C51   S    
O80   C230  S    
C76   O76   S    
C223  H234  S    
C103  C115  A    
C226  H240  S    
C152  H68   S    
C44   C56   A    
C65   C81   A    
O59   C167  S    
C209  C210  S    
C46   C54   A    
C61   C116  S    
C13   C131  A    
C207  H197  S    
C109  H29   S    
C2    O2    A    
C213  C214  S    
C38   C50   A    
C31   C135  A    
C206  H195  S    
C47   H15   S    
C32   C136  A    
C48   H16   S    
C219  H224  S    
O31   Zn7   S    
C21   C125  A    
C42   H10   S    
C109  C119  A    
C166  H101  S    
C218  H223  S    
C159  H84   S    
C17   O49   S    
C94   O48   A    
C211  H207  S    
C75   O75   S    
C99   C113  A    
C166  H102  S    
C182  H138  S    
C170  H111  S    
C163  H94   S    
C181  H135  S    
C152  C153  S    
C102  C128  A    
C203  H188  S    
O32   Zn6   S    
C158  C159  S    
C187  H150  S    
C42   C54   A    
C204  C205  S    
C160  H86   S    
C173  H118  S    
C81   C92   S    
C189  H155  S    
C79   C85   A    
C139  H38   S    
C106  H26   S    
C24   O56   S    
C137  H33   S    
C21   O53   S    
C92   O38   A    
C202  H186  S    
C41   H9    S    
O70   C200  S    
C199  H178  S    
O72   C206  S    
C4    O8    A    
C220  H228  S    
C185  H145  S    
O41   Zn11  S    
C5    O15   A    
C91   O35   A    
C173  C174  S    
C146  C147  S    
C89   O33   A    
C168  H105  S    
C226  H241  S    
C214  H213  S    
C27   C131  A    
O42   Zn11  S    
O30   Zn8   S    
C47   C79   A    
C194  H166  S    
C25   C129  A    
C179  H131  S    
C181  H137  S    
C188  H152  S    
C33   C65   A    
C216  H217  S    
O19   Zn3   S    
C139  H37   S    
O16   Zn6   S    
C157  H81   S    
C212  H208  S    
C224  H236  S    
O17   Zn1   S    
C4    C52   S    
C5    C53   S    
O78   C224  S    
C9    C16   A    
C151  H66   S    
C224  C225  S    
C10   C15   A    
C174  H120  S    
C37   C51   A    
C11   C14   A    
C22   C126  A    
C15   C135  A    
C218  H222  S    
C112  H32   S    
C137  C138  S    
C210  H203  S    
C196  H171  S    
C67   O67   S    
C63   C114  S    
C3    O5    A    
C141  H43   S    
C162  H92   S    
C185  C186  S    
C78   O78   S    
C186  H148  S    
O46   Zn12  S    
C208  H198  S    
C76   C88   A    
C149  H62   S    
C8    O16   A    
C197  H173  S    
O43   Zn11  S    
C38   H6    S    
C183  C184  S    
C198  H175  S    
C151  H67   S    
C226  H242  S    
C3    O3    A    
C192  C193  S    
C228  H246  S    
C200  H181  S    
C65   O65   S    
C229  H248  S    
C34   C50   A    
C58   O20   A    
C108  C118  A    
O37   Zn10  S    
C154  H74   S    
C43   H11   S    
C194  C195  S    
O23   Zn3   S    
C190  H156  S    
C156  H77   S    
C201  C202  S    
C111  C133  A    
C160  H88   S    
C205  H193  S    
C77   O77   S    
O77   C221  S    
C40   C52   A    
O11   Zn7   S    
C177  H127  S    
C145  H52   S    
C161  H89   S    
C69   C83   A    
C26   O58   S    
C138  C139  S    
C202  H184  S    
C31   O63   S    
O53   C149  S    
C7    O11   A    
O28   Zn8   S    
C74   C86   A    
C205  H192  S    
C36   H4    S    
C77   C87   A    
C217  H220  S    
C201  H183  S    
C225  H238  S    
C46   H14   S    
C39   H7    S    
O69   C197  S    
C171  H113  S    
C150  H64   S    
C93   O41   A    
C164  C165  S    
C145  H53   S    
C97   C113  A    
C144  H49   S    
C179  C180  S    
C188  C189  S    
O5    Zn1   S    
C177  H126  S    
C213  H211  S    
C73   C85   A    
C17   C121  A    
C48   C56   A    
C83   C90   S    
C209  H201  S    
C227  H243  S    
C212  C213  S    
C64   C113  S    
C183  H140  S    
O7    Zn3   S    
C217  H221  S    
O4    Zn4   S    
C193  H164  S    
C142  H44   S    
C15   C133  A    
C171  C172  S    
O61   C173  S    
C221  H230  S    
C204  H190  S    
C40   H8    S    
C228  C229  S    
O73   C209  S    
C153  H70   S    
C48   C80   A    
C195  C196  S    
C64   O32   A    
C158  H83   S    
C222  H232  S    
C176  H124  S    
C2    O6    A    
O27   Zn7   S    
C110  H30   S    
C29   O61   S    
C169  H107  S    
C146  H54   S    
C1    O1    A    
C44   H12   S    
C63   O31   A    
C100  C122  A    
O57   C161  S    
C208  H200  S    
C193  H165  S    
C102  C116  A    
C147  H56   S    
C165  H99   S    
O6    Zn4   S    
C221  C222  S    
C232  H254  S    
C168  C169  S    
O76   C218  S    
O10   Zn6   S    
C1    C49   S    
C180  H133  S    
O2    Zn2   S    
C20   C31   A    
