data_mof_unit_41875.cif
_audit_creation_date              2012-12-11T14:43:39-0500
_audit_creation_method            fapswitch 2.2
_symmetry_space_group_name_H-M    P1
_symmetry_Int_Tables_number       1
_space_group_crystal_system       triclinic
_cell_length_a                    20.86241
_cell_length_b                    7.105396
_cell_length_c                    16.427181
_cell_angle_alpha                 89.981279
_cell_angle_beta                  93.173595
_cell_angle_gamma                 89.984841
_cell_volume                      2431.35969335

loop_
_atom_site_label
_atom_site_type_symbol
_atom_type_description
_atom_site_fract_x
_atom_site_fract_y
_atom_site_fract_z
_atom_type_partial_charge
O1    O     O_R   0.564840 0.505290 0.579830 -0.535504
O2    O     O_R   0.435160 0.005290 0.420170 -0.535601
O3    O     O_R   0.556720 0.179930 0.409350 -0.539975
O4    O     O_R   0.443280 0.679930 0.590650 -0.540268
C1    C     C_R   0.570522 0.344769 0.381690 0.698715
C2    C     C_R   0.429342 0.844716 0.618183 0.699320
O5    O     O_R   0.572280 0.175810 0.578530 -0.538216
O6    O     O_R   0.427720 0.675810 0.421470 -0.538390
O7    O     O_R   0.450830 0.001920 0.590540 -0.532054
O8    O     O_R   0.549170 0.501920 0.409460 -0.532621
C3    C     C_R   0.590255 0.344205 0.604450 0.696602
C4    C     C_R   0.409822 0.844252 0.395475 0.695914
O9    O     O_3   0.460130 0.338030 0.503750 -0.373373
O10   O     O_3   0.539870 0.838030 0.496250 -0.373363
V1    V     V_3+5 0.507400 0.064560 0.499310 1.453482
V2    V     V_3+5 0.492600 0.564560 0.500690 1.452454
C5    C     C_R   0.141710 0.914158 0.170272 -0.073637
C6    C     C_R   0.857728 0.415082 0.830577 -0.051947
C7    C     C_R   0.357166 0.852187 0.330998 -0.087601
C8    C     C_R   0.642904 0.351714 0.668991 -0.091330
C9    C     C_R   0.317215 0.808310 0.189686 -0.189576
C10   C     C_R   0.683414 0.297196 0.809378 -0.190510
C11   C     C_R   0.368214 0.807188 0.249235 -0.043215
C12   C     C_R   0.632340 0.298657 0.749997 -0.043488
C13   C     C_R   0.294978 0.904036 0.351222 -0.227222
C14   C     C_R   0.704592 0.410717 0.649628 -0.227535
C15   C     C_R   0.243926 0.907706 0.291271 0.103165
C16   C     C_R   0.755695 0.412724 0.709579 0.122946
C17   C     C_R   0.254927 0.857241 0.210106 0.136292
C18   C     C_R   0.745240 0.352557 0.789749 0.139513
C19   C     C_R   0.203710 0.858923 0.150466 -0.235723
C20   C     C_R   0.796457 0.351816 0.849366 -0.253181
C21   C     C_R   0.130942 0.966390 0.251787 0.194797
C22   C     C_R   0.868036 0.477830 0.750801 0.199408
C23   C     C_R   0.182034 0.961356 0.311216 -0.167545
C24   C     C_R   0.817035 0.474667 0.690757 -0.205406
H1    H     H_    0.212208 0.820062 0.088142 0.120533
H2    H     H_    0.788462 0.305707 0.910929 0.121768
H3    H     H_    0.326306 0.773102 0.127105 0.121427
H4    H     H_    0.674678 0.255504 0.871341 0.123001
H5    H     H_    0.173157 0.000365 0.373392 0.129829
H6    H     H_    0.825162 0.521630 0.629393 0.113637
H7    H     H_    0.286389 0.940591 0.413778 0.101706
H8    H     H_    0.712765 0.454045 0.587746 0.103768
C25   C     C_R   0.385046 0.903435 0.834363 -0.129157
C26   C     C_R   0.614533 0.408264 0.165647 -0.128442
H9    H     H_    0.472657 0.868960 0.774066 0.130648
H10   H     H_    0.526901 0.376841 0.226176 0.129433
H11   H     H_    0.310484 0.006788 0.949048 0.128937
H12   H     H_    0.689204 0.509916 0.050901 0.129856
H13   H     H_    0.410225 0.925967 0.893055 0.126489
H14   H     H_    0.589324 0.433342 0.107166 0.126585
C27   C     C_R   0.390089 0.853811 0.689635 -0.043725
C28   C     C_R   0.609599 0.354338 0.310108 -0.043854
C29   C     C_R   0.080364 0.855218 0.738665 -0.152372
C30   C     C_R   0.919299 0.356032 0.261172 -0.142105
C31   C     C_R   0.113772 0.815654 0.670072 -0.124798
C32   C     C_R   0.885878 0.315725 0.329657 -0.116272
C33   C     C_R   0.180422 0.822511 0.673354 -0.149017
C34   C     C_R   0.819228 0.321549 0.326198 -0.154819
C35   C     C_R   0.215938 0.875305 0.745526 0.078567
C36   C     C_R   0.783715 0.374483 0.254009 0.078663
C37   C     C_R   0.181421 0.924674 0.816016 0.025345
C38   C     C_R   0.818263 0.424322 0.183580 0.024317
C39   C     C_R   0.284842 0.877900 0.749830 0.076385
C40   C     C_R   0.714806 0.377573 0.249749 0.077247
C41   C     C_R   0.317802 0.911820 0.826161 0.118664
C42   C     C_R   0.681823 0.413877 0.173628 0.117851
C43   C     C_R   0.284070 0.965789 0.892978 -0.225669
C44   C     C_R   0.715600 0.467717 0.106831 -0.225320
C45   C     C_R   0.217622 0.986451 0.886892 -0.093132
C46   C     C_R   0.782100 0.486795 0.112759 -0.091774
C47   C     C_R   0.322621 0.852084 0.681073 -0.218669
C48   C     C_R   0.677050 0.350343 0.318433 -0.217878
C49   C     C_R   0.420761 0.872653 0.766713 -0.117670
C50   C     C_R   0.578828 0.377420 0.233300 -0.118309
C51   C     C_R   0.112612 0.907264 0.812162 -0.090108
C52   C     C_R   0.887093 0.407264 0.187556 -0.085699
H15   H     H_    0.301373 0.838101 0.620036 0.090600
H16   H     H_    0.698291 0.333716 0.379337 0.090673
H17   H     H_    0.028546 0.841310 0.734832 0.132416
H18   H     H_    0.971115 0.343563 0.265174 0.105103
H19   H     H_    0.202891 0.781254 0.618638 0.107026
H20   H     H_    0.796806 0.280014 0.380903 0.106661
H21   H     H_    0.087727 0.773815 0.614152 0.121571
H22   H     H_    0.911931 0.274328 0.385656 0.122160
O11   O     O_R   0.950790 0.256670 0.090520 -0.540097
O12   O     O_R   0.049210 0.756670 0.909480 -0.530619
O13   O     O_R   0.927720 0.590370 0.921470 -0.510362
O14   O     O_R   0.072280 0.090370 0.078530 -0.524042
C53   C     C_R   0.910270 0.421773 0.894993 0.733038
C54   C     C_R   0.089690 0.921626 0.105081 0.692024
O15   O     O_R   0.943270 0.586180 0.090640 -0.534014
O16   O     O_R   0.056730 0.086180 0.909360 -0.534551
O17   O     O_R   0.064850 0.759970 0.079840 -0.539296
O18   O     O_R   0.935150 0.259970 0.920160 -0.545800
C55   C     C_R   0.927605 0.417457 0.116145 0.673399
C56   C     C_R   0.072248 0.917469 0.883696 0.687270
O19   O     O_3   0.039850 0.428050 0.996240 -0.363259
O20   O     O_3   0.960150 0.928050 0.003760 -0.363467
V3    V     V_3+5 0.992610 0.701540 0.000700 1.510157
V4    V     V_3+5 0.007390 0.201540 0.999300 1.484908
C57   C     C_1   0.192035 0.104465 0.948439 0.269083
N1    N     N_1   0.174053 0.204925 0.997601 -0.321889
C58   C     C_1   0.807820 0.604304 0.051122 0.267767
N2    N     N_1   0.825874 0.704457 0.001878 -0.322659
N3    N     N_3   0.068897 0.022723 0.277031 -0.673585
H23   H     H_    0.071220 0.166746 0.289792 0.221607
H24   H     H_    0.032994 0.003807 0.230974 0.219861
N4    N     N_3   0.930426 0.544229 0.731260 -0.679015
H25   H     H_    0.929517 0.593323 0.671193 0.221340
H26   H     H_    0.961662 0.429037 0.734373 0.214461
C59   C     C_1   0.432110 0.767605 0.224453 0.273722
N5    N     N_1   0.483406 0.737578 0.204402 -0.369079
C60   C     C_1   0.568688 0.255081 0.774504 0.276346
N6    N     N_1   0.517564 0.222246 0.794418 -0.370648

loop_
_geom_bond_atom_site_label_1
_geom_bond_atom_site_label_2
_ccdc_geom_bond_type
C30   C52   A    
C40   C42   A    
O18   V4    S    
C15   C17   A    
H10   C50   S    
C24   H6    S    
O1    C3    A    
O2    C4    A    
C13   H7    S    
C2    O7    A    
C26   C50   A    
O12   V3    S    
C14   H8    S    
O5    C3    A    
C6    C53   S    
C33   H19   S    
C29   C51   A    
C31   C33   A    
O16   C56   A    
C32   C34   A    
C60   N6    T    
C40   C48   A    
C26   H14   S    
C39   C47   A    
C34   C36   A    
C43   C45   A    
N4    H25   S    
O14   V4    S    
C36   C38   A    
C53   O18   A    
C28   C48   A    
C8    C12   A    
C31   H21   S    
C39   C41   A    
C21   N3    S    
C25   C41   A    
N3    H23   S    
C20   H2    S    
O13   C53   A    
H11   C43   S    
O5    V1    S    
O6    V2    S    
C48   H16   S    
N3    H24   S    
C27   C49   A    
C5    C54   S    
C5    C21   A    
C7    C13   A    
C32   H22   S    
C3    C8    S    
C33   C35   A    
C36   C40   A    
C1    C28   S    
O4    C2    A    
O15   V3    S    
C15   C23   A    
C9    C17   A    
C54   O17   A    
C19   H1    S    
C41   C43   A    
O4    V2    S    
C7    C11   A    
C26   C42   A    
C11   C59   S    
O11   V4    S    
O14   C54   A    
C9    H3    S    
O6    C4    A    
C10   H4    S    
C52   C55   S    
O20   V4    S    
C47   H15   S    
C51   C56   S    
O1    V2    S    
O2    V1    S    
C6    C22   A    
O16   V4    S    
C28   C50   A    
O19   V3    S    
C37   C45   A    
C29   C31   A    
C22   N4    S    
C10   C12   A    
C6    C20   A    
C2    C27   S    
O15   C55   A    
O3    V1    S    
C59   N5    T    
C37   C51   A    
C45   C57   S    
C10   C18   A    
O13   V3    S    
C38   C52   A    
C35   C37   A    
C27   C47   A    
O3    C1    A    
C30   H18   S    
C13   C15   A    
C58   N2    T    
C14   C16   A    
C25   C49   A    
C9    C11   A    
H12   C44   S    
H9    C49   S    
C1    O8    A    
C17   C19   A    
O8    V2    S    
C18   C20   A    
C34   H20   S    
C8    C14   A    
C5    C19   A    
C4    C7    S    
C16   C18   A    
O20   V3    S    
C21   C23   A    
C30   C32   A    
C22   C24   A    
C38   C46   A    
O7    V1    S    
C23   H5    S    
N4    H26   S    
C29   H17   S    
C35   C39   A    
O19   V4    S    
C46   C58   S    
C16   C24   A    
C12   C60   S    
C42   C44   A    
O9    V2    S    
C57   N1    T    
C25   H13   S    
O10   V1    S    
C44   C46   A    
O12   C56   A    
O17   V3    S    
O11   C55   A    
