data_mof_unit_40020.cif
_audit_creation_date              2012-12-10T18:12:37-0500
_audit_creation_method            fapswitch 2.2
_symmetry_space_group_name_H-M    P1
_symmetry_Int_Tables_number       1
_space_group_crystal_system       triclinic
_cell_length_a                    12.595811
_cell_length_b                    13.11787
_cell_length_c                    15.706987
_cell_angle_alpha                 90.537707
_cell_angle_beta                  103.077302
_cell_angle_gamma                 82.136659
_cell_volume                      2503.56649212

loop_
_atom_site_label
_atom_site_type_symbol
_atom_type_description
_atom_site_fract_x
_atom_site_fract_y
_atom_site_fract_z
_atom_type_partial_charge
C1    C     C_R   0.438501 0.691359 0.486408 0.865231
C2    C     C_R   0.596940 0.199576 0.501690 -0.049890
C3    C     C_R   0.297534 0.839507 0.493995 -0.235598
C4    C     C_R   0.501239 0.500499 0.661964 0.910933
C5    C     C_R   0.266342 0.945481 0.498674 0.016129
C6    C     C_R   0.341720 0.012005 0.490727 -0.257469
C7    C     C_R   0.445643 0.973821 0.473723 0.064349
C8    C     C_R   0.466934 0.869418 0.453971 0.094289
C9    C     C_R   0.529139 0.036078 0.475227 0.088393
C10   C     C_R   0.623026 0.999109 0.442334 0.170242
C11   C     C_R   0.633763 0.900021 0.409948 -0.241267
C12   C     C_3   0.501368 0.503654 0.917299 0.174193
C13   C     C_R   0.556718 0.835726 0.415696 -0.194311
C14   C     C_R   0.522839 0.133548 0.510694 -0.248022
C15   C     C_R   0.689675 0.163725 0.469243 -0.200358
C16   C     C_R   0.561282 0.308566 0.508898 0.858394
C17   C     C_R   0.398670 0.801236 0.474388 -0.142331
C18   C     C_R   0.093431 0.333871 0.392672 -0.263049
C19   C     C_R   0.798645 0.629521 0.602795 -0.049344
C20   C     C_R   0.906210 0.649465 0.635873 -0.143175
C21   C     C_R   0.993013 0.590990 0.605733 -0.064143
C22   C     C_R   0.967096 0.522100 0.535113 -0.071244
C23   C     C_3   0.393240 0.519428 0.005393 0.148773
C24   C     C_R   0.856938 0.500869 0.509640 0.225259
C25   C     C_R   0.045268 0.470729 0.490200 0.008075
C26   C     C_R   0.016333 0.388850 0.433458 0.200676
C27   C     C_R   0.909893 0.364460 0.415836 -0.286054
C28   C     C_R   0.498508 0.500076 0.337939 0.881534
C29   C     C_R   0.830717 0.422145 0.450984 -0.185743
C30   C     C_R   0.149399 0.500537 0.495023 -0.011378
C31   C     C_R   0.197665 0.362341 0.406037 0.015746
C32   C     C_3   0.550991 0.579168 0.039499 -0.179289
C33   C     C_3   0.603425 0.487691 0.992892 -0.144073
C34   C     C_3   0.494018 0.503631 0.081557 0.162914
C35   C     C_1   0.503652 0.502020 0.751410 -0.160959
C36   C     C_1   0.494793 0.501265 0.248195 -0.180541
C37   C     C_3   0.449013 0.595431 0.961915 -0.184236
C38   C     C_2   0.157116 0.986739 0.515200 0.916576
C39   C     C_2   0.106092 0.582982 0.661634 0.882799
C40   C     C_2   0.924507 0.726970 0.705368 0.911484
C41   C     C_3   0.273679 0.537716 0.013775 -0.463276
C42   C     C_3   0.194425 0.548033 0.923500 -0.324247
C43   C     C_3   0.074835 0.567094 0.931234 -0.796998
C44   C     C_3   0.444484 0.427835 0.959041 -0.174234
C45   C     C_3   0.546457 0.412178 0.036548 -0.192447
C46   C     C_1   0.503790 0.503055 0.826820 -0.052534
C47   C     C_1   0.493089 0.502549 0.172470 -0.082105
C48   C     C_R   0.703798 0.062669 0.441141 -0.176589
H1    H     H_    0.689813 0.474692 0.985516 0.145129
H2    H     H_    0.731434 0.670579 0.627187 0.184306
H3    H     H_    0.594497 0.640856 0.074382 0.146521
H4    H     H_    0.749348 0.402703 0.431609 0.206041
H5    H     H_    0.586262 0.337405 0.069004 0.144667
H6    H     H_    0.401020 0.366090 0.924198 0.146750
H7    H     H_    0.409155 0.670160 0.929384 0.141017
H8    H     H_    0.747860 0.214618 0.461773 0.151064
H9    H     H_    0.702836 0.871460 0.381787 0.156846
H10   H     H_    0.775274 0.035562 0.415415 0.151039
H11   H     H_    0.050073 0.111634 0.529659 0.349594
H12   H     H_    0.458000 0.161744 0.543135 0.159905
H13   H     H_    0.241013 0.650878 0.709232 0.332966
H14   H     H_    0.005151 0.844078 0.756327 0.345748
H15   H     H_    0.055852 0.502715 0.968157 0.250972
H16   H     H_    0.058849 0.640380 0.965114 0.262490
H17   H     H_    0.019753 0.572412 0.864900 0.270319
H18   H     H_    0.210858 0.613155 0.885822 0.235543
H19   H     H_    0.207021 0.476288 0.886707 0.252241
H20   H     H_    0.257904 0.471932 0.050997 0.209487
H21   H     H_    0.260962 0.609148 0.050911 0.210836
H22   H     H_    0.244112 0.786583 0.507493 0.208229
H23   H     H_    0.316472 0.093462 0.495250 0.182718
H24   H     H_    0.567507 0.759785 0.388815 0.171742
H25   H     H_    0.259277 0.319380 0.376661 0.136438
H26   H     H_    0.886537 0.302958 0.371910 0.150070
H27   H     H_    0.073182 0.269813 0.350861 0.151612
H28   H     H_    0.174209 0.568649 0.527782 0.151139
N1    N     N_R   0.222180 0.444680 0.455580 -0.111303
N2    N     N_R   0.776980 0.554790 0.543960 -0.137835
O1    O     O_R   0.366730 0.627160 0.478790 -0.616129
O2    O     O_R   0.126637 0.093082 0.518759 -0.818187
O3    O     O_2   0.149497 0.500730 0.697793 -0.639513
O4    O     O_R   0.164417 0.667222 0.670402 -0.750246
O5    O     O_2   0.868855 0.734492 0.760239 -0.650297
O6    O     O_R   0.001369 0.794490 0.706170 -0.716063
O7    O     O_R   0.544830 0.662520 0.507160 -0.618756
O8    O     O_R   0.410960 0.482330 0.609040 -0.590845
O9    O     O_R   0.589060 0.517690 0.637410 -0.605531
O10   O     O_R   0.455170 0.337480 0.492840 -0.616058
O11   O     O_R   0.633270 0.372840 0.521210 -0.631380
O12   O     O_R   0.410940 0.482310 0.362590 -0.611338
O13   O     O_R   0.589040 0.517670 0.390960 -0.638459
O14   O     O_2   0.093125 0.928067 0.525297 -0.596702
Zn1   Zn    Zn3+2 0.381080 0.476390 0.481050 0.962495
Zn2   Zn    Zn3+2 0.618920 0.523610 0.518950 0.939636

loop_
_geom_bond_atom_site_label_1
_geom_bond_atom_site_label_2
_ccdc_geom_bond_type
C18   H27   S    
C27   C29   A    
C33   C45   S    
C41   C42   S    
C40   O6    S    
C19   C20   A    
C18   C26   A    
C43   H15   S    
C7    C8    A    
C4    O9    A    
C26   C27   A    
C8    C13   A    
O1    Zn1   S    
H13   O4    S    
C5    C6    A    
C20   C40   S    
C31   H25   S    
C4    O8    A    
C33   H1    S    
O9    Zn2   S    
C38   O14   D    
C12   C37   S    
C36   C47   T    
O11   Zn2   S    
C24   C29   A    
C30   N1    A    
C22   C25   A    
C27   H26   S    
C2    C16   S    
C9    C10   A    
C4    C35   S    
C45   H5    S    
C16   O11   A    
C21   C22   A    
C40   O5    D    
C15   C48   A    
C43   H16   S    
C31   N1    A    
C41   H20   S    
C1    O7    A    
C6    H23   S    
C16   O10   A    
C3    H22   S    
C5    C38   S    
C39   O3    D    
C12   C46   S    
C25   C26   A    
C23   C37   S    
C23   C44   S    
C32   C34   S    
C19   N2    A    
C9    C14   A    
C32   H3    S    
O8    Zn1   S    
C30   H28   S    
O7    Zn2   S    
C21   C39   S    
C43   H17   S    
C23   C34   S    
C34   C45   S    
C32   C37   S    
C2    C15   A    
C24   N2    A    
C10   C48   A    
C42   H19   S    
C1    O1    A    
C22   C24   A    
C42   C43   S    
C44   C45   S    
O12   Zn1   S    
C41   H21   S    
C25   C30   A    
C7    C9    A    
H14   O6    S    
O10   Zn1   S    
C39   O4    S    
C3    C5    A    
H11   O2    S    
C48   H10   S    
C6    C7    A    
C34   C47   S    
C13   H24   S    
C14   H12   S    
C1    C17   S    
C8    C17   A    
C23   C41   S    
C32   C33   S    
C12   C44   S    
C15   H8    S    
O13   Zn2   S    
C11   C13   A    
C19   H2    S    
C38   O2    S    
N2    Zn2   S    
N1    Zn1   S    
C3    C17   A    
C28   O13   A    
C2    C14   A    
C10   C11   A    
C37   H7    S    
C44   H6    S    
C20   C21   A    
C28   C36   S    
C42   H18   S    
C28   O12   A    
C18   C31   A    
C12   C33   S    
C11   H9    S    
C35   C46   T    
C29   H4    S    
