data_mof_unit_68295.cif
_audit_creation_date              2012-12-10T16:42:34-0500
_audit_creation_method            fapswitch 2.2
_symmetry_space_group_name_H-M    P1
_symmetry_Int_Tables_number       1
_space_group_crystal_system       triclinic
_cell_length_a                    7.526252
_cell_length_b                    8.702595
_cell_length_c                    11.088948
_cell_angle_alpha                 88.083195
_cell_angle_beta                  73.851145
_cell_angle_gamma                 101.399101
_cell_volume                      680.861412705

loop_
_atom_site_label
_atom_site_type_symbol
_atom_type_description
_atom_site_fract_x
_atom_site_fract_y
_atom_site_fract_z
_atom_type_partial_charge
C1    C     C_R   0.453802 0.201121 0.509636 0.879456
C2    C     C_2   0.565086 0.964085 0.464958 -0.250521
C3    C     C_2   0.300150 0.614684 0.130482 0.995939
C4    C     C_2   0.652535 0.710722 0.857107 0.939348
C5    C     C_2   0.760488 0.453081 0.043795 0.847259
C6    C     C_2   0.264166 0.322151 0.947482 0.937713
C7    C     C_2   0.296917 0.966091 0.661703 0.949078
C8    C     C_2   0.701501 0.035304 0.340693 0.908432
C9    C     C_2   0.923060 0.298588 0.566134 1.153429
C10   C     C_2   0.057339 0.706212 0.458773 1.161493
C11   C     C_R   0.545972 0.798842 0.491436 0.850058
C12   C     C_R   0.426593 0.489599 0.741289 0.827433
C13   C     C_R   0.573283 0.512238 0.257710 0.802726
C14   C     C_2   0.397114 0.469547 0.877073 -0.172477
C15   C     C_2   0.601119 0.516559 0.120571 -0.189393
C16   C     C_2   0.510199 0.571224 0.929329 -0.196358
C17   C     C_2   0.476113 0.563511 0.065729 -0.123112
C18   C     C_2   0.434797 0.036065 0.537372 -0.318317
Cu1   Cu    Cu3+1 0.688910 0.517800 0.485820 1.073757
Cu2   Cu    Cu3+1 0.311090 0.482200 0.514180 1.080471
H1    H     H_    0.139418 0.774364 0.125983 0.375832
H2    H     H_    0.858075 0.588174 0.799524 0.334099
H3    H     H_    0.844546 0.306877 0.912482 0.385814
H4    H     H_    0.175403 0.163755 0.100764 0.372419
H5    H     H_    0.055173 0.973676 0.795810 0.391825
H6    H     H_    0.757590 0.178543 0.182407 0.359045
H7    H     H_    0.729623 0.138102 0.697033 0.351641
H8    H     H_    0.223146 0.902785 0.353493 0.343778
N1    N     N_2   0.027170 0.455360 0.535550 -0.256526
N2    N     N_2   0.972830 0.544640 0.464450 -0.222373
O1    O     O_R   0.622710 0.286400 0.490790 -0.599998
O2    O     O_R   0.273519 0.759685 0.088814 -0.686975
O3    O     O_2   0.609553 0.838618 0.855383 -0.482570
O4    O     O_R   0.837981 0.699617 0.796472 -0.688509
O5    O     O_2   0.920062 0.497934 0.052902 -0.567591
O6    O     O_R   0.725739 0.339498 0.962171 -0.711854
O7    O     O_2   0.154421 0.244511 0.898300 -0.604028
O8    O     O_R   0.270813 0.265967 0.065472 -0.678676
O9    O     O_2   0.328513 0.862410 0.724789 -0.543697
O10   O     O_R   0.133886 0.025248 0.709064 -0.668304
O11   O     O_2   0.851547 0.993300 0.301996 -0.557237
O12   O     O_R   0.377290 0.713600 0.509210 -0.607125
O13   O     O_R   0.654752 0.143391 0.265101 -0.740942
O14   O     O_2   0.953922 0.200992 0.490679 -0.543028
O15   O     O_R   0.792689 0.254051 0.685167 -0.763111
O16   O     O_2   0.017439 0.777202 0.552195 -0.536546
O17   O     O_R   0.177613 0.786805 0.345912 -0.775614
O18   O     O_R   0.303660 0.256330 0.514730 -0.537231
O19   O     O_R   0.696340 0.743670 0.485270 -0.558965
O20   O     O_R   0.600900 0.509520 0.671740 -0.594188
O21   O     O_R   0.399100 0.490480 0.328260 -0.559117
O22   O     O_R   0.281840 0.479450 0.695690 -0.551027
O23   O     O_R   0.718160 0.520550 0.304310 -0.538494
O24   O     O_2   0.169139 0.522635 0.205438 -0.497139

loop_
_geom_bond_atom_site_label_1
_geom_bond_atom_site_label_2
_ccdc_geom_bond_type
C4    C16   S    
C12   O20   A    
C7    O10   S    
C6    O8    S    
C1    O18   A    
C9    O15   S    
N1    N2    D    
C11   O19   A    
C2    C18   D    
Cu1   O19   S    
Cu2   O12   S    
Cu1   Cu2   S    
C8    O13   S    
C9    N1    S    
C7    C18   S    
Cu1   O1    S    
H7    O15   S    
C6    O7    D    
Cu2   O22   S    
Cu1   O20   S    
Cu1   O23   S    
C1    C18   S    
Cu2   O18   S    
C2    C11   S    
C5    O5    D    
H8    O17   S    
H1    O2    S    
C12   C14   S    
H6    O13   S    
C3    C17   S    
Cu2   O21   S    
C14   C16   D    
Cu2   N1    S    
C13   C15   S    
H5    O10   S    
C3    O2    S    
H2    O4    S    
C3    O24   D    
C4    O4    S    
C5    C15   S    
C6    C14   S    
C13   O23   A    
H4    O8    S    
C5    O6    S    
C10   O16   D    
C1    O1    A    
C8    O11   D    
C11   O12   A    
H3    O6    S    
C10   O17   S    
C15   C17   D    
C10   N2    S    
C4    O3    D    
C9    O14   D    
C7    O9    D    
C12   O22   A    
C13   O21   A    
Cu1   N2    S    
C2    C8    S    
C16   C17   S    
