data_mof_unit_64156.cif
_audit_creation_date              2012-12-10T19:55:58-0500
_audit_creation_method            fapswitch 2.2
_symmetry_space_group_name_H-M    P1
_symmetry_Int_Tables_number       1
_space_group_crystal_system       monoclinic
_cell_length_a                    18.274217
_cell_length_b                    18.274217
_cell_length_c                    35.639138
_cell_angle_alpha                 90.0
_cell_angle_beta                  90.0
_cell_angle_gamma                 89.999857
_cell_volume                      11901.5834658

loop_
_atom_site_label
_atom_site_type_symbol
_atom_type_description
_atom_site_fract_x
_atom_site_fract_y
_atom_site_fract_z
_atom_type_partial_charge
C1    C     C_R   0.500000 0.141149 0.500000 0.941051
C2    C     C_1   0.717733 0.500000 0.500000 -0.176799
C3    C     C_1   0.136261 0.500444 0.192739 0.173785
C4    C     C_1   0.499692 0.863738 0.807261 0.173784
C5    C     C_1   0.863739 0.500248 0.807261 0.173785
C6    C     C_1   0.500308 0.136261 0.807261 0.173784
C7    C     C_1   0.136261 0.499752 0.807261 0.173785
C8    C     C_1   0.999716 0.636261 0.692739 0.173784
C9    C     C_1   0.363739 0.999714 0.692739 0.173785
C10   C     C_1   0.000283 0.363739 0.692739 0.173785
C11   C     C_1   0.636261 0.000286 0.692739 0.173785
C12   C     C_1   0.999597 0.363739 0.307261 0.173784
C13   C     C_1   0.500000 0.717733 0.500000 -0.176799
C14   C     C_1   0.363739 0.000302 0.307261 0.173785
C15   C     C_1   0.000403 0.636262 0.307261 0.173784
C16   C     C_1   0.636261 0.999698 0.307261 0.173785
C17   C     C_1   0.282267 0.500000 0.500000 -0.176799
C18   C     C_1   1.000000 0.782267 0.000000 -0.176799
C19   C     C_1   0.217733 0.000000 1.000000 -0.176799
C20   C     C_1   0.000000 0.217733 1.000000 -0.176799
C21   C     C_1   0.782267 1.000000 0.000000 -0.176799
C22   C     C_1   0.500000 0.217539 0.500000 -0.186432
C23   C     C_1   0.782461 0.500000 0.500000 -0.186432
C24   C     C_1   0.500000 0.782461 0.500000 -0.186432
C25   C     C_R   0.858851 0.500000 0.500000 0.941051
C26   C     C_1   0.217539 0.500000 0.500000 -0.186432
C27   C     C_1   1.000000 0.717539 0.000000 -0.186432
C28   C     C_1   0.282461 0.000000 1.000000 -0.186432
C29   C     C_1   0.000000 0.282461 1.000000 -0.186432
C30   C     C_1   0.717539 1.000000 0.000000 -0.186432
C31   C     C_R   0.500000 0.000000 0.426661 0.886972
C32   C     C_R   1.000000 0.500000 0.426661 0.886972
C33   C     C_R   0.500000 0.000000 0.573338 0.886973
C34   C     C_R   1.000000 0.500000 0.573338 0.886973
C35   C     C_R   1.000000 0.500000 0.926661 0.886972
C36   C     C_R   0.500000 0.858851 0.500000 0.941051
C37   C     C_R   0.500000 0.000000 0.926661 0.886972
C38   C     C_R   1.000000 0.500000 0.073338 0.886973
C39   C     C_R   0.500000 0.000000 0.073338 0.886973
C40   C     C_R   0.499870 0.066772 0.173361 0.017033
C41   C     C_R   0.933228 0.499784 0.173361 0.017033
C42   C     C_R   0.500130 0.933228 0.173361 0.017033
C43   C     C_R   0.066772 0.500216 0.173361 0.017033
C44   C     C_R   0.499850 0.933228 0.826639 0.017033
C45   C     C_R   0.933228 0.500121 0.826639 0.017033
C46   C     C_R   0.500150 0.066772 0.826639 0.017033
C47   C     C_R   0.141149 0.500000 0.500000 0.941051
C48   C     C_R   0.066772 0.499878 0.826639 0.017034
C49   C     C_R   0.999861 0.566772 0.673361 0.017033
C50   C     C_R   0.433228 0.999860 0.673361 0.017033
C51   C     C_R   0.000138 0.433228 0.673361 0.017033
C52   C     C_R   0.566772 0.000140 0.673361 0.017033
C53   C     C_R   0.999804 0.433228 0.326639 0.017032
C54   C     C_R   0.433228 0.000148 0.326639 0.017033
C55   C     C_R   0.000196 0.566772 0.326639 0.017033
C56   C     C_R   0.566772 0.999852 0.326639 0.017034
C57   C     C_R   0.499871 0.066393 0.134239 -0.228569
C58   C     C_R   1.000000 0.641149 1.000000 0.941051
C59   C     C_R   0.933607 0.499788 0.134239 -0.228569
C60   C     C_R   0.500128 0.933607 0.134239 -0.228569
C61   C     C_R   0.066392 0.500212 0.134239 -0.228569
C62   C     C_R   0.499852 0.933607 0.865761 -0.228569
C63   C     C_R   0.933607 0.500120 0.865761 -0.228569
C64   C     C_R   0.500148 0.066393 0.865761 -0.228569
C65   C     C_R   0.066393 0.499879 0.865761 -0.228570
C66   C     C_R   0.999863 0.566393 0.634239 -0.228569
C67   C     C_R   0.433607 0.999862 0.634239 -0.228569
C68   C     C_R   0.000137 0.433607 0.634239 -0.228569
C69   C     C_R   0.358851 0.000000 0.000000 0.941051
C70   C     C_R   0.566393 0.000138 0.634239 -0.228569
C71   C     C_R   0.999807 0.433607 0.365761 -0.228569
C72   C     C_R   0.433607 0.000146 0.365761 -0.228570
C73   C     C_R   0.000193 0.566393 0.365761 -0.228569
C74   C     C_R   0.566392 0.999854 0.365761 -0.228570
C75   C     C_R   0.500000 0.000000 0.114487 -0.072953
C76   C     C_R   1.000000 0.500000 0.114487 -0.072953
C77   C     C_R   0.500000 0.000000 0.885512 -0.072953
C78   C     C_R   1.000000 0.500000 0.885512 -0.072954
C79   C     C_R   1.000000 0.500000 0.614487 -0.072953
C80   C     C_R   1.000000 0.358851 1.000000 0.941051
C81   C     C_R   0.500000 0.000000 0.614487 -0.072953
C82   C     C_R   1.000000 0.500000 0.385512 -0.072953
C83   C     C_R   0.500000 0.000000 0.385512 -0.072954
C84   C     C_R   0.358661 0.500000 0.500000 0.928471
C85   C     C_R   0.500000 0.358661 0.500000 0.928471
C86   C     C_R   0.641339 0.500000 0.500000 0.928471
C87   C     C_R   0.500000 0.641339 0.500000 0.928471
C88   C     C_R   0.858661 1.000000 0.000000 0.928471
C89   C     C_R   1.000000 0.858661 0.000000 0.928471
C90   C     C_R   0.141339 0.000000 1.000000 0.928471
C91   C     C_R   0.641149 1.000000 0.000000 0.941051
C92   C     C_R   1.000000 0.141339 1.000000 0.928471
C93   C     C_R   0.500000 0.000000 0.193039 0.046781
C94   C     C_R   1.000000 0.500000 0.193039 0.046781
C95   C     C_R   0.500000 1.000000 0.806961 0.046781
C96   C     C_R   1.000000 0.500000 0.806961 0.046780
C97   C     C_R   1.000000 0.500000 0.693039 0.046781
C98   C     C_R   0.500000 1.000000 0.693039 0.046781
C99   C     C_R   1.000000 0.500000 0.306961 0.046781
C100  C     C_R   0.500000 0.000000 0.306961 0.046780
C101  C     C_1   0.500000 0.000000 0.233226 -0.017497
C102  C     C_1   0.500000 0.282267 0.500000 -0.176799
C103  C     C_1   1.000000 0.500000 0.233226 -0.017498
C104  C     C_1   0.500000 1.000000 0.766774 -0.017498
C105  C     C_1   1.000000 0.500000 0.766774 -0.017498
C106  C     C_1   1.000000 0.500000 0.733226 -0.017497
C107  C     C_1   0.500000 1.000000 0.733226 -0.017498
C108  C     C_1   1.000000 0.500000 0.266774 -0.017498
C109  C     C_1   0.500000 0.000000 0.266774 -0.017498
C110  C     C_1   0.499735 0.136262 0.192739 0.173785
C111  C     C_1   0.863739 0.499556 0.192739 0.173784
C112  C     C_1   0.500265 0.863738 0.192739 0.173784
H1    H     H_    0.499771 0.118015 0.119238 0.168295
H2    H     H_    0.381985 0.999753 0.619238 0.168295
H3    H     H_    0.000244 0.381985 0.619238 0.168295
H4    H     H_    0.618015 0.000247 0.619238 0.168295
H5    H     H_    0.999654 0.381985 0.380761 0.168295
H6    H     H_    0.381985 0.000260 0.380761 0.168295
H7    H     H_    0.000345 0.618015 0.380761 0.168295
H8    H     H_    0.618014 0.999740 0.380761 0.168295
H9    H     H_    0.881985 0.499620 0.119238 0.168295
H10   H     H_    0.500229 0.881985 0.119238 0.168295
H11   H     H_    0.118015 0.500380 0.119238 0.168295
H12   H     H_    0.499735 0.881985 0.880761 0.168295
H13   H     H_    0.881985 0.500214 0.880761 0.168295
H14   H     H_    0.500265 0.118015 0.880761 0.168295
H15   H     H_    0.118014 0.499786 0.880761 0.168295
H16   H     H_    0.999756 0.618015 0.619238 0.168295
N1    N     N_1   0.499626 0.191876 0.208270 -0.180769
N2    N     N_1   0.308125 0.999596 0.708270 -0.180769
N3    N     N_1   0.000400 0.308124 0.708270 -0.180769
N4    N     N_1   0.691875 0.000403 0.708270 -0.180769
N5    N     N_1   0.999430 0.308124 0.291730 -0.180769
N6    N     N_1   0.308125 0.000426 0.291730 -0.180770
N7    N     N_1   0.000569 0.691876 0.291730 -0.180769
N8    N     N_1   0.691875 0.999574 0.291730 -0.180770
N9    N     N_1   0.808125 0.499373 0.208270 -0.180769
N10   N     N_1   0.500374 0.808124 0.208270 -0.180769
N11   N     N_1   0.191875 0.500627 0.208270 -0.180769
N12   N     N_1   0.499566 0.808124 0.791730 -0.180769
N13   N     N_1   0.808125 0.500350 0.791730 -0.180770
N14   N     N_1   0.500434 0.191876 0.791730 -0.180769
N15   N     N_1   0.191875 0.499650 0.791730 -0.180770
N16   N     N_1   0.999600 0.691875 0.708270 -0.180769
O1    O     O_R   0.560470 0.107230 0.500140 -0.616609
O2    O     O_R   0.392770 0.060470 0.000140 -0.616607
O3    O     O_R   0.939530 0.392770 0.000140 -0.616614
O4    O     O_R   0.607230 0.939530 0.000140 -0.616607
O5    O     O_R   0.060470 0.392770 0.999860 -0.616604
O6    O     O_R   0.392770 0.939530 0.999860 -0.616610
O7    O     O_R   0.939530 0.607230 0.999860 -0.616604
O8    O     O_R   0.607230 0.060470 0.999860 -0.616610
O9    O     O_R   0.560470 0.999900 0.444700 -0.624481
O10   O     O_R   0.000100 0.560470 0.444700 -0.624481
O11   O     O_R   0.439530 0.000100 0.444700 -0.624480
O12   O     O_R   0.892770 0.560470 0.500140 -0.616606
O13   O     O_R   0.999900 0.439530 0.444700 -0.624480
O14   O     O_R   0.560470 0.000100 0.555300 -0.624482
O15   O     O_R   0.000100 0.439530 0.555300 -0.624482
O16   O     O_R   0.439530 0.999900 0.555300 -0.624482
O17   O     O_R   0.999900 0.560470 0.555300 -0.624482
O18   O     O_R   0.060470 0.499900 0.944700 -0.624481
O19   O     O_R   0.500100 0.060470 0.944700 -0.624481
O20   O     O_R   0.939530 0.500100 0.944700 -0.624480
O21   O     O_R   0.499900 0.939530 0.944700 -0.624480
O22   O     O_R   0.060470 0.500100 0.055300 -0.624482
O23   O     O_R   0.439530 0.892770 0.500140 -0.616608
O24   O     O_R   0.500100 0.939530 0.055300 -0.624482
O25   O     O_R   0.939530 0.499900 0.055300 -0.624482
O26   O     O_R   0.499900 0.060470 0.055300 -0.624482
O27   O     O_R   0.392480 0.499860 0.468850 -0.618299
O28   O     O_R   0.500140 0.392480 0.468850 -0.618299
O29   O     O_R   0.607520 0.500140 0.468850 -0.618299
O30   O     O_R   0.499860 0.607520 0.468850 -0.618299
O31   O     O_R   0.392480 0.500140 0.531150 -0.618299
O32   O     O_R   0.500140 0.607520 0.531150 -0.618299
O33   O     O_R   0.607520 0.499860 0.531150 -0.618299
O34   O     O_R   0.107230 0.439530 0.500140 -0.616606
O35   O     O_R   0.499860 0.392480 0.531150 -0.618299
O36   O     O_R   0.892480 0.999860 0.968850 -0.618299
O37   O     O_R   0.000140 0.892480 0.968850 -0.618299
O38   O     O_R   0.107520 0.000140 0.968850 -0.618299
O39   O     O_R   0.999860 0.107520 0.968850 -0.618299
O40   O     O_R   0.892480 0.000140 0.031150 -0.618299
O41   O     O_R   0.000140 0.107520 0.031150 -0.618299
O42   O     O_R   0.107520 0.999860 0.031150 -0.618299
O43   O     O_R   0.999860 0.892480 0.031150 -0.618299
O44   O     O_R   0.560470 0.892770 0.499860 -0.616609
O45   O     O_R   0.892770 0.439530 0.499860 -0.616612
O46   O     O_R   0.439530 0.107230 0.499860 -0.616609
O47   O     O_R   0.107230 0.560470 0.499860 -0.616612
O48   O     O_R   0.060470 0.607230 0.000140 -0.616614
Zn1   Zn    Zn3+2 0.580800 0.000000 0.500000 0.974257
Zn2   Zn    Zn3+2 0.500000 0.500000 0.541650 0.990759
Zn3   Zn    Zn3+2 1.000000 0.000000 0.958350 0.990759
Zn4   Zn    Zn3+2 0.000000 0.000000 0.041650 0.990759
Zn5   Zn    Zn3+2 1.000000 0.580800 0.500000 0.974257
Zn6   Zn    Zn3+2 0.419200 0.000000 0.500000 0.974257
Zn7   Zn    Zn3+2 1.000000 0.419200 0.500000 0.974257
Zn8   Zn    Zn3+2 0.080800 0.500000 0.000000 0.974257
Zn9   Zn    Zn3+2 0.500000 0.080800 0.000000 0.974257
Zn10  Zn    Zn3+2 0.919200 0.500000 0.000000 0.974257
Zn11  Zn    Zn3+2 0.500000 0.919200 0.000000 0.974257
Zn12  Zn    Zn3+2 0.500000 0.500000 0.458350 0.990759

loop_
_geom_bond_atom_site_label_1
_geom_bond_atom_site_label_2
_ccdc_geom_bond_type
C37   O21   A    
C59   H9    S    
C96   C105  S    
C51   C97   A    
C73   H7    S    
O43   Zn4   S    
C42   C93   A    
C64   C77   A    
C62   C77   A    
C1    O1    A    
O12   Zn5   S    
C40   C93   A    
O34   Zn7   S    
C84   O27   A    
C11   N4    T    
C62   H12   S    
C38   C76   S    
C9    N2    T    
C53   C99   A    
C87   O32   A    
C20   C92   S    
C43   C61   A    
C24   C36   S    
O29   Zn12  S    
C17   C26   T    
C65   H15   S    
O42   Zn4   S    
C67   H2    S    
C39   O26   A    
C91   O8    A    
C88   O40   A    
C15   N7    T    
C101  C109  T    
O18   Zn8   S    
C33   O14   A    
O27   Zn12  S    
C43   C94   A    
C31   C83   S    
C110  N1    T    
C85   O28   A    
C39   O24   A    
O28   Zn12  S    
C70   C81   A    
C42   C112  S    
C10   N3    T    
C72   H6    S    
O26   Zn9   S    
C11   C52   S    
O32   Zn2   S    
O25   Zn10  S    
C80   O3    A    
C46   C95   A    
C90   O38   A    
C66   H16   S    
O39   Zn3   S    
C103  C108  T    
C65   C78   A    
C39   C75   S    
C48   C65   A    
C6    N14   T    
C84   O31   A    
C48   C96   A    
C50   C67   A    
C74   C83   A    
O31   Zn2   S    
O1    Zn1   S    
C12   C53   S    
C33   O16   A    
C37   O19   A    
C71   C82   A    
C1    O46   A    
C34   O17   A    
C68   C79   A    
O15   Zn7   S    
C21   C88   S    
C100  C109  S    
C25   O12   A    
C69   O2    A    
C89   O43   A    
C54   C100  A    
O6    Zn11  S    
C10   C51   S    
C7    N15   T    
C91   O4    A    
C31   O9    A    
C88   O36   A    
C20   C29   T    
C61   C76   A    
C80   O5    A    
C50   C98   A    
C35   O18   A    
C56   C74   A    
C49   C66   A    
C71   H5    S    
O14   Zn1   S    
C112  N10   T    
C41   C59   A    
O33   Zn2   S    
C93   C101  S    
O10   Zn5   S    
C92   O41   A    
O48   Zn8   S    
C40   C110  S    
C4    C44   S    
C70   H4    S    
O40   Zn4   S    
C5    C45   S    
C92   O39   A    
C86   O33   A    
C98   C107  S    
C13   C24   T    
C46   C64   A    
C36   O44   A    
C15   C55   S    
C16   C56   S    
C95   C104  S    
C66   C79   A    
C34   C79   S    
C4    N12   T    
C9    C50   S    
C5    N13   T    
C41   C94   A    
C85   O35   A    
C3    C43   S    
C13   C87   S    
C28   C69   S    
O30   Zn12  S    
O9    Zn1   S    
C8    N16   T    
C57   H1    S    
C60   H10   S    
C19   C28   T    
O36   Zn3   S    
C63   H13   S    
O11   Zn6   S    
O20   Zn10  S    
C26   C47   S    
C32   O10   A    
C97   C106  S    
C14   C54   S    
C99   C108  S    
C94   C103  S    
C67   C81   A    
C64   H14   S    
C12   N5    T    
C58   O48   A    
O8    Zn9   S    
C3    N11   T    
C68   H3    S    
C56   C100  A    
O41   Zn4   S    
C42   C60   A    
C16   N8    T    
C73   C82   A    
C32   C82   S    
C58   O7    A    
O46   Zn6   S    
C38   O25   A    
C32   O13   A    
C21   C30   T    
C38   O22   A    
C87   O30   A    
C69   O6    A    
O19   Zn9   S    
C40   C57   A    
C6    C46   S    
C18   C89   S    
O3    Zn10  S    
C18   C27   T    
O47   Zn5   S    
C30   C91   S    
C27   C58   S    
O45   Zn7   S    
C36   O23   A    
C31   O11   A    
O2    Zn9   S    
C14   N6    T    
C105  C106  T    
C35   C78   S    
C35   O20   A    
C22   C102  T    
O24   Zn11  S    
O17   Zn5   S    
C61   H11   S    
C17   C84   S    
C44   C62   A    
C7    C48   S    
C86   O29   A    
O21   Zn11  S    
C19   C90   S    
C25   O45   A    
C34   O15   A    
C57   C75   A    
C29   C80   S    
C37   C77   S    
C111  N9    T    
O16   Zn6   S    
C59   C76   A    
C52   C98   A    
C47   O34   A    
O23   Zn6   S    
C45   C63   A    
C2    C86   S    
C51   C68   A    
C23   C25   S    
C47   O47   A    
O37   Zn3   S    
O22   Zn8   S    
C90   O42   A    
C60   C75   A    
C52   C70   A    
O5    Zn8   S    
C72   C83   A    
C49   C97   A    
C74   H8    S    
C55   C73   A    
C1    C22   S    
C54   C72   A    
O44   Zn1   S    
C41   C111  S    
C55   C99   A    
C2    C23   T    
C44   C95   A    
O38   Zn3   S    
O7    Zn10  S    
O13   Zn7   S    
C45   C96   A    
C33   C81   S    
C8    C49   S    
C63   C78   A    
C104  C107  T    
C85   C102  S    
O4    Zn11  S    
C89   O37   A    
O35   Zn2   S    
C53   C71   A    
