data_mof_unit_37788.cif
_audit_creation_date              2012-12-10T17:43:37-0500
_audit_creation_method            fapswitch 2.2
_symmetry_space_group_name_H-M    P1
_symmetry_Int_Tables_number       1
_space_group_crystal_system       triclinic
_cell_length_a                    14.957732
_cell_length_b                    10.804774
_cell_length_c                    10.008253
_cell_angle_alpha                 87.691207
_cell_angle_beta                  88.414518
_cell_angle_gamma                 89.157373
_cell_volume                      1615.40159243

loop_
_atom_site_label
_atom_site_type_symbol
_atom_type_description
_atom_site_fract_x
_atom_site_fract_y
_atom_site_fract_z
_atom_type_partial_charge
C1    C     C_R   0.493101 0.261106 0.504573 0.912237
C2    C     C_R   0.906282 0.573610 0.405280 0.093094
C3    C     C_R   0.950205 0.332991 0.673424 -0.199895
C4    C     C_R   0.043345 0.333864 0.678008 -0.035067
C5    C     C_R   0.091754 0.415430 0.588545 0.035382
C6    C     C_R   0.045759 0.494558 0.496179 0.008452
C7    C     C_R   0.092586 0.574572 0.403637 0.051910
C8    C     C_R   0.044965 0.652575 0.313835 -0.058861
C9    C     C_R   0.952578 0.652430 0.315356 -0.164885
C10   C     C_R   0.184679 0.418502 0.586141 -0.194534
C11   C     C_R   0.230779 0.498321 0.497462 -0.071389
C12   C     C_R   0.327070 0.496687 0.500396 1.009812
C13   C     C_R   0.185753 0.574945 0.402881 0.410672
C14   C     C_R   0.382699 0.105530 0.723953 0.411907
C15   C     C_R   0.333780 0.025234 0.809668 -0.176056
C16   C     C_R   0.320045 0.905577 0.775613 -0.225302
C17   C     C_R   0.359583 0.863405 0.659547 0.399520
C18   C     C_R   0.427476 0.930759 0.589292 -0.053429
C19   C     C_R   0.433979 0.059048 0.610952 -0.021084
C20   C     C_R   0.488888 0.128457 0.515453 -0.120769
C21   C     C_R   0.544116 0.069643 0.422115 -0.250293
C22   C     C_R   0.545498 0.943645 0.414423 0.373683
C23   C     C_R   0.496719 0.739840 0.498024 0.995366
C24   C     C_R   0.486609 0.873362 0.495732 -0.146779
C25   C     C_R   0.350308 0.404157 0.134550 -0.075011
C26   C     C_R   0.265294 0.433216 0.081599 0.366284
C27   C     C_R   0.260028 0.511607 0.965230 -0.073379
C28   C     C_R   0.339083 0.533808 0.889119 -0.189938
C29   C     C_R   0.421932 0.490089 0.934565 0.171151
C30   C     C_R   0.426404 0.460487 0.073340 -0.001217
C31   C     C_R   0.571119 0.540896 0.066807 0.400614
C32   C     C_R   0.573288 0.534318 0.924441 -0.113534
C33   C     C_R   0.672572 0.498436 0.498638 0.907517
C34   C     C_R   0.813949 0.574413 0.407147 -0.162404
C35   C     C_R   0.767818 0.494960 0.496023 -0.074046
C36   C     C_R   0.812286 0.413979 0.584291 -0.223932
C37   C     C_R   0.904988 0.412789 0.584670 0.092049
C38   C     C_R   0.952515 0.493447 0.495347 0.090476
H1    H     H_    0.777949 0.639039 0.342241 0.224707
H2    H     H_    0.297646 0.059019 0.896643 0.219666
H3    H     H_    0.270434 0.850783 0.831206 0.205049
H4    H     H_    0.337351 0.597826 0.804408 0.233772
H5    H     H_    0.774529 0.352541 0.652446 0.181079
H6    H     H_    0.912490 0.271566 0.741615 0.193830
H7    H     H_    0.222741 0.357038 0.650333 0.222830
H8    H     H_    0.077940 0.715039 0.241910 0.216668
H9    H     H_    0.917293 0.713839 0.245832 0.187706
H10   H     H_    0.589150 0.122637 0.355744 0.213004
N1    N     N_R   0.499150 0.498800 0.142780 -0.141953
N2    N     N_R   0.499120 0.498720 0.857170 -0.147031
O1    O     O_R   0.500000 0.316780 0.614690 -0.569056
O2    O     O_R   0.499990 0.316750 0.385360 -0.628552
O3    O     O_R   0.367850 0.499980 0.614680 -0.595087
O4    O     O_R   0.367840 0.499960 0.385350 -0.608324
O5    O     O_R   0.500010 0.683250 0.614640 -0.606369
O6    O     O_R   0.500000 0.683220 0.385310 -0.536522
O7    O     O_R   0.632160 0.500040 0.614650 -0.632135
O8    O     O_R   0.632150 0.500020 0.385320 -0.562771
Zn1   Zn    Zn3+2 0.500010 0.500020 0.653130 1.040204
Zn2   Zn    Zn3+2 0.499990 0.499980 0.346870 1.079187
Cl1   Cl    Cl    0.365786 0.257247 0.772772 -0.610466
Cl2   Cl    Cl    0.295965 0.759807 0.578323 -0.603358
Cl3   Cl    Cl    0.626724 0.878638 0.306291 -0.523926
Cl4   Cl    Cl    0.657874 0.618212 0.141492 -0.508511
C39   C     C_2   0.362040 0.286649 0.213331 1.027492
O9    O     O_2   0.313626 0.261611 0.310869 -0.605429
O10   O     O_R   0.426296 0.200676 0.170336 -0.770150
H11   H     H_    0.423173 0.119213 0.223904 0.355568
Cl5   Cl    Cl    0.167701 0.364258 0.153970 -0.485230
C40   C     C_2   0.174306 0.568366 0.919010 1.006675
O11   O     O_2   0.108337 0.571145 0.993743 -0.564753
O12   O     O_R   0.169607 0.622764 0.790310 -0.797290
H12   H     H_    0.108118 0.658436 0.770329 0.356865
C41   C     C_2   0.650783 0.588965 0.851686 1.061523
O13   O     O_2   0.642093 0.686777 0.787360 -0.584267
O14   O     O_R   0.735094 0.532693 0.863488 -0.774546
H13   H     H_    0.783606 0.580797 0.812324 0.350337
C42   C     C_2   0.085956 0.247899 0.777674 0.956735
O15   O     O_2   0.145996 0.283069 0.846589 -0.589199
O16   O     O_R   0.054018 0.127345 0.796941 -0.771393
H14   H     H_    0.087572 0.077597 0.868052 0.360676
Cl6   Cl    Cl    0.245255 0.674084 0.285655 -0.575577

loop_
_geom_bond_atom_site_label_1
_geom_bond_atom_site_label_2
_ccdc_geom_bond_type
C33   O8    A    
O5    Zn1   S    
C19   C20   A    
O3    Zn1   S    
C7    C8    A    
O4    Zn2   S    
C26   C27   A    
C37   C38   A    
N1    Zn2   S    
C41   O14   S    
C18   C24   A    
N2    Zn1   S    
C28   C29   A    
C18   C19   A    
C32   C41   S    
C5    C6    A    
C42   O16   S    
O7    Zn1   S    
O8    Zn2   S    
C15   C16   A    
C34   C35   A    
O2    Zn2   S    
C22   Cl3   S    
C35   C36   A    
C8    C9    A    
C39   O10   S    
C23   C24   S    
C6    C38   A    
C40   O11   D    
C12   O3    A    
O12   H12   S    
C21   H10   S    
C2    C34   A    
C21   C22   A    
C31   N1    A    
C14   C19   A    
C29   N2    A    
C3    H6    S    
C41   O13   D    
C34   H1    S    
C23   O6    A    
C25   C39   S    
O14   H13   S    
C42   O15   D    
O16   H14   S    
C25   C26   A    
C14   Cl1   S    
C13   Cl6   S    
O10   H11   S    
C4    C42   S    
C29   C30   A    
C17   Cl2   S    
C2    C38   A    
C31   C32   A    
C10   H7    S    
C17   C18   A    
C1    O1    A    
C32   N2    A    
C27   C40   S    
C30   N1    A    
C9    H9    S    
C22   C24   A    
O1    Zn1   S    
C3    C4    A    
C25   C30   A    
C36   C37   A    
C1    C20   S    
C33   O7    A    
C31   Cl4   S    
C4    C5    A    
C11   C12   S    
C23   O5    A    
C6    C7    A    
C5    C10   A    
C11   C13   A    
C16   C17   A    
C28   H4    S    
C33   C35   S    
C1    O2    A    
C8    H8    S    
C15   H2    S    
C10   C11   A    
O6    Zn2   S    
C7    C13   A    
C20   C21   A    
C3    C37   A    
C39   O9    D    
C27   C28   A    
C26   Cl5   S    
C14   C15   A    
C36   H5    S    
C40   O12   S    
C2    C9    A    
C16   H3    S    
C12   O4    A    
