data_mof_unit_7722.cif
_audit_creation_date              2012-12-10T20:33:31-0500
_audit_creation_method            fapswitch 2.2
_symmetry_space_group_name_H-M    P1
_symmetry_Int_Tables_number       1
_space_group_crystal_system       triclinic
_cell_length_a                    14.138127
_cell_length_b                    10.61407
_cell_length_c                    9.950348
_cell_angle_alpha                 89.919914
_cell_angle_beta                  89.70305
_cell_angle_gamma                 91.075127
_cell_volume                      1492.89517383

loop_
_atom_site_label
_atom_site_type_symbol
_atom_type_description
_atom_site_fract_x
_atom_site_fract_y
_atom_site_fract_z
_atom_type_partial_charge
C1    C     C_R   0.498784 0.260757 0.499860 0.993871
C2    C     C_1   0.772118 0.499835 0.499109 -0.157877
C3    C     C_R   0.571309 0.066674 0.444677 -0.058157
C4    C     C_R   0.494311 0.128791 0.497142 -0.136284
C5    C     C_R   0.410907 0.064134 0.535218 0.413982
C6    C     C_R   0.409589 0.931301 0.530936 0.080977
C7    C     C_R   0.494851 0.871049 0.498070 -0.131030
C8    C     C_R   0.572259 0.938022 0.447458 -0.150876
C9    C     C_3   0.675195 0.935340 0.486484 0.486341
C10   C     C_3   0.674090 0.080055 0.479986 0.686329
C11   C     C_R   0.427719 0.443943 0.071554 0.027945
C12   C     C_R   0.329362 0.499401 0.500322 0.885445
C13   C     C_R   0.568722 0.563480 0.070690 0.161503
C14   C     C_R   0.568155 0.564142 0.927364 0.445340
C15   C     C_R   0.426807 0.445619 0.929608 0.020149
C16   C     C_3   0.392419 0.311704 0.920575 -0.111951
C17   C     C_3   0.397084 0.307529 0.075410 0.525026
C18   C     C_R   0.500636 0.739268 0.499847 0.944808
C19   C     C_R   0.670630 0.500087 0.499674 0.888879
C20   C     C_1   0.227859 0.499125 0.500830 -0.191270
C21   C     C_1   0.142565 0.499056 0.500700 0.002538
C22   C     C_1   0.042633 0.499157 0.500139 0.021036
C23   C     C_1   0.957332 0.499344 0.499586 0.026917
C24   C     C_1   0.857406 0.499613 0.499119 0.020449
H1    H     H_    0.444364 0.249907 0.869992 0.198766
N1    N     N_R   0.499420 0.499140 0.142800 -0.128693
N2    N     N_R   0.499420 0.499180 0.857150 -0.168575
O1    O     O_R   0.500010 0.316790 0.614690 -0.590679
O2    O     O_R   0.500000 0.316760 0.385350 -0.578102
O3    O     O_R   0.373720 0.500020 0.614700 -0.592821
O4    O     O_R   0.373710 0.499980 0.385350 -0.599458
O5    O     O_R   0.500000 0.683240 0.614650 -0.637533
O6    O     O_R   0.499990 0.683210 0.385310 -0.619057
O7    O     O_R   0.626290 0.500020 0.614650 -0.566567
O8    O     O_R   0.626280 0.499980 0.385300 -0.626823
Zn1   Zn    Zn3+2 0.500010 0.500020 0.653130 0.976618
Zn2   Zn    Zn3+2 0.499990 0.499980 0.346870 0.956825
O9    O     O_3   0.334428 0.133037 0.577410 -0.804266
H2    H     H_    0.298641 0.083384 0.645534 0.342664
C25   C     C_3   0.304135 0.285664 0.153161 -0.692785
H3    H     H_    0.318188 0.286675 0.262792 0.256310
H4    H     H_    0.252039 0.359875 0.131292 0.186974
H5    H     H_    0.273138 0.192013 0.127250 0.225639
O10   O     O_3   0.467962 0.227061 0.122549 -0.719907
H6    H     H_    0.528704 0.249550 0.077058 0.324104
C26   C     C_3   0.320315 0.854210 0.558384 -0.876546
H7    H     H_    0.323660 0.811608 0.660154 0.246006
H8    H     H_    0.255193 0.910048 0.549600 0.250852
H9    H     H_    0.312930 0.777936 0.482754 0.231242
O11   O     O_3   0.690538 0.886372 0.616388 -0.744911
H10   H     H_    0.641871 0.919620 0.678620 0.352164
C27   C     C_3   0.737562 0.871125 0.381690 -0.718158
H11   H     H_    0.812978 0.896270 0.399988 0.250797
H12   H     H_    0.728835 0.767352 0.390595 0.206293
H13   H     H_    0.718651 0.900066 0.277997 0.227342
O12   O     O_3   0.689260 0.140615 0.603726 -0.795693
H14   H     H_    0.757937 0.134423 0.621981 0.365210
O13   O     O_3   0.728137 0.133601 0.374853 -0.779363
H15   H     H_    0.711024 0.223788 0.370684 0.343051
C28   C     C_3   0.648425 0.631748 0.141281 -0.720696
H16   H     H_    0.621131 0.689148 0.224152 0.246690
H17   H     H_    0.700676 0.563014 0.177237 0.234676
H18   H     H_    0.687232 0.699337 0.075136 0.252177
O14   O     O_3   0.640544 0.627062 0.861346 -0.747513
H19   H     H_    0.615104 0.660334 0.777131 0.389947
C29   C     C_3   0.293780 0.301290 0.857628 -0.820432
H20   H     H_    0.299514 0.314898 0.747558 0.293112
H21   H     H_    0.262872 0.206006 0.876644 0.239040
H22   H     H_    0.245422 0.373629 0.897677 0.237989

loop_
_geom_bond_atom_site_label_1
_geom_bond_atom_site_label_2
_ccdc_geom_bond_type
C1    O1    A    
C29   H21   S    
C23   C24   S    
N1    Zn2   S    
C6    C7    A    
C13   C14   A    
N2    Zn1   S    
C10   O12   S    
C9    C10   S    
C15   N2    A    
C27   H13   S    
O3    Zn1   S    
C7    C18   S    
C14   O14   S    
O14   H19   S    
C12   C20   S    
C1    O2    A    
O11   H10   S    
O13   H15   S    
C17   O10   S    
C7    C8    A    
C3    C10   S    
C19   O8    A    
C21   C22   S    
O12   H14   S    
C28   H17   S    
C26   H9    S    
O9    H2    S    
C9    C27   S    
C28   H16   S    
C28   H18   S    
O5    Zn1   S    
C25   H4    S    
C25   H3    S    
O8    Zn2   S    
C27   H12   S    
O6    Zn2   S    
C29   H20   S    
O7    Zn1   S    
C22   C23   T    
C12   O4    A    
C2    C24   T    
C5    C6    A    
C14   N2    A    
C18   O6    A    
C26   H8    S    
C13   N1    A    
C1    C4    S    
C18   O5    A    
C15   C16   S    
C29   H22   S    
O4    Zn2   S    
C4    C5    A    
C16   C29   S    
O10   H6    S    
O1    Zn1   S    
C20   C21   T    
C3    C8    A    
O2    Zn2   S    
C16   H1    S    
C13   C28   S    
C26   H7    S    
C16   C17   S    
C6    C26   S    
C11   N1    A    
C12   O3    A    
C2    C19   S    
C5    O9    S    
C11   C15   A    
C17   C25   S    
C25   H5    S    
C11   C17   S    
C9    O11   S    
C3    C4    A    
C27   H11   S    
C8    C9    S    
C10   O13   S    
C19   O7    A    
