data_mof_unit_53231.cif
_audit_creation_date              2012-12-10T18:34:29-0500
_audit_creation_method            fapswitch 2.2
_symmetry_space_group_name_H-M    P1
_symmetry_Int_Tables_number       1
_space_group_crystal_system       triclinic
_cell_length_a                    15.055432
_cell_length_b                    15.185266
_cell_length_c                    15.773527
_cell_angle_alpha                 91.051674
_cell_angle_beta                  104.152217
_cell_angle_gamma                 82.1837
_cell_volume                      3463.8033197

loop_
_atom_site_label
_atom_site_type_symbol
_atom_type_description
_atom_site_fract_x
_atom_site_fract_y
_atom_site_fract_z
_atom_type_partial_charge
C1    C     C_R   0.441942 0.663577 0.488785 0.938034
C2    C     C_R   0.552099 0.101793 0.572487 -0.123103
C3    C     C_R   0.347139 0.936740 0.533969 -0.026193
C4    C     C_R   0.646765 0.069642 0.609792 -0.063779
C5    C     C_R   0.509196 0.958456 0.589249 -0.126540
C6    C     C_R   0.483256 0.049737 0.579425 -0.125733
C7    C     C_R   0.389823 0.083754 0.576492 0.464818
C8    C     C_R   0.600314 0.927112 0.637836 0.470689
C9    C     C_R   0.322659 0.025260 0.560325 0.147344
C10   C     C_R   0.667508 0.985553 0.654172 0.142572
C11   C     C_R   0.852682 0.603670 0.662730 0.441630
C12   C     C_R   0.558097 0.336381 0.512032 0.893567
C13   C     C_R   0.142331 0.403181 0.339039 0.452596
C14   C     C_R   0.758592 0.598237 0.625348 0.364426
C15   C     C_R   0.237551 0.400426 0.376440 0.343906
C16   C     C_R   0.500959 0.500342 0.661828 0.877499
C17   C     C_R   0.499033 0.499702 0.338160 0.873082
C18   C     C_R   0.795168 0.520163 0.503484 0.570987
C19   C     C_R   0.208381 0.491752 0.493697 0.635311
C20   C     C_R   0.887735 0.538391 0.531045 -0.146288
C21   C     C_R   0.112526 0.482895 0.466729 -0.251385
C22   C     C_R   0.918590 0.568402 0.617173 -0.169341
C23   C     C_R   0.281340 0.881010 0.491250 0.089812
C24   C     C_R   0.079218 0.449849 0.381963 -0.142201
C25   C     C_R   0.952348 0.519038 0.478804 -0.002154
C26   C     C_R   0.048565 0.507773 0.519072 -0.068666
C27   C     C_R   0.077185 0.515230 0.610942 0.308227
C28   C     C_R   0.923407 0.513635 0.386990 0.391618
C29   C     C_R   0.014384 0.557787 0.657160 0.405909
C30   C     C_R   0.983992 0.467521 0.340822 0.400444
C31   C     C_3   0.447869 0.572792 0.016999 0.440291
C32   C     C_3   0.552209 0.428092 0.982962 0.439515
C33   C     C_3   0.535409 0.573117 0.983092 0.038539
C34   C     C_R   0.715299 0.121564 0.598340 0.160780
C35   C     C_3   0.464673 0.427765 0.016851 0.037455
C36   C     C_1   0.502905 0.501135 0.751024 -0.114260
C37   C     C_1   0.497049 0.499203 0.248936 -0.110580
C38   C     C_3   0.413375 0.502288 0.950179 0.041698
C39   C     C_3   0.586710 0.498595 0.049785 0.042337
C40   C     C_3   0.501506 0.501824 0.916591 -0.006017
C41   C     C_3   0.498568 0.499045 0.083375 -0.006035
C42   C     C_1   0.503122 0.501575 0.826197 0.070332
C43   C     C_1   0.496882 0.499057 0.173766 0.070038
C44   C     C_R   0.406645 0.759098 0.494200 -0.202536
C45   C     C_R   0.311227 0.789549 0.481127 0.378260
C46   C     C_R   0.593161 0.240957 0.531273 -0.275213
C47   C     C_3   0.573962 0.655636 0.962889 -0.807905
C48   C     C_3   0.426101 0.345213 0.036916 -0.808031
C49   C     C_3   0.684511 0.495100 0.106878 -0.804818
C50   C     C_3   0.315585 0.505749 0.893081 -0.805356
C51   C     C_3   0.230736 0.056981 0.580985 -0.777190
C52   C     C_3   0.754293 0.959462 0.725490 -0.766559
C53   C     C_3   0.184228 0.918737 0.442466 -0.875298
C54   C     C_3   0.815689 0.083074 0.608861 -0.781738
C55   C     C_R   0.688098 0.209080 0.564490 0.370661
C56   C     C_R   0.470242 0.819971 0.516801 0.328323
C57   C     C_R   0.528688 0.181319 0.522759 0.371348
C58   C     C_R   0.442779 0.903529 0.549402 -0.128983
H1    H     H_    0.591650 0.695193 0.023048 0.258791
H2    H     H_    0.640623 0.660412 0.629098 0.403219
H3    H     H_    0.827944 0.666984 0.766331 0.383626
H4    H     H_    0.161132 0.327794 0.240324 0.380200
H5    H     H_    0.163728 0.462002 0.716019 0.346686
H6    H     H_    0.839082 0.570650 0.282579 0.335391
H7    H     H_    0.369855 0.683081 0.981995 0.339150
H8    H     H_    0.630187 0.317770 0.017918 0.340072
H9    H     H_    0.733989 0.494236 0.064922 0.267747
H10   H     H_    0.689205 0.554400 0.149078 0.254228
H11   H     H_    0.702233 0.434172 0.148698 0.236930
H12   H     H_    0.637073 0.635710 0.938875 0.260269
H13   H     H_    0.266074 0.506865 0.935031 0.267836
H14   H     H_    0.297924 0.566518 0.851035 0.235044
H15   H     H_    0.310898 0.446275 0.851121 0.254231
H16   H     H_    0.241683 0.094362 0.643052 0.260935
H17   H     H_    0.186301 0.101794 0.528035 0.253896
H18   H     H_    0.194939 0.000904 0.592371 0.227013
H19   H     H_    0.736417 0.930780 0.782459 0.261606
H20   H     H_    0.802279 0.908628 0.701498 0.253388
H21   H     H_    0.788955 0.017590 0.751275 0.230471
H22   H     H_    0.424969 0.143942 0.436974 0.344997
H23   H     H_    0.521539 0.696603 0.911884 0.231931
H24   H     H_    0.578713 0.852702 0.485680 0.345453
H25   H     H_    0.739461 0.287657 0.501388 0.339813
H26   H     H_    0.189102 0.753446 0.466846 0.336787
H27   H     H_    0.163754 0.884022 0.379510 0.263367
H28   H     H_    0.134019 0.910302 0.481803 0.231646
H29   H     H_    0.179699 0.989493 0.423831 0.260525
H30   H     H_    0.843235 0.108343 0.556153 0.259231
H31   H     H_    0.858131 0.102324 0.672639 0.251505
H32   H     H_    0.824337 0.009974 0.601585 0.224815
H33   H     H_    0.418693 0.196526 0.629173 0.350700
H34   H     H_    0.408457 0.305725 0.976702 0.258390
H35   H     H_    0.566531 0.819791 0.679952 0.340767
H36   H     H_    0.110180 0.594559 0.752450 0.331531
H37   H     H_    0.885699 0.436937 0.244344 0.340248
H38   H     H_    0.478503 0.304200 0.087895 0.233843
H39   H     H_    0.362960 0.365095 0.060892 0.259630
H40   H     H_    0.190845 0.601447 0.555903 0.324764
H41   H     H_    0.718940 0.435017 0.443620 0.362323
H42   H     H_    0.359320 0.347335 0.370138 0.411865
N1    N     N_R   0.731710 0.552730 0.549140 -0.221616
N2    N     N_R   0.268290 0.447270 0.450860 -0.185426
O1    O     O_R   0.383110 0.605620 0.475230 -0.530573
O2    O     O_3   0.773949 0.459989 0.437726 -0.720701
O3    O     O_3   0.297551 0.357671 0.330981 -0.759150
O4    O     O_3   0.695835 0.632484 0.671555 -0.735659
O5    O     O_3   0.881407 0.643638 0.742621 -0.659635
O6    O     O_3   0.109554 0.360637 0.261463 -0.660441
O7    O     O_3   0.163960 0.475078 0.654778 -0.729749
O8    O     O_3   0.838347 0.558148 0.343809 -0.724564
O9    O     O_3   0.393230 0.648317 0.037397 -0.726431
O10   O     O_3   0.606835 0.352569 0.962536 -0.729703
O11   O     O_3   0.444803 0.200444 0.462163 -0.717866
O12   O     O_R   0.616890 0.394380 0.524770 -0.633783
O13   O     O_3   0.557610 0.798017 0.502538 -0.715577
O14   O     O_3   0.756199 0.259938 0.560501 -0.725742
O15   O     O_3   0.248429 0.730364 0.452639 -0.733592
O16   O     O_3   0.363470 0.171152 0.595908 -0.719135
O17   O     O_3   0.623701 0.843143 0.675909 -0.729614
O18   O     O_3   0.045179 0.583150 0.742780 -0.680935
O19   O     O_3   0.952009 0.443940 0.254795 -0.683498
O20   O     O_R   0.531900 0.639510 0.506760 -0.586303
O21   O     O_R   0.468100 0.360490 0.493240 -0.573559
O22   O     O_R   0.425620 0.483070 0.607460 -0.551757
O23   O     O_R   0.574380 0.516930 0.392540 -0.610622
O24   O     O_R   0.574400 0.516960 0.638990 -0.584494
O25   O     O_R   0.425600 0.483040 0.361010 -0.606637
O26   O     O_3   0.241905 0.553320 0.554249 -0.663891
Zn1   Zn    Zn3+2 0.400660 0.477370 0.478940 1.056573
Zn2   Zn    Zn3+2 0.599340 0.522630 0.521060 1.003069

loop_
_geom_bond_atom_site_label_1
_geom_bond_atom_site_label_2
_ccdc_geom_bond_type
C38   C40   S    
C21   C26   A    
C37   C43   T    
C23   C45   A    
C22   C29   A    
C27   C29   A    
C41   C43   S    
C36   C42   T    
C9    C51   S    
N2    Zn1   S    
C10   C52   S    
C2    C57   A    
C39   C41   S    
C31   C41   S    
C25   C28   A    
C48   H39   S    
C26   C27   A    
C33   C39   S    
C5    C58   A    
C49   H10   S    
C51   H17   S    
H24   O13   S    
C54   H32   S    
C5    C6    A    
C19   N2    A    
H4    O6    S    
C55   O14   S    
O24   Zn2   S    
C19   O26   S    
C32   C39   S    
C3    C23   A    
C50   H14   S    
C1    O20   A    
H7    O9    S    
H36   O18   S    
O23   Zn2   S    
H26   O15   S    
C46   C55   A    
C48   H34   S    
C31   C33   S    
C53   H28   S    
C52   H21   S    
C48   H38   S    
C1    O1    A    
N1    Zn2   S    
H37   O19   S    
C40   C42   S    
H41   O2    S    
C34   C55   A    
C49   H11   S    
O21   Zn1   S    
O12   Zn2   S    
C7    O16   S    
C2    C6    A    
C13   O6    S    
C52   H20   S    
C35   C48   S    
C23   C53   S    
C12   O12   A    
C29   O18   S    
C4    C34   A    
C33   C40   S    
C32   C35   S    
C35   C38   S    
C51   H18   S    
C54   H31   S    
C12   C46   S    
C50   H15   S    
C17   O25   A    
C14   N1    A    
C18   O2    S    
C28   O8    S    
C25   C26   A    
C32   O10   S    
C13   C24   A    
C18   N1    A    
H5    O7    S    
C2    C4    A    
C50   H13   S    
O25   Zn1   S    
C47   H12   S    
C3    C9    A    
C44   C56   A    
C1    C44   S    
H6    O8    S    
C30   O19   S    
H42   O3    S    
H33   O16   S    
C53   H29   S    
C17   C37   S    
O1    Zn1   S    
C35   C41   S    
C39   C49   S    
C20   C22   A    
C34   C54   S    
C13   C15   A    
C46   C57   A    
C11   O5    S    
C33   C47   S    
C4    C10   A    
C52   H19   S    
H2    O4    S    
C44   C45   A    
C45   O15   S    
C7    C9    A    
C49   H9    S    
C19   C21   A    
H25   O14   S    
C5    C8    A    
C57   O11   S    
C6    C7    A    
C38   C50   S    
C11   C22   A    
C31   C38   S    
C15   O3    S    
C28   C30   A    
C16   O22   A    
C16   C36   S    
C54   H30   S    
C17   O23   A    
C47   H23   S    
C12   O21   A    
H40   O26   S    
C11   C14   A    
C56   O13   S    
C56   C58   A    
O22   Zn1   S    
C18   C20   A    
C32   C40   S    
C15   N2    A    
H3    O5    S    
C24   C30   A    
C47   H1    S    
C3    C58   A    
C14   O4    S    
H22   O11   S    
C27   O7    S    
C8    C10   A    
C20   C25   A    
C21   C24   A    
C51   H16   S    
C31   O9    S    
C53   H27   S    
H35   O17   S    
H8    O10   S    
C16   O24   A    
O20   Zn2   S    
C8    O17   S    
