data_mof_unit_19867.cif
_audit_creation_date              2013-03-05T15:40:31-0500
_audit_creation_method            fapswitch 2.2
_symmetry_space_group_name_H-M    P1
_symmetry_Int_Tables_number       1
_space_group_crystal_system       triclinic
_cell_length_a                    12.130495
_cell_length_b                    12.312965
_cell_length_c                    22.897615
_cell_angle_alpha                 90.830466
_cell_angle_beta                  90.663678
_cell_angle_gamma                 90.852546
_cell_volume                      3419.06590083

loop_
_atom_site_label
_atom_site_type_symbol
_atom_site_description
_atom_site_fract_x
_atom_site_fract_y
_atom_site_fract_z
_atom_type_partial_charge
O1    O     O_R   0.621380 0.090460 0.561410 -0.629387
O2    O     O_R   0.378620 0.909540 0.438590 -0.629384
O3    O     O_R   0.617150 0.909540 0.438590 -0.608355
O4    O     O_R   0.382850 0.090460 0.561410 -0.608549
O5    O     O_R   0.619720 0.093230 0.440890 -0.629812
O6    O     O_R   0.380280 0.906770 0.559110 -0.629766
O7    O     O_R   0.618800 0.906770 0.559110 -0.579546
O8    O     O_R   0.381200 0.093230 0.440890 -0.579187
C1    C     C_R   0.659417 0.998187 0.578120 0.903912
C2    C     C_R   0.340586 0.001816 0.421873 0.903342
C3    C     C_R   0.654387 0.001714 0.420618 0.878945
C4    C     C_R   0.345618 0.998288 0.579383 0.878370
Zn1   Zn    Zn3+2 0.501730 0.123520 0.501540 1.034990
Zn2   Zn    Zn3+2 0.498270 0.876480 0.498460 1.034680
C5    C     C_R   0.106951 0.096432 0.328052 -0.223432
C6    C     C_R   0.893315 0.903709 0.671790 -0.223446
C7    C     C_R   0.183400 0.094645 0.373459 0.315901
C8    C     C_R   0.816962 0.905576 0.626327 0.315587
C9    C     C_R   0.876161 0.910681 0.320974 -0.157930
C10   C     C_R   0.123723 0.089269 0.678958 -0.157843
C11   C     C_R   0.796264 0.908838 0.363461 -0.150647
C12   C     C_R   0.203615 0.091113 0.636470 -0.151135
H1    H     H_    0.782984 0.834959 0.387688 0.188042
H2    H     H_    0.216770 0.164934 0.612175 0.188002
C13   C     C_R   0.091574 0.169344 0.199636 -0.164367
C14   C     C_R   0.908526 0.830427 0.800231 -0.164487
C15   C     C_R   0.092474 0.250599 0.158546 -0.173676
C16   C     C_R   0.907619 0.749186 0.841334 -0.173846
H3    H     H_    0.167868 0.296928 0.152113 0.166733
H4    H     H_    0.832289 0.702715 0.847690 0.166600
C17   C     C_R   0.896984 0.851046 0.191303 -0.177685
C18   C     C_R   0.102936 0.149106 0.808614 -0.177746
C19   C     C_R   0.897431 0.771725 0.148019 -0.218578
C20   C     C_R   0.102495 0.228424 0.851899 -0.218741
C21   C     C_R   0.084906 0.901401 0.167703 -0.223442
C22   C     C_R   0.915174 0.098454 0.832381 -0.223584
C23   C     C_R   0.084183 0.826211 0.121986 0.316357
C24   C     C_R   0.915909 0.173667 0.878090 0.316282
C25   C     C_R   0.900716 0.126762 0.174225 -0.160219
C26   C     C_R   0.099220 0.873352 0.825847 -0.160272
C27   C     C_R   0.901546 0.208369 0.133619 -0.142345
C28   C     C_R   0.098387 0.791756 0.866458 -0.142536
H5    H     H_    0.827822 0.220996 0.107597 0.191388
H6    H     H_    0.172041 0.779260 0.892556 0.191478
C29   C     C_R   0.155946 0.913892 0.298228 -0.161444
C30   C     C_R   0.843745 0.085917 0.701916 -0.161483
C31   C     C_R   0.236330 0.913278 0.341569 -0.215884
C32   C     C_R   0.763351 0.086525 0.658582 -0.216301
H7    H     H_    0.286525 0.841730 0.345932 0.181238
H8    H     H_    0.712890 0.157918 0.654352 0.181065
C33   C     C_R   0.836216 0.099690 0.302130 -0.183171
C34   C     C_R   0.164002 0.900394 0.697974 -0.183276
C35   C     C_R   0.756988 0.097888 0.344885 -0.174359
C36   C     C_R   0.243220 0.902196 0.655215 -0.174225
H9    H     H_    0.712538 0.171633 0.354347 0.167160
H10   H     H_    0.287803 0.828503 0.645817 0.167049
C37   C     C_3   0.993803 0.007886 0.247657 -0.059800
C38   C     C_3   0.006196 0.992100 0.752339 -0.059737
C39   C     C_R   0.092017 0.006852 0.289748 0.052580
C40   C     C_R   0.907976 0.993115 0.710241 0.052453
C41   C     C_R   0.251392 0.003283 0.379015 -0.153913
C42   C     C_R   0.748626 0.996729 0.620963 -0.153718
C43   C     C_R   0.895448 0.005189 0.288407 0.111823
C44   C     C_R   0.104582 0.994826 0.711603 0.111691
C45   C     C_R   0.736798 0.002615 0.375601 -0.028708
C46   C     C_R   0.263230 0.997397 0.624409 -0.028630
C47   C     C_R   0.994783 0.107316 0.208871 0.105118
C48   C     C_R   0.005233 0.892648 0.791111 0.105160
C49   C     C_R   0.997597 0.270102 0.125409 -0.033700
C50   C     C_R   0.002409 0.729871 0.874578 -0.033613
C51   C     C_R   0.992756 0.913555 0.203796 0.057465
C52   C     C_R   0.007232 0.086436 0.796206 0.057520
C53   C     C_R   0.991199 0.756895 0.114084 -0.148408
C54   C     C_R   0.008810 0.243114 0.885913 -0.148318
H11   H     H_    0.054352 0.166343 0.324219 0.178495
H12   H     H_    0.946139 0.833950 0.675529 0.178967
H13   H     H_    0.924501 0.838536 0.313829 0.152314
H14   H     H_    0.075258 0.161352 0.686043 0.152410
H15   H     H_    0.168274 0.153052 0.222098 0.153803
H16   H     H_    0.831884 0.846556 0.777677 0.153755
H17   H     H_    0.820472 0.863526 0.213932 0.157558
H18   H     H_    0.179405 0.136756 0.785926 0.157602
H19   H     H_    0.156299 0.954392 0.173851 0.179960
H20   H     H_    0.843850 0.045350 0.826295 0.180047
H21   H     H_    0.826732 0.077225 0.178261 0.152783
H22   H     H_    0.173139 0.923009 0.821881 0.152858
H23   H     H_    0.142985 0.840194 0.272736 0.159356
H24   H     H_    0.856452 0.159510 0.727525 0.159425
H25   H     H_    0.853424 0.176840 0.282009 0.151396
H26   H     H_    0.146937 0.823276 0.718158 0.151469
O9    O     O_R   0.087590 0.627480 0.058790 -0.579995
O10   O     O_R   0.912410 0.372520 0.941210 -0.580094
O11   O     O_R   0.905660 0.383870 0.059980 -0.609011
O12   O     O_R   0.094340 0.616130 0.940020 -0.609048
O13   O     O_R   0.092570 0.390420 0.063230 -0.628443
O14   O     O_R   0.907430 0.609580 0.936770 -0.628408
O15   O     O_R   0.900680 0.620930 0.055550 -0.629847
O16   O     O_R   0.099320 0.379070 0.944450 -0.629840
C55   C     C_R   0.992959 0.665125 0.073536 0.902420
C56   C     C_R   0.007042 0.334879 0.926462 0.902501
C57   C     C_R   0.998895 0.352596 0.081113 0.876316
C58   C     C_R   0.001105 0.647396 0.918883 0.876132
Zn3   Zn    Zn3+2 0.125690 0.504390 0.002180 1.029850
Zn4   Zn    Zn3+2 0.874310 0.495610 0.997820 1.029766
N1    N     N_R   0.185508 0.182716 0.415341 0.218243
O17   O     O_R   0.178058 0.162509 0.470813 -0.380487
O18   O     O_R   0.174614 0.282194 0.397905 -0.386061
N2    N     N_R   0.815405 0.817944 0.584165 0.218268
O19   O     O_R   0.821837 0.838859 0.528740 -0.380779
O20   O     O_R   0.828272 0.718518 0.601203 -0.386131
H27   H     H_    0.824159 0.721463 0.141382 0.181459
H28   H     H_    0.175705 0.278801 0.858473 0.181389
N3    N     N_R   0.175336 0.825749 0.082428 0.219272
O21   O     O_R   0.275249 0.842858 0.102121 -0.388016
O22   O     O_R   0.157080 0.827646 0.026326 -0.382575
N4    N     N_R   0.824862 0.174028 0.917717 0.219244
O23   O     O_R   0.724928 0.156704 0.898107 -0.388024
O24   O     O_R   0.843271 0.172282 0.973808 -0.382599

loop_
_geom_bond_atom_site_label_1
_geom_bond_atom_site_label_2
_geom_bond_distance
_ccdc_geom_bond_type
C5    H11   1.083070 S    
O8    Zn1   2.031531 S    
O14   C58   1.294740 A    
C15   H3    1.083307 S    
C20   H28   1.083459 S    
C34   H26   1.080366 S    
C13   C47   1.410791 A    
C18   C52   1.408302 A    
N2    O19   1.301618 A    
N1    O18   1.301895 A    
C21   C23   1.387250 A    
O5    C3    1.290549 A    
O6    C4    1.290556 A    
C37   C39   1.524033 S    
C23   N3    1.437471 S    
C38   C40   1.524184 S    
O16   Zn3   2.036449 S    
C28   C50   1.397644 A    
N4    O23   1.301383 A    
C53   C55   1.452604 S    
C6    C40   1.407527 A    
C29   C31   1.383379 A    
C26   H22   1.083182 S    
O4    Zn1   2.041836 S    
C9    H13   1.083163 S    
C12   C46   1.396777 A    
C29   H23   1.080357 S    
C7    C41   1.411115 A    
O7    Zn2   2.031533 S    
C9    C43   1.409279 A    
O13   Zn3   2.034183 S    
O13   C57   1.294746 A    
C17   C19   1.381454 A    
C19   H27   1.083460 S    
O4    C4    1.289942 A    
C35   C45   1.396467 A    
O5    Zn1   2.040385 S    
C15   C49   1.396871 A    
C11   C45   1.396792 A    
C17   C51   1.408271 A    
C21   C51   1.406321 A    
C13   H15   1.080689 S    
C27   H5    1.083268 S    
C28   H6    1.083266 S    
C37   C47   1.522842 S    
O11   Zn4   2.030570 S    
O15   C55   1.297484 A    
C34   C36   1.379984 A    
C37   C43   1.523398 S    
C30   H24   1.080299 S    
C35   H9    1.083407 S    
C38   C44   1.523499 S    
C36   H10   1.083406 S    
C1    C42   1.452666 S    
C33   C43   1.410110 A    
C31   H7    1.083484 S    
C34   C44   1.410143 A    
O11   C57   1.291217 A    
C21   H19   1.083165 S    
C8    C42   1.411128 A    
C54   C56   1.452575 S    
C4    C46   1.444217 S    
C14   H16   1.080670 S    
C33   C35   1.379993 A    
C18   C20   1.381441 A    
C10   C44   1.409287 A    
C9    C11   1.381329 A    
C7    N1    1.436923 S    
O6    Zn2   2.040385 S    
C24   N4    1.437478 S    
C32   C42   1.399758 A    
O1    C1    1.293927 A    
C37   C51   1.524239 S    
C32   H8    1.083469 S    
O12   C58   1.291215 A    
O3    Zn2   2.041837 S    
C20   C54   1.397628 A    
C19   C53   1.397667 A    
C10   C12   1.381330 A    
O12   Zn3   2.030571 S    
O16   C56   1.297460 A    
C11   H1    1.083298 S    
C12   H2    1.083296 S    
C2    C41   1.452775 S    
O1    Zn1   2.034524 S    
C25   H21   1.083183 S    
C22   C24   1.387298 A    
O2    C2    1.293993 A    
O10   C56   1.291074 A    
C27   C49   1.397686 A    
N3    O21   1.301393 A    
C24   C54   1.412616 A    
C38   C48   1.522864 S    
O7    C1    1.289797 A    
C23   C53   1.412645 A    
C29   C39   1.406625 A    
C5    C39   1.407471 A    
C30   C40   1.406587 A    
C6    H12   1.083022 S    
C25   C47   1.407626 A    
O8    C2    1.289796 A    
C16   C50   1.396875 A    
O9    Zn3   2.041727 S    
C31   C41   1.399826 A    
C50   C58   1.445840 S    
C5    C7    1.385808 A    
C36   C46   1.396423 A    
C49   C57   1.445854 S    
C13   C15   1.383312 A    
C18   H18   1.080058 S    
N1    O17   1.301762 A    
C14   C16   1.383376 A    
C17   H17   1.080085 S    
C10   H14   1.083168 S    
C14   C48   1.410782 A    
O14   Zn4   2.034183 S    
C16   H4    1.083303 S    
C33   H25   1.080390 S    
C38   C52   1.524375 S    
N2    O20   1.301306 A    
C22   H20   1.083170 S    
C26   C28   1.378838 A    
N4    O24   1.301611 A    
O2    Zn2   2.034522 S    
C8    N2    1.437145 S    
O15   Zn4   2.036448 S    
O3    C3    1.289978 A    
O10   Zn4   2.041729 S    
C30   C32   1.383351 A    
C3    C45   1.444270 S    
C25   C27   1.378866 A    
C6    C8    1.386010 A    
C26   C48   1.407645 A    
O9    C55   1.291069 A    
C22   C52   1.406360 A    
N3    O22   1.301618 A    
