data_mof_unit_13931.cif
_audit_creation_date              2012-12-10T18:21:15-0500
_audit_creation_method            fapswitch 2.2
_symmetry_space_group_name_H-M    P1
_symmetry_Int_Tables_number       1
_space_group_crystal_system       triclinic
_cell_length_a                    9.409019
_cell_length_b                    10.662358
_cell_length_c                    17.206615
_cell_angle_alpha                 90.03043
_cell_angle_beta                  85.580908
_cell_angle_gamma                 90.730837
_cell_volume                      1720.93571779

loop_
_atom_site_label
_atom_site_type_symbol
_atom_type_description
_atom_site_fract_x
_atom_site_fract_y
_atom_site_fract_z
_atom_type_partial_charge
C1    C     C_R   0.501209 0.740324 0.498789 0.846043
C2    C     C_R   0.498791 0.259675 0.501211 0.846044
C3    C     C_3   0.409260 0.957507 0.451275 0.431231
C4    C     C_3   0.590740 0.042493 0.548724 0.431231
C5    C     C_3   0.536858 0.044927 0.427105 -0.327575
C6    C     C_3   0.463142 0.955073 0.572895 -0.327576
C7    C     C_3   0.496326 0.123302 0.501022 -0.138801
C8    C     C_3   0.503674 0.876698 0.498978 -0.138801
C9    C     C_3   0.367738 0.036257 0.523848 0.101634
C10   C     C_3   0.632262 0.963742 0.476152 0.101634
C11   C     C_3   0.952480 0.399012 0.468125 -0.037326
C12   C     C_3   0.047520 0.600987 0.531875 -0.037325
C13   C     C_3   0.043768 0.405034 0.538361 -0.037736
C14   C     C_3   0.956232 0.594966 0.461639 -0.037736
C15   C     C_3   0.060285 0.493971 0.429756 -0.037745
C16   C     C_3   0.939715 0.506029 0.570244 -0.037745
C17   C     C_R   0.480880 0.503094 0.650508 0.844396
C18   C     C_R   0.519120 0.496905 0.349492 0.844397
C19   C     C_R   0.471650 0.520837 0.736140 -0.144984
C20   C     C_R   0.528350 0.479161 0.263860 -0.144983
C21   C     C_R   0.581194 0.592346 0.767717 0.375935
C22   C     C_R   0.418806 0.407653 0.232284 0.375935
C23   C     C_R   0.583148 0.604062 0.848255 -0.307198
C24   C     C_R   0.416851 0.395935 0.151746 -0.307199
C25   C     C_R   0.473616 0.553878 0.897638 0.076970
C26   C     C_R   0.526384 0.446119 0.102362 0.076971
C27   C     C_R   0.352474 0.497996 0.867629 0.170917
C28   C     C_R   0.647526 0.502000 0.132371 0.170917
C29   C     C_R   0.355592 0.472445 0.786297 0.034620
C30   C     C_R   0.644408 0.527552 0.213703 0.034621
C31   C     C_2   0.493986 0.554259 0.981111 -0.198498
C32   C     C_2   0.506014 0.445737 0.018889 -0.198498
Cu1   Cu    Cu3+1 0.356850 0.500010 0.499980 0.965158
Cu2   Cu    Cu3+1 0.643150 0.499990 0.500020 0.965158
H1    H     H_    0.907689 0.315128 0.440244 0.123067
H2    H     H_    0.092311 0.684872 0.559756 0.123067
H3    H     H_    0.115732 0.488391 0.370659 0.167714
H4    H     H_    0.884268 0.511608 0.629341 0.167714
H5    H     H_    0.488524 0.356811 0.989952 0.147152
H6    H     H_    0.511476 0.643185 0.010049 0.147153
H7    H     H_    0.327908 0.348748 0.127128 0.136266
H8    H     H_    0.672091 0.651250 0.872873 0.136266
H9    H     H_    0.564186 0.083025 0.367716 0.160591
H10   H     H_    0.435814 0.916975 0.632284 0.160591
H11   H     H_    0.085107 0.326084 0.571444 0.115549
H12   H     H_    0.914893 0.673916 0.428556 0.115550
N1    N     N_3   0.141720 0.500030 0.499940 -0.155323
N2    N     N_3   0.858280 0.499970 0.500060 -0.155323
O1    O     O_R   0.379130 0.683150 0.499960 -0.555040
O2    O     O_R   0.620870 0.316850 0.500040 -0.555041
O3    O     O_R   0.620910 0.683140 0.500000 -0.599833
O4    O     O_R   0.379090 0.316860 0.500000 -0.599833
O5    O     O_R   0.365090 0.500030 0.613580 -0.602224
O6    O     O_R   0.634910 0.499970 0.386420 -0.602225
O7    O     O_R   0.606870 0.500020 0.613610 -0.526274
O8    O     O_R   0.393130 0.499980 0.386390 -0.526274
O9    O     O_3   0.686167 0.649697 0.718780 -0.740704
H13   H     H_    0.753938 0.695638 0.750206 0.310214
O10   O     O_3   0.313832 0.350302 0.281221 -0.740704
H14   H     H_    0.246060 0.304362 0.249795 0.310214
C33   C     C_3   0.756600 0.614300 0.244813 -0.366001
C34   C     C_3   0.890810 0.543901 0.262818 -0.802297
H15   H     H_    0.968349 0.611278 0.285491 0.225476
H16   H     H_    0.865115 0.469642 0.306867 0.262910
H17   H     H_    0.942742 0.498805 0.210279 0.247271
H18   H     H_    0.784817 0.691213 0.202772 0.177961
H19   H     H_    0.713848 0.665133 0.297614 0.196813
C35   C     C_3   0.243401 0.385697 0.755187 -0.366001
C36   C     C_3   0.109190 0.456096 0.737182 -0.802287
H20   H     H_    0.057254 0.501188 0.789722 0.247268
H21   H     H_    0.134886 0.530359 0.693135 0.262909
H22   H     H_    0.031653 0.388719 0.714506 0.225474
H23   H     H_    0.286152 0.334866 0.702385 0.196812
H24   H     H_    0.215184 0.308783 0.797227 0.177961
C37   C     C_3   0.218240 0.479150 0.922290 -0.393568
C38   C     C_3   0.151339 0.606304 0.942581 -0.835603
H25   H     H_    0.050217 0.593623 0.979191 0.236651
H26   H     H_    0.224105 0.665229 0.975467 0.255520
H27   H     H_    0.128008 0.656668 0.888614 0.248685
H28   H     H_    0.136437 0.419096 0.897804 0.202460
H29   H     H_    0.242460 0.430753 0.976586 0.197931
C39   C     C_3   0.781761 0.520844 0.077710 -0.393573
C40   C     C_3   0.848660 0.393690 0.057419 -0.835607
H30   H     H_    0.775894 0.334766 0.024533 0.255522
H31   H     H_    0.871989 0.343325 0.111385 0.248686
H32   H     H_    0.949782 0.406370 0.020809 0.236651
H33   H     H_    0.757541 0.569242 0.023414 0.197932
H34   H     H_    0.863564 0.580897 0.102196 0.202462
O11   O     O_3   0.314210 0.908780 0.400073 -0.734566
H35   H     H_    0.270558 0.982869 0.377124 0.315878
O12   O     O_3   0.685790 0.091220 0.599927 -0.734566
H36   H     H_    0.729442 0.017131 0.622876 0.315878
C41   C     C_3   0.217261 0.078281 0.550648 -0.364231
C42   C     C_3   0.119494 0.966854 0.573062 -0.835963
H37   H     H_    0.109058 0.904935 0.521923 0.276359
H38   H     H_    0.162112 0.912160 0.620805 0.245525
H39   H     H_    0.012137 0.001061 0.593531 0.243573
H40   H     H_    0.222975 0.140745 0.602008 0.194600
H41   H     H_    0.172634 0.131384 0.502843 0.206416
C43   C     C_3   0.782739 0.921719 0.449352 -0.364231
C44   C     C_3   0.880506 0.033146 0.426938 -0.835963
H42   H     H_    0.837888 0.087840 0.379195 0.245526
H43   H     H_    0.890942 0.095065 0.478077 0.276359
H44   H     H_    0.987863 0.998939 0.406468 0.243573
H45   H     H_    0.827366 0.868616 0.497157 0.206416
H46   H     H_    0.777025 0.859255 0.397991 0.194600

loop_
_geom_bond_atom_site_label_1
_geom_bond_atom_site_label_2
_ccdc_geom_bond_type
C25   C31   S    
C26   C32   S    
C41   C42   S    
C17   O5    A    
C27   C29   A    
C1    C8    S    
C2    C7    S    
C38   H27   S    
C15   N1    S    
C16   N2    S    
C6    C9    S    
C14   H12   S    
C20   C30   A    
Cu1   O4    S    
Cu2   O3    S    
C44   H42   S    
C23   H8    S    
C40   H30   S    
C19   C21   A    
C24   C26   A    
C36   H20   S    
C4    C7    S    
C35   H24   S    
C39   H33   S    
C31   H6    S    
C32   H5    S    
C36   H21   S    
C15   H3    S    
C34   H16   S    
C2    O2    A    
C11   C15   S    
C33   H18   S    
C12   C16   S    
C35   C36   S    
C12   H2    S    
C37   H28   S    
C41   H41   S    
C18   O8    A    
C4    O12   S    
Cu1   O8    S    
C5    H9    S    
O10   H14   S    
C44   H43   S    
C6    H10   S    
C24   H7    S    
C11   N2    S    
C33   C34   S    
C12   N1    S    
C27   C37   S    
Cu1   O5    S    
Cu2   O2    S    
C28   C39   S    
C38   H25   S    
C4    C6    S    
C3    C8    S    
C22   O10   S    
C5    C7    S    
C37   H29   S    
C6    C8    S    
C42   H39   S    
C35   H23   S    
C36   H22   S    
C10   C43   S    
C37   C38   S    
C21   O9    S    
C34   H15   S    
C3    C9    S    
C29   C35   S    
C33   H19   S    
C31   C32   D    
Cu1   Cu2   S    
C43   H45   S    
C42   H38   S    
C1    O3    A    
C2    O4    A    
C40   H31   S    
C12   C14   S    
Cu2   O6    S    
C44   H44   S    
C21   C23   A    
Cu1   N1    S    
C22   C24   A    
C13   C16   S    
Cu2   N2    S    
C20   C22   A    
C4    C10   S    
C19   C29   A    
C9    C41   S    
O12   H36   S    
C13   N1    S    
C7    C9    S    
C17   O7    A    
C34   H17   S    
C43   H46   S    
C38   H26   S    
Cu1   O1    S    
C3    C5    S    
C14   N2    S    
C25   C27   A    
C26   C28   A    
C3    O11   S    
C11   H1    S    
C5    C10   S    
C13   H11   S    
C11   C13   S    
O9    H13   S    
C39   H34   S    
C28   C30   A    
C43   C44   S    
C17   C19   S    
C18   C20   S    
C23   C25   A    
C42   H37   S    
C18   O6    A    
Cu2   O7    S    
C40   H32   S    
C8    C10   S    
C39   C40   S    
C30   C33   S    
C14   C15   S    
O11   H35   S    
C1    O1    A    
C41   H40   S    
C16   H4    S    
