data_mof_unit_26975.cif
_audit_creation_date              2013-03-05T15:47:46-0500
_audit_creation_method            fapswitch 2.2
_symmetry_space_group_name_H-M    P1
_symmetry_Int_Tables_number       1
_space_group_crystal_system       triclinic
_cell_length_a                    10.703267
_cell_length_b                    13.017133
_cell_length_c                    11.726842
_cell_angle_alpha                 99.497787
_cell_angle_beta                  93.246186
_cell_angle_gamma                 90.230405
_cell_volume                      1608.72147183

loop_
_atom_site_label
_atom_site_type_symbol
_atom_site_description
_atom_site_fract_x
_atom_site_fract_y
_atom_site_fract_z
_atom_type_partial_charge
O1    O     O_R   0.506570 0.354460 0.582000 -0.500003
O2    O     O_R   0.493430 0.645540 0.418000 -0.501128
O3    O     O_R   0.490940 0.341410 0.386200 -0.621851
O4    O     O_R   0.509060 0.658590 0.613800 -0.613010
C1    C     C_R   0.496467 0.299618 0.479206 0.885362
C2    C     C_R   0.504066 0.700376 0.520829 0.889719
O5    O     O_R   0.327470 0.506520 0.597900 -0.599348
O6    O     O_R   0.672530 0.493480 0.402100 -0.598334
O7    O     O_R   0.311840 0.493460 0.402100 -0.575794
O8    O     O_R   0.688160 0.506540 0.597900 -0.579215
C3    C     C_R   0.262426 0.513787 0.501999 0.857550
C4    C     C_R   0.737338 0.485639 0.497942 0.846367
Cu1   Cu    Cu3+1 0.509250 0.507730 0.615930 1.040588
Cu2   Cu    Cu3+1 0.490750 0.492270 0.384070 1.030694
H1    H     H_    0.085704 0.504402 0.110221 0.239799
H2    H     H_    0.915547 0.488609 0.889533 0.244316
C5    C     C_R   0.115864 0.579665 0.714597 -0.181477
C6    C     C_R   0.884351 0.415988 0.285692 -0.213623
C7    C     C_R   0.053654 0.573894 0.814732 0.320844
C8    C     C_R   0.947863 0.419829 0.185748 0.348425
C9    C     C_R   0.954702 0.502484 0.810501 -0.272670
C10   C     C_R   0.046184 0.491679 0.189356 -0.239937
C11   C     C_R   0.905808 0.449786 0.703463 0.410896
C12   C     C_R   0.093652 0.546372 0.295905 0.381102
C13   C     C_R   0.947030 0.480308 0.601502 -0.058023
C14   C     C_R   0.052367 0.516976 0.398278 -0.049768
C15   C     C_R   0.065348 0.528659 0.606888 -0.025792
C16   C     C_R   0.934186 0.468494 0.393029 -0.010884
C17   C     C_R   0.873990 0.467306 0.495979 -0.071748
C18   C     C_R   0.125411 0.530660 0.503887 -0.055926
H3    H     H_    0.197210 0.630381 0.719792 0.190608
H4    H     H_    0.802909 0.365421 0.280979 0.176759
C19   C     C_R   0.501493 0.813207 0.532032 -0.156840
C20   C     C_R   0.500077 0.186844 0.468310 -0.125992
C21   C     C_R   0.579533 0.025061 0.369770 -0.084775
C22   C     C_R   0.422805 0.975121 0.630955 -0.102418
C23   C     C_R   0.562156 0.131080 0.376635 -0.207312
C24   C     C_R   0.440085 0.869121 0.624074 -0.240639
C25   C     C_R   0.451754 0.135791 0.553562 0.324614
C26   C     C_R   0.549922 0.864220 0.446800 0.319665
C27   C     C_R   0.468991 0.028063 0.546851 0.000429
C28   C     C_R   0.533062 0.972030 0.453695 0.001370
H5    H     H_    0.400817 0.829890 0.688750 0.198309
H6    H     H_    0.601454 0.170390 0.312034 0.183348
H7    H     H_    0.631158 0.985767 0.299023 0.211129
H8    H     H_    0.371390 0.014453 0.701826 0.216756
N1    N     N_R   0.523180 0.519350 0.790130 -0.189740
N2    N     N_R   0.476820 0.480650 0.209870 -0.194616
C29   C     C_R   0.373498 0.410555 0.024559 -0.226534
C30   C     C_R   0.625843 0.589916 0.975553 -0.217078
C31   C     C_R   0.386965 0.417808 0.145907 0.107718
C32   C     C_R   0.612974 0.582215 0.854145 0.121203
C33   C     C_R   0.556311 0.537009 0.155230 0.113839
C34   C     C_R   0.443094 0.463512 0.844820 0.156299
C35   C     C_R   0.545847 0.532480 0.033136 0.066602
C36   C     C_R   0.453227 0.468270 0.966962 0.064373
H9    H     H_    0.371563 0.414751 0.793396 0.172544
H10   H     H_    0.627875 0.585751 0.206620 0.180708
H11   H     H_    0.675866 0.626349 0.811039 0.120668
H12   H     H_    0.324358 0.373453 0.189043 0.138774
H13   H     H_    0.300865 0.360501 0.976317 0.195291
H14   H     H_    0.698199 0.640064 0.023951 0.167504
S1    S     S_3+6 0.098063 0.657825 0.943273 0.041312
O9    O     O_2   0.212126 0.615645 0.998859 -0.242554
O10   O     O_2   0.129151 0.764018 0.917392 -0.241711
O11   O     O_3   0.979879 0.666792 0.032703 -0.494901
H15   H     H_    0.914443 0.706281 0.996041 0.348650
S2    S     S_3+6 0.905741 0.333093 0.058534 0.025910
O12   O     O_2   0.008059 0.329933 0.975544 -0.237070
O13   O     O_2   0.886388 0.225726 0.086498 -0.255797
O14   O     O_3   0.771929 0.372413 0.998729 -0.502187
H16   H     H_    0.705062 0.348995 0.043983 0.347998
S3    S     S_3+6 0.818761 0.332404 0.698316 0.074127
O15   O     O_2   0.703132 0.353546 0.764434 -0.235612
O16   O     O_2   0.782780 0.282849 0.575800 -0.336132
O17   O     O_3   0.907973 0.248201 0.759594 -0.411179
H17   H     H_    0.850860 0.189613 0.766004 0.397523
S4    S     S_3+6 0.178008 0.664815 0.299936 0.084619
O18   O     O_2   0.294931 0.645224 0.235441 -0.215294
O19   O     O_2   0.096915 0.737681 0.242706 -0.165475
O20   O     O_3   0.215333 0.722557 0.436812 -0.583978
H18   H     H_    0.239735 0.794832 0.430691 0.377345
N3    N     N_R   0.617100 0.806891 0.354782 0.108350
O21   O     O_R   0.718543 0.757862 0.378469 -0.356757
O22   O     O_R   0.571239 0.796486 0.248280 -0.342278
N4    N     N_R   0.384118 0.192972 0.645351 0.107392
O23   O     O_R   0.282168 0.241226 0.621382 -0.353954
O24   O     O_R   0.430029 0.204070 0.751881 -0.348042

loop_
_geom_bond_atom_site_label_1
_geom_bond_atom_site_label_2
_geom_bond_distance
_ccdc_geom_bond_type
C35   C36   1.405597 A    
S1    O10   1.503284 D    
H2    C9    1.079733 S    
C4    C17   1.483763 S    
C20   C23   1.396918 A    
C27   C28   1.421827 A    
O20   H18   0.990424 S    
C25   C27   1.404994 A    
O5    C3    1.305885 A    
O1    C1    1.294229 A    
C16   C17   1.402510 A    
C21   C23   1.383020 A    
C12   C14   1.411813 A    
S4    O19   1.501384 D    
S3    O15   1.499860 D    
O4    Cu1   1.968047 S    
C21   C28   1.403356 A    
N2    C31   1.366095 A    
C3    C18   1.484610 S    
C7    S1    1.750127 S    
S2    O12   1.502004 D    
C29   C31   1.409614 A    
C30   C32   1.409471 A    
C22   H8    1.081366 S    
C6    C8    1.395549 A    
C26   C28   1.405279 A    
O11   H15   0.990628 S    
S1    O11   1.680655 S    
H1    C10   1.078028 S    
Cu1   Cu2   2.688998 S    
C15   C18   1.403962 A    
S3    O16   1.502693 D    
C26   N3    1.436918 S    
C22   C27   1.403153 A    
O2    C2    1.294730 A    
C11   S3    1.777112 S    
C33   C35   1.421248 A    
C13   C17   1.411152 A    
N2    C33   1.372773 A    
C34   C36   1.421362 A    
C19   C26   1.408398 A    
C29   H13   1.083243 S    
C20   C25   1.408436 A    
C5    C15   1.404120 A    
C6    C16   1.404682 A    
O17   H17   0.990626 S    
O4    C2    1.294882 A    
Cu1   N1    2.020287 S    
N4    O23   1.301268 A    
Cu2   N2    2.020287 S    
O7    Cu2   1.938267 S    
C32   H11   1.081660 S    
N3    O21   1.301269 A    
O5    Cu1   1.944872 S    
O6    C4    1.305727 A    
C1    C20   1.453257 S    
O7    C3    1.300442 A    
O3    Cu2   1.968049 S    
O8    C4    1.300342 A    
N1    C34   1.373124 A    
C12   S4    1.776085 S    
N3    O22   1.301276 A    
C8    C10   1.399280 A    
C14   C18   1.411793 A    
C9    C11   1.399489 A    
C30   H14   1.082551 S    
S3    O17   1.679341 S    
C10   C12   1.399227 A    
O1    Cu1   1.968750 S    
C21   H7    1.081378 S    
O6    Cu2   1.944873 S    
C7    C9    1.399699 A    
S4    O18   1.499775 D    
C8    S2    1.751400 S    
C30   C35   1.405356 A    
O3    C1    1.295289 A    
O8    Cu1   1.938267 S    
C33   H10   1.081708 S    
N1    C32   1.366055 A    
C13   C15   1.405452 A    
C29   C36   1.405865 A    
C14   C16   1.405012 A    
C19   C24   1.397029 A    
C2    C19   1.453364 S    
C23   H6    1.083959 S    
C22   C24   1.382604 A    
C24   H5    1.083925 S    
S4    O20   1.681599 S    
S2    O14   1.677998 S    
C5    H3    1.083386 S    
C5    C7    1.394692 A    
N4    O24   1.301285 A    
C11   C13   1.413253 A    
O2    Cu2   1.968747 S    
S1    O9    1.500069 D    
O14   H16   0.990671 S    
C6    H4    1.083567 S    
S2    O13   1.503456 D    
C31   H12   1.081641 S    
C25   N4    1.436974 S    
C34   H9    1.081756 S    
