data_mof_unit_46450.cif
_audit_creation_date              2012-12-11T15:15:49-0500
_audit_creation_method            fapswitch 2.2
_symmetry_space_group_name_H-M    P1
_symmetry_Int_Tables_number       1
_space_group_crystal_system       triclinic
_cell_length_a                    20.589417
_cell_length_b                    22.807593
_cell_length_c                    6.935978
_cell_angle_alpha                 90.090675
_cell_angle_beta                  87.381054
_cell_angle_gamma                 90.069066
_cell_volume                      3253.69272672

loop_
_atom_site_label
_atom_site_type_symbol
_atom_type_description
_atom_site_fract_x
_atom_site_fract_y
_atom_site_fract_z
_atom_type_partial_charge
O1    O     O_R   0.387100 0.552640 0.378490 -0.534368
O2    O     O_R   0.612900 0.052640 0.621510 -0.533085
O3    O     O_R   0.249610 0.559600 0.072250 -0.538083
O4    O     O_R   0.750390 0.059600 0.927750 -0.536560
O5    O     O_R   0.249120 0.447360 0.902040 -0.538833
O6    O     O_R   0.750880 0.947360 0.097960 -0.543768
C1    C     C_R   0.226270 0.572808 0.243817 0.708477
C2    C     C_R   0.773400 0.073109 0.756619 0.702451
O7    O     O_R   0.386610 0.559560 0.048860 -0.539477
O8    O     O_R   0.613390 0.059560 0.951140 -0.535436
O9    O     O_R   0.387100 0.447320 0.878470 -0.536053
O10   O     O_R   0.612900 0.947320 0.121530 -0.535615
C3    C     C_R   0.408040 0.574525 0.214844 0.683383
C4    C     C_R   0.592072 0.074631 0.785281 0.688690
O11   O     O_R   0.249120 0.552680 0.402050 -0.540311
O12   O     O_R   0.750880 0.052680 0.597950 -0.545868
O13   O     O_3   0.318110 0.463180 0.223790 -0.371096
O14   O     O_3   0.681890 0.963180 0.776210 -0.370641
V1    V     V_3+5 0.318110 0.506830 0.948930 1.484371
V2    V     V_3+5 0.681890 0.006830 0.051070 1.486707
O15   O     O_R   0.386610 0.440400 0.548840 -0.540214
O16   O     O_R   0.613390 0.940400 0.451160 -0.539278
C5    C     C_R   0.407930 0.425261 0.714576 0.720920
C6    C     C_R   0.592006 0.925341 0.285259 0.725804
O17   O     O_R   0.249610 0.440440 0.572240 -0.549237
O18   O     O_R   0.750390 0.940440 0.427760 -0.550540
C7    C     C_R   0.226781 0.426748 0.743329 0.747836
C8    C     C_R   0.773219 0.926883 0.256350 0.707180
V3    V     V_3+5 0.318110 0.493170 0.448930 1.472227
V4    V     V_3+5 0.681890 0.993170 0.551070 1.464927
O19   O     O_3   0.318110 0.536820 0.723940 -0.367206
O20   O     O_3   0.681890 0.036820 0.276060 -0.360475
C9    C     C_R   0.170856 0.385963 0.754181 -0.065773
C10   C     C_R   0.829090 0.886306 0.243811 -0.065364
C11   C     C_R   0.153815 0.354991 0.588221 -0.228173
C12   C     C_R   0.846541 0.855196 0.408547 -0.228054
C13   C     C_R   0.098151 0.319265 0.590435 0.370652
C14   C     C_R   0.902353 0.819788 0.404115 0.375677
C15   C     C_R   0.059258 0.314342 0.761670 -0.002636
C16   C     C_R   0.940835 0.815385 0.231913 -0.017917
C17   C     C_R   0.076125 0.345127 0.927278 -0.210065
C18   C     C_R   0.923490 0.846200 0.067487 -0.213296
C19   C     C_R   0.131781 0.380282 0.924347 -0.140548
C20   C     C_R   0.867718 0.881002 0.072563 -0.159342
C21   C     C_R   0.928835 0.145856 0.903034 0.382108
C22   C     C_R   0.102089 0.683275 0.086750 0.444527
C23   C     C_R   0.872643 0.111007 0.902649 -0.232032
C24   C     C_R   0.157906 0.648141 0.093011 -0.231383
C25   C     C_R   0.846291 0.149779 0.589287 -0.081753
C26   C     C_R   0.125402 0.615875 0.417303 -0.058425
C27   C     C_R   0.902432 0.184584 0.589871 -0.166470
C28   C     C_R   0.070435 0.651708 0.412001 -0.228935
C29   C     C_R   0.943757 0.182490 0.745007 0.100581
C30   C     C_R   0.058379 0.685129 0.248179 0.096635
C31   C     C_2   0.999603 0.277355 0.768102 0.337966
C32   C     C_2   0.001051 0.779487 0.223996 0.394270
C33   C     C_2   0.003237 0.218673 0.740987 -0.039439
C34   C     C_2   0.998355 0.720544 0.246177 -0.044725
C35   C     C_R   0.831062 0.112177 0.746959 -0.115990
C36   C     C_R   0.169945 0.613513 0.255555 -0.117197
H1    H     H_    0.183336 0.359056 0.455566 0.124210
H2    H     H_    0.817305 0.858978 0.541852 0.125312
H3    H     H_    0.861855 0.082213 0.024094 0.123093
H4    H     H_    0.191435 0.647043 0.968058 0.138268
H5    H     H_    0.045983 0.341882 0.058943 0.169351
H6    H     H_    0.953462 0.843406 0.935356 0.173338
H7    H     H_    0.143326 0.404023 0.053774 0.132778
H8    H     H_    0.855810 0.904866 0.944005 0.130037
H9    H     H_    0.914289 0.213378 0.468945 0.170107
H10   H     H_    0.036178 0.653143 0.535548 0.164157
C37   C     C_R   0.577756 0.361833 0.661813 0.314250
C38   C     C_R   0.422046 0.861957 0.334210 0.313786
C39   C     C_R   0.462370 0.382136 0.713140 -0.200916
C40   C     C_R   0.537552 0.882228 0.286091 -0.202285
C41   C     C_R   0.474676 0.094748 0.808213 -0.112207
C42   C     C_R   0.525459 0.594761 0.195018 -0.112093
C43   C     C_R   0.421274 0.131103 0.789765 -0.078533
C44   C     C_R   0.578774 0.631276 0.214592 -0.079512
C45   C     C_R   0.429666 0.190980 0.757261 -0.123652
C46   C     C_R   0.570270 0.691217 0.245701 -0.125259
C47   C     C_R   0.492089 0.217174 0.752106 0.083578
C48   C     C_R   0.507863 0.717273 0.248144 0.084166
C49   C     C_R   0.546721 0.178437 0.751468 -0.010770
C50   C     C_R   0.453259 0.678450 0.247455 -0.007820
C51   C     C_R   0.502134 0.279739 0.733518 -0.031060
C52   C     C_R   0.497758 0.779829 0.265428 -0.031660
C53   C     C_R   0.566351 0.300384 0.682104 -0.085244
C54   C     C_R   0.433413 0.800491 0.314523 -0.081291
C55   C     C_R   0.617908 0.259152 0.654435 0.338488
C56   C     C_R   0.381735 0.759247 0.340624 0.332174
C57   C     C_R   0.608679 0.200766 0.705374 -0.161573
C58   C     C_R   0.391145 0.700776 0.290722 -0.178206
C59   C     C_R   0.451726 0.322878 0.766607 -0.083985
C60   C     C_R   0.548274 0.822932 0.233238 -0.085389
C61   C     C_R   0.525492 0.400989 0.660090 -0.086956
C62   C     C_R   0.474356 0.901128 0.337506 -0.088397
C63   C     C_R   0.537653 0.117145 0.783885 -0.073605
C64   C     C_R   0.462443 0.617108 0.216710 -0.073990
H11   H     H_    0.466863 0.048274 0.832226 0.122726
H12   H     H_    0.533328 0.548236 0.172202 0.123638
H13   H     H_    0.386566 0.215027 0.725234 0.137060
H14   H     H_    0.613219 0.715464 0.278791 0.137115
H15   H     H_    0.372825 0.112493 0.796341 0.147830
H16   H     H_    0.627212 0.612754 0.210070 0.147714
H17   H     H_    0.650306 0.171783 0.691913 0.132974
H18   H     H_    0.349462 0.671754 0.302878 0.128837
C65   C     C_1   0.538327 0.462447 0.621320 0.374589
N1    N     N_1   0.548528 0.511551 0.590832 -0.351357
C66   C     C_1   0.461571 0.962605 0.376318 0.373965
N2    N     N_1   0.451420 0.011720 0.406921 -0.349760
O21   O     O_3   0.677671 0.273273 0.569285 -0.626533
H19   H     H_    0.670179 0.301060 0.462885 0.328195
O22   O     O_3   0.321657 0.773443 0.423356 -0.632507
H20   H     H_    0.328724 0.801377 0.529990 0.324964
O23   O     O_3   0.639514 0.385620 0.652296 -0.630848
H21   H     H_    0.665796 0.364010 0.744975 0.328962
O24   O     O_3   0.360341 0.885725 0.341654 -0.630539
H22   H     H_    0.334388 0.864013 0.248038 0.328482
C67   C     C_1   0.391922 0.310144 0.877002 0.284459
N3    N     N_1   0.344135 0.300556 0.965912 -0.352273
C68   C     C_1   0.608311 0.810065 0.124187 0.285810
N4    N     N_1   0.656281 0.800363 0.036367 -0.349618
C69   C     C_1   0.804538 0.155055 0.428503 0.353669
N5    N     N_1   0.771094 0.159422 0.299644 -0.314293
C70   C     C_1   0.132469 0.580243 0.587045 0.321809
N6    N     N_1   0.137838 0.551689 0.723171 -0.364127
C71   C     C_1   0.065088 0.188562 0.718542 0.364916
N7    N     N_1   0.114459 0.164511 0.700660 -0.299093
C72   C     C_1   0.936835 0.689773 0.270203 0.305104
N8    N     N_1   0.887759 0.665208 0.289386 -0.298755
O25   O     O_3   0.969459 0.145233 0.056224 -0.638981
H23   H     H_    0.951514 0.117988 0.156495 0.286679
O26   O     O_3   0.088325 0.714602 0.923181 -0.621791
H24   H     H_    0.123343 0.707952 0.822598 0.297886
O27   O     O_3   0.939402 0.302705 0.806893 -0.620493
H25   H     H_    0.945548 0.345687 0.818041 0.307125
O28   O     O_3   0.060960 0.806623 0.198620 -0.606380
H26   H     H_    0.053792 0.849518 0.190264 0.304972
O29   O     O_3   0.080148 0.289835 0.426959 -0.648600
H27   H     H_    0.113414 0.296717 0.321502 0.294099
O30   O     O_3   0.920937 0.790222 0.566303 -0.645412
H28   H     H_    0.887850 0.796683 0.672570 0.293366

loop_
_geom_bond_atom_site_label_1
_geom_bond_atom_site_label_2
_ccdc_geom_bond_type
V4    O20   S    
O13   V3    S    
C57   H17   S    
O21   H19   S    
C39   C59   A    
O4    C2    A    
V1    O19   S    
C69   N5    T    
C15   C17   A    
C7    C9    S    
O9    V1    S    
C11   C13   A    
C42   C44   A    
C43   C45   A    
O3    C1    A    
C2    C35   S    
C23   H3    S    
C9    C11   A    
C52   C54   A    
C24   H4    S    
C37   C61   A    
C34   C72   S    
C42   C64   A    
O23   H21   S    
C25   C69   S    
C41   C63   A    
C21   C23   A    
C3    C64   S    
O7    C3    A    
C52   C60   A    
C27   H9    S    
C38   C54   A    
O5    C7    A    
C51   C59   A    
O7    V1    S    
O6    C8    A    
O8    V2    S    
C25   C27   A    
C38   O24   S    
C26   C28   A    
C65   N1    T    
O3    V1    S    
O14   V4    S    
C55   C57   A    
C56   O22   S    
C24   C36   A    
C15   C31   S    
C16   C18   A    
O28   H26   S    
C8    C10   S    
C2    O12   A    
C59   C67   S    
C17   C19   A    
O10   V2    S    
O30   H28   S    
C18   C20   A    
C5    C39   S    
V2    O20   S    
C12   H2    S    
C41   H11   S    
C47   C49   A    
C28   C30   A    
O11   V3    S    
C51   C53   A    
O15   C5    A    
O17   V3    S    
C13   C15   A    
C22   C24   A    
C23   C35   A    
C44   H16   S    
C9    C19   A    
C43   H15   S    
C40   C62   A    
C42   H12   S    
O27   H25   S    
C10   C20   A    
C46   C48   A    
O8    C4    A    
C45   C47   A    
C29   C33   S    
C17   H5    S    
C1    O11   A    
C16   C32   S    
C48   C52   A    
O15   V3    S    
C46   H14   S    
C27   C29   A    
C38   C62   A    
C56   C58   A    
C67   N3    T    
C22   C30   A    
O1    V3    S    
C44   C46   A    
C37   O23   S    
C11   H1    S    
C26   C70   S    
C41   C43   A    
C68   N4    T    
C61   C65   S    
C37   C53   A    
C58   H18   S    
C54   C56   A    
C21   O25   S    
C48   C50   A    
C31   C33   D    
C13   O29   S    
C70   N6    T    
C14   O30   S    
O16   C6    A    
C20   H8    S    
O1    C3    A    
C39   C61   A    
C71   N7    T    
C1    C36   S    
O6    V2    S    
C4    C63   S    
O22   H20   S    
C30   C34   S    
C55   O21   S    
O16   V4    S    
C33   C71   S    
O29   H27   S    
O18   V4    S    
O5    V1    S    
O17   C7    A    
C49   C57   A    
C62   C66   S    
O10   C6    A    
O18   C8    A    
C25   C35   A    
O2    V4    S    
C26   C36   A    
C53   C55   A    
C72   N8    T    
C50   C64   A    
V3    O19   S    
O24   H22   S    
C22   O26   S    
C14   C16   A    
C32   O28   S    
C6    C40   S    
O26   H24   S    
C31   O27   S    
O9    C5    A    
O13   V1    S    
C10   C12   A    
C32   C34   D    
O14   V2    S    
O2    C4    A    
C28   H10   S    
C12   C14   A    
C21   C29   A    
O4    V2    S    
C60   C68   S    
C19   H7    S    
C49   C63   A    
C40   C60   A    
C18   H6    S    
C45   H13   S    
C50   C58   A    
C66   N2    T    
O12   V4    S    
C47   C51   A    
O25   H23   S    
