data_mof_unit_40983.cif
_audit_creation_date              2013-03-05T16:43:03-0500
_audit_creation_method            fapswitch 2.2
_symmetry_space_group_name_H-M    P1
_symmetry_Int_Tables_number       1
_space_group_crystal_system       triclinic
_cell_length_a                    10.653968
_cell_length_b                    10.689386
_cell_length_c                    9.91776
_cell_angle_alpha                 90.166428
_cell_angle_beta                  91.250936
_cell_angle_gamma                 91.188311
_cell_volume                      1128.95950287

loop_
_atom_site_label
_atom_site_type_symbol
_atom_site_description
_atom_site_fract_x
_atom_site_fract_y
_atom_site_fract_z
_atom_type_partial_charge
O1    O     O_R   0.500020 0.316790 0.614690 -0.611793
O2    O     O_R   0.500000 0.316760 0.385350 -0.619296
C1    C     C_R   0.509854 0.260010 0.499365 0.863837
O3    O     O_R   0.314800 0.500000 0.614670 -0.605479
O4    O     O_R   0.314790 0.499960 0.385330 -0.618774
C2    C     C_R   0.257923 0.499774 0.498620 0.855057
Zn1   Zn    Zn3+2 0.500010 0.500020 0.653130 0.960828
Zn2   Zn    Zn3+2 0.499990 0.499980 0.346870 0.934308
O5    O     O_R   0.500000 0.683240 0.614650 -0.617197
O6    O     O_R   0.499980 0.683210 0.385310 -0.624581
O7    O     O_R   0.685210 0.500040 0.614670 -0.635362
O8    O     O_R   0.685200 0.500000 0.385330 -0.638893
C3    C     C_R   0.507290 0.739625 0.500419 0.931405
C4    C     C_R   0.742301 0.502073 0.500074 0.807505
C5    C     C_3   0.069852 0.380979 0.574468 0.004952
H1    H     H_    0.104979 0.388563 0.680658 0.155185
C6    C     C_3   0.925288 0.386156 0.576102 -0.393433
H2    H     H_    0.880745 0.300558 0.530652 0.162410
H3    H     H_    0.894600 0.389284 0.682182 0.159956
H4    H     H_    0.109424 0.621014 0.673891 0.217945
H5    H     H_    0.896896 0.638916 0.660956 0.195605
C7    C     C_3   0.077087 0.618576 0.566372 -0.370713
C8    C     C_3   0.068771 0.496579 0.348993 -0.395439
C9    C     C_3   0.121402 0.497613 0.496227 0.081668
H6    H     H_    0.101848 0.581772 0.294682 0.192805
H7    H     H_    0.102054 0.414196 0.292637 0.167141
C10   C     C_3   0.878912 0.501444 0.497297 0.158015
C11   C     C_3   0.933381 0.623794 0.559572 -0.456484
C12   C     C_3   0.925990 0.493546 0.349617 -0.392536
H8    H     H_    0.891394 0.406198 0.299631 0.180265
H9    H     H_    0.890621 0.573370 0.288714 0.176397
H10   H     H_    0.117590 0.702791 0.516283 0.216700
H11   H     H_    0.904124 0.705173 0.497370 0.173550
C13   C     C_R   0.539431 0.063966 0.620283 0.048277
C14   C     C_R   0.540214 0.128814 0.498288 -0.100909
C15   C     C_R   0.574328 0.062168 0.379550 0.159838
C16   C     C_R   0.568365 0.931622 0.383137 -0.260296
H12   H     H_    0.583590 0.878382 0.291949 0.160093
C17   C     C_R   0.535830 0.870198 0.501996 -0.094137
C18   C     C_R   0.538871 0.936471 0.622381 -0.007915
C19   C     C_3   0.460505 0.929491 0.745772 0.192700
C20   C     C_3   0.459303 0.071536 0.741800 -0.542065
H13   H     H_    0.511755 0.891498 0.835098 0.081913
H14   H     H_    0.365717 0.110873 0.717900 0.225239
H15   H     H_    0.511941 0.114512 0.828729 0.171681
C21   C     C_R   0.394855 0.464676 0.068076 0.219762
N1    N     N_R   0.499150 0.499140 0.142800 -0.128312
C22   C     C_R   0.592910 0.557699 0.077150 -0.149208
H16   H     H_    0.665503 0.605300 0.136849 0.156062
C23   C     C_R   0.593400 0.560763 0.933665 0.200036
N2    N     N_R   0.499150 0.499180 0.857150 -0.132682
C24   C     C_R   0.394925 0.464489 0.926593 0.237549
C25   C     C_3   0.322615 0.344255 0.919027 -0.525021
C26   C     C_3   0.321660 0.344693 0.072384 -0.511227
H17   H     H_    0.227838 0.355062 0.872608 0.198719
H18   H     H_    0.378299 0.268484 0.877205 0.212594
H19   H     H_    0.226312 0.357207 0.112398 0.196483
H20   H     H_    0.374238 0.266917 0.118348 0.204250
C27   C     C_3   0.617098 0.121839 0.249200 -0.370414
C28   C     C_3   0.743382 0.189035 0.269403 -0.865924
H21   H     H_    0.737037 0.260842 0.349172 0.261946
H22   H     H_    0.816618 0.121415 0.299428 0.251022
H23   H     H_    0.770912 0.235108 0.173971 0.244629
H24   H     H_    0.628872 0.050070 0.169292 0.185663
H25   H     H_    0.546654 0.185562 0.206967 0.222300
N3    N     N_R   0.336240 0.871331 0.722459 0.237679
O9    O     O_R   0.292732 0.791430 0.809299 -0.421042
O10   O     O_R   0.270998 0.893791 0.613102 -0.458533
C29   C     C_3   0.113777 0.253948 0.517908 -0.432043
C30   C     C_3   0.085178 0.145703 0.613665 -0.820790
H26   H     H_    0.139811 0.157694 0.709618 0.256429
H27   H     H_    0.983788 0.139052 0.636375 0.248884
H28   H     H_    0.111123 0.056765 0.565150 0.298346
H29   H     H_    0.067102 0.233613 0.418725 0.219296
H30   H     H_    0.216721 0.256656 0.502505 0.207438
C31   C     C_3   0.693438 0.645069 0.875312 -0.365020
C32   C     C_3   0.825556 0.598824 0.909958 -0.914144
H31   H     H_    0.841712 0.508968 0.858262 0.266264
H32   H     H_    0.896825 0.669906 0.879923 0.255633
H33   H     H_    0.840282 0.584504 0.019737 0.246252
H34   H     H_    0.681258 0.659982 0.766621 0.248213
H35   H     H_    0.684560 0.739646 0.920669 0.168942

loop_
_geom_bond_atom_site_label_1
_geom_bond_atom_site_label_2
_geom_bond_distance
_ccdc_geom_bond_type
N3    O10   1.301005 A    
C10   C12   1.561096 S    
C19   C20   1.519307 S    
C25   H17   1.108922 S    
C14   C15   1.432111 A    
C13   C20   1.494986 S    
C15   C27   1.517965 S    
C32   H31   1.105864 S    
Zn1   O7    2.017800 S    
C27   H24   1.112268 S    
C12   H8    1.108360 S    
C7    H10   1.113205 S    
C28   H23   1.110504 S    
C13   C18   1.362952 A    
C8    C12   1.521012 S    
C15   C16   1.396181 A    
O4    C2    1.288102 A    
O7    C4    1.300742 A    
C32   H33   1.108127 S    
C5    H1    1.112123 S    
C21   C24   1.403206 A    
C28   H22   1.111055 S    
C13   C14   1.396265 A    
C8    H7    1.110118 S    
O5    C3    1.287898 A    
C8    C9    1.552651 S    
C30   H26   1.110337 S    
C4    C10   1.456455 S    
C22   C23   1.423651 A    
N3    O9    1.300529 A    
C27   C28   1.521038 S    
C7    C11   1.533227 S    
C19   H13   1.112690 S    
C20   H14   1.111205 S    
O3    Zn1   2.001554 S    
C23   N2    1.397818 A    
C32   H32   1.108991 S    
C5    C29   1.552718 S    
N2    C24   1.364792 A    
C6    C10   1.545210 S    
C31   C32   1.533763 S    
O3    C2    1.288938 A    
C31   H35   1.112009 S    
C17   C18   1.385956 A    
C25   C26   1.521212 S    
C28   H21   1.104794 S    
O1    C1    1.300534 A    
C20   H15   1.111182 S    
C16   H12   1.084128 S    
C23   C31   1.507688 S    
N1    C22   1.348484 A    
C1    C14   1.445802 S    
Zn2   O8    2.001552 S    
C2    C9    1.453869 S    
C21   C26   1.488347 S    
C30   H28   1.107154 S    
C6    H2    1.111688 S    
C29   H29   1.111330 S    
Zn2   O6    1.994290 S    
C18   C19   1.497600 S    
H5    C11   1.098630 S    
O8    C4    1.278559 A    
C11   H11   1.113731 S    
C7    C9    1.553455 S    
C24   C25   1.485525 S    
C26   H20   1.105958 S    
C25   H18   1.099423 S    
C5    C6    1.542755 S    
C21   N1    1.365675 A    
C5    C9    1.566515 S    
O1    Zn1   1.994290 S    
O2    Zn2   1.996434 S    
H4    C7    1.113499 S    
O6    C3    1.289650 A    
C31   H34   1.095452 S    
O4    Zn2   2.017802 S    
C19   N3    1.464369 S    
O2    C1    1.288063 A    
Zn2   N1    2.023735 S    
Zn1   N2    2.023687 S    
C16   C17   1.397771 A    
C27   H25   1.100828 S    
C22   H16   1.081459 S    
C6    H3    1.109118 S    
C29   H30   1.110435 S    
C8    H6    1.114206 S    
C29   C30   1.529042 S    
C3    C17   1.422274 S    
Zn1   O5    1.996434 S    
C12   H9    1.114139 S    
C10   C11   1.541709 S    
C30   H27   1.109123 S    
C26   H19   1.109162 S    
