data_mof_unit_19814.cif
_audit_creation_date              2012-10-26T19:09:33-0400
_audit_creation_method            fapswitch 2.2
_symmetry_space_group_name_H-M    P1
_symmetry_Int_Tables_number       1
_space_group_crystal_system       triclinic
_cell_length_a                    10.832459
_cell_length_b                    9.674919
_cell_length_c                    19.360131
_cell_angle_alpha                 90.00006
_cell_angle_beta                  95.014152
_cell_angle_gamma                 89.999966
_cell_volume                      2021.2382629

loop_
_atom_site_label
_atom_site_type_symbol
_atom_type_description
_atom_site_fract_x
_atom_site_fract_y
_atom_site_fract_z
_atom_type_partial_charge
C1    C     C_R   0.262473 0.500000 0.499743 0.542334
C2    C     C_R   0.063875 0.625562 0.499887 -0.138866
C3    C     C_R   0.871616 0.500000 0.500213 0.021502
C4    C     C_R   0.128384 0.500000 0.499787 0.021502
C5    C     C_R   0.419043 0.074166 0.454746 0.126332
C6    C     C_R   0.580957 0.925834 0.545254 0.126332
C7    C     C_R   0.580957 0.074166 0.545254 0.126332
C8    C     C_R   0.419043 0.925834 0.454746 0.126332
C9    C     C_R   0.498564 0.625219 0.254921 -0.135241
C10   C     C_R   0.501436 0.374781 0.745079 -0.135241
C11   C     C_R   0.501440 0.625220 0.745079 -0.135241
C12   C     C_R   0.737527 0.500000 0.500257 0.542334
C13   C     C_R   0.498560 0.374780 0.254921 -0.135241
C14   C     C_R   0.498496 0.625222 0.182936 -0.118699
C15   C     C_R   0.501504 0.374777 0.817064 -0.118699
C16   C     C_R   0.501508 0.625223 0.817064 -0.118698
C17   C     C_R   0.498492 0.374777 0.182936 -0.118698
C18   C     C_R   0.498626 0.500000 0.146201 0.034866
C19   C     C_R   0.501374 0.500000 0.853799 0.034866
C20   C     C_R   0.498768 0.500000 0.291596 0.014043
C21   C     C_R   0.501232 0.500000 0.708404 0.014042
C22   C     C_3   0.326558 0.145881 0.403034 -0.340590
C23   C     C_R   0.500783 0.500000 0.929951 0.345746
C24   C     C_3   0.673442 0.854119 0.596966 -0.340589
C25   C     C_3   0.673441 0.145881 0.596966 -0.340590
C26   C     C_3   0.326559 0.854119 0.403034 -0.340589
C27   C     C_R   0.499217 0.500000 0.070049 0.345746
C28   C     C_R   0.499341 0.500000 0.367655 0.538431
C29   C     C_R   0.500659 0.500000 0.632345 0.538430
C30   C     C_R   0.063876 0.374438 0.499895 -0.138865
C31   C     C_R   0.936124 0.625562 0.500105 -0.138865
C32   C     C_R   0.936125 0.374438 0.500113 -0.138866
Cu1   Cu    Cu3+1 0.500000 0.640660 0.500000 0.907896
Cu2   Cu    Cu3+1 0.500000 0.359340 0.500000 0.907896
H1    H     H_    0.498675 0.723443 0.281748 0.129069
H2    H     H_    0.501478 0.276495 0.843813 0.138028
H3    H     H_    0.501485 0.723505 0.843813 0.138028
H4    H     H_    0.498515 0.276495 0.156186 0.138028
H5    H     H_    0.326683 0.257712 0.403100 0.199684
H6    H     H_    0.344216 0.116551 0.349394 0.090494
H7    H     H_    0.230708 0.116550 0.412953 0.089112
H8    H     H_    0.673317 0.742288 0.596900 0.199684
H9    H     H_    0.769291 0.883450 0.587047 0.089112
H10   H     H_    0.655783 0.883448 0.650606 0.090494
H11   H     H_    0.673317 0.257712 0.596899 0.199683
H12   H     H_    0.501325 0.276557 0.718252 0.129069
H13   H     H_    0.655781 0.116553 0.650606 0.090496
H14   H     H_    0.769291 0.116549 0.587049 0.089109
H15   H     H_    0.326683 0.742288 0.403100 0.199683
H16   H     H_    0.230709 0.883451 0.412951 0.089109
H17   H     H_    0.344219 0.883447 0.349394 0.090496
H18   H     H_    0.501332 0.723444 0.718252 0.129069
H19   H     H_    0.498667 0.276556 0.281748 0.129069
H20   H     H_    0.111786 0.276185 0.499867 0.129649
H21   H     H_    0.888214 0.723815 0.500133 0.129649
H22   H     H_    0.888216 0.276185 0.500146 0.129647
H23   H     H_    0.111784 0.723815 0.499854 0.129647
H24   H     H_    0.498522 0.723505 0.156187 0.138028
N1    N     N_R   0.500000 0.852070 0.500000 -0.224386
N2    N     N_R   0.500000 0.147930 0.500000 -0.224386
N3    N     N_R   0.499625 0.379310 0.034330 -0.228671
N4    N     N_R   0.500375 0.620690 0.965670 -0.228671
N5    N     N_R   0.500374 0.379310 0.965669 -0.228672
N6    N     N_R   0.499626 0.620689 0.034331 -0.228672
O1    O     O_R   0.319640 0.618740 0.500000 -0.516635
O2    O     O_R   0.680360 0.381260 0.500000 -0.516636
O3    O     O_R   0.680360 0.618740 0.500000 -0.516637
O4    O     O_R   0.319640 0.381260 0.500000 -0.516637
O5    O     O_R   0.499980 0.618820 0.400140 -0.513880
O6    O     O_R   0.500020 0.381180 0.599860 -0.513880
O7    O     O_R   0.500020 0.618820 0.599860 -0.513879
O8    O     O_R   0.499980 0.381180 0.400140 -0.513880

loop_
_geom_bond_atom_site_label_1
_geom_bond_atom_site_label_2
_ccdc_geom_bond_type
C10   H12   S    
C5    C8    A    
C3    C31   A    
C9    C14   A    
C6    C7    A    
C3    C12   S    
Cu1   O5    S    
C8    N1    A    
C8    C26   S    
C11   C16   A    
C14   C18   A    
C9    C20   A    
C2    C4    A    
C28   O5    A    
C7    C25   S    
C13   C17   A    
C16   H3    S    
C10   C15   A    
C1    C4    S    
C6    C24   S    
Cu2   O2    S    
C23   N5    A    
C17   C18   A    
C2    H23   S    
C22   H6    S    
Cu1   N1    S    
C5    C22   S    
C26   H17   S    
Cu2   O6    S    
C30   C32   A    
C30   H20   S    
C25   H14   S    
C28   O8    A    
C12   O2    A    
C16   C19   A    
C14   H24   S    
C22   H5    S    
C6    N1    A    
C13   C20   A    
C11   C21   A    
Cu1   Cu2   S    
C13   H19   S    
C17   H4    S    
C26   H16   S    
C10   C21   A    
C3    C32   A    
C24   H10   S    
C12   O3    A    
C1    O1    A    
C22   H7    S    
C27   N6    A    
Cu1   O7    S    
C25   H11   S    
Cu1   O1    S    
Cu2   O8    S    
C7    N2    A    
C1    O4    A    
C24   H8    S    
Cu1   O3    S    
C9    H1    S    
C29   O6    A    
C26   H15   S    
Cu2   O4    S    
N3    N5    A    
C24   H9    S    
C25   H13   S    
C19   C23   S    
N4    N6    A    
C11   H18   S    
C20   C28   S    
C5    N2    A    
C31   H21   S    
C15   H2    S    
C15   C19   A    
C21   C29   S    
Cu2   N2    S    
C32   H22   S    
C23   N4    A    
C4    C30   A    
C18   C27   S    
C2    C31   A    
C29   O7    A    
C27   N3    A    
