data_mof_unit_65081.cif
_audit_creation_date              2012-12-10T17:53:51-0500
_audit_creation_method            fapswitch 2.2
_symmetry_space_group_name_H-M    P1
_symmetry_Int_Tables_number       1
_space_group_crystal_system       monoclinic
_cell_length_a                    21.668554
_cell_length_b                    30.501615
_cell_length_c                    30.564979
_cell_angle_alpha                 90.0
_cell_angle_beta                  90.0
_cell_angle_gamma                 90.000036
_cell_volume                      20201.1860008

loop_
_atom_site_label
_atom_site_type_symbol
_atom_type_description
_atom_site_fract_x
_atom_site_fract_y
_atom_site_fract_z
_atom_type_partial_charge
C1    C     C_R   0.249980 0.060172 0.939904 0.850139
C2    C     C_R   0.750020 0.939828 0.939904 0.850139
C3    C     C_R   0.249980 0.939828 0.060096 0.850139
C4    C     C_R   0.750020 0.060172 0.060096 0.850139
C5    C     C_R   0.749980 0.560172 0.939904 0.850139
C6    C     C_R   0.250020 0.439828 0.939904 0.850139
C7    C     C_R   0.749980 0.439828 0.060096 0.850139
C8    C     C_R   0.250020 0.560172 0.060096 0.850139
C9    C     C_R   0.749980 0.060172 0.439903 0.850139
C10   C     C_R   0.250020 0.939828 0.439903 0.850139
C11   C     C_R   0.749980 0.939828 0.560096 0.850139
C12   C     C_R   0.250020 0.060172 0.560096 0.850139
C13   C     C_R   0.249980 0.560172 0.439903 0.850139
C14   C     C_R   0.750020 0.439828 0.439903 0.850139
C15   C     C_R   0.249980 0.439828 0.560096 0.850139
C16   C     C_R   0.750020 0.560172 0.560096 0.850139
C17   C     C_R   0.249911 0.156917 0.843240 -0.024971
C18   C     C_R   0.750089 0.843083 0.843240 -0.024971
C19   C     C_R   0.249911 0.843083 0.156760 -0.024969
C20   C     C_R   0.750089 0.156917 0.156760 -0.024969
C21   C     C_R   0.749911 0.656917 0.843240 -0.024971
C22   C     C_R   0.250089 0.343083 0.843240 -0.024971
C23   C     C_R   0.749911 0.343083 0.156760 -0.024969
C24   C     C_R   0.250089 0.656917 0.156760 -0.024969
C25   C     C_R   0.749911 0.156917 0.343240 -0.024971
C26   C     C_R   0.250089 0.843083 0.343240 -0.024971
C27   C     C_R   0.749911 0.843083 0.656760 -0.024969
C28   C     C_R   0.250089 0.156917 0.656760 -0.024969
C29   C     C_R   0.249911 0.656917 0.343240 -0.024971
C30   C     C_R   0.750089 0.343083 0.343240 -0.024971
C31   C     C_R   0.249911 0.343083 0.656760 -0.024969
C32   C     C_R   0.750089 0.656917 0.656760 -0.024969
C33   C     C_R   0.288280 0.161780 0.879626 -0.145592
C34   C     C_R   0.711720 0.838220 0.879626 -0.145592
C35   C     C_R   0.288278 0.838219 0.120373 -0.145592
C36   C     C_R   0.711722 0.161781 0.120373 -0.145592
C37   C     C_R   0.788279 0.661780 0.879626 -0.145592
C38   C     C_R   0.211720 0.338220 0.879626 -0.145592
C39   C     C_R   0.788278 0.338219 0.120373 -0.145592
C40   C     C_R   0.211722 0.661781 0.120373 -0.145592
C41   C     C_R   0.788280 0.161780 0.379626 -0.145592
C42   C     C_R   0.211720 0.838220 0.379626 -0.145592
C43   C     C_R   0.788278 0.838219 0.620373 -0.145592
C44   C     C_R   0.211722 0.161781 0.620373 -0.145592
C45   C     C_R   0.288280 0.661780 0.379626 -0.145592
C46   C     C_R   0.711720 0.338220 0.379626 -0.145592
C47   C     C_R   0.288278 0.338219 0.620373 -0.145592
C48   C     C_R   0.711722 0.661781 0.620373 -0.145592
C49   C     C_R   0.287487 0.130151 0.911961 -0.151111
C50   C     C_R   0.712513 0.869849 0.911961 -0.151111
C51   C     C_R   0.287485 0.869848 0.088038 -0.151111
C52   C     C_R   0.712515 0.130152 0.088038 -0.151110
C53   C     C_R   0.787487 0.630151 0.911961 -0.151111
C54   C     C_R   0.212513 0.369849 0.911961 -0.151111
C55   C     C_R   0.787485 0.369848 0.088038 -0.151111
C56   C     C_R   0.212515 0.630152 0.088038 -0.151110
C57   C     C_R   0.787487 0.130151 0.411961 -0.151111
C58   C     C_R   0.212513 0.869849 0.411961 -0.151111
C59   C     C_R   0.787485 0.869848 0.588038 -0.151111
C60   C     C_R   0.212515 0.130152 0.588038 -0.151110
C61   C     C_R   0.287487 0.630151 0.411961 -0.151111
C62   C     C_R   0.712513 0.369849 0.411961 -0.151111
C63   C     C_R   0.287485 0.369848 0.588038 -0.151111
C64   C     C_R   0.712515 0.630152 0.588038 -0.151110
C65   C     C_R   0.249846 0.093320 0.906890 -0.028915
C66   C     C_R   0.750154 0.906680 0.906890 -0.028915
C67   C     C_R   0.249846 0.906680 0.093110 -0.028918
C68   C     C_R   0.750154 0.093320 0.093110 -0.028919
C69   C     C_R   0.749846 0.593320 0.906890 -0.028915
C70   C     C_R   0.250154 0.406680 0.906890 -0.028915
C71   C     C_R   0.749846 0.406680 0.093110 -0.028918
C72   C     C_R   0.250154 0.593320 0.093110 -0.028919
C73   C     C_R   0.749846 0.093320 0.406890 -0.028915
C74   C     C_R   0.250154 0.906680 0.406890 -0.028915
C75   C     C_R   0.749846 0.906680 0.593110 -0.028918
C76   C     C_R   0.250154 0.093320 0.593110 -0.028919
C77   C     C_R   0.249846 0.593320 0.406890 -0.028915
C78   C     C_R   0.750154 0.406680 0.406890 -0.028915
C79   C     C_R   0.249846 0.406680 0.593110 -0.028918
C80   C     C_R   0.750154 0.593320 0.593110 -0.028919
C81   C     C_R   0.031924 0.960085 0.999645 -0.169867
C82   C     C_R   0.968076 0.039915 0.999645 -0.169867
C83   C     C_R   0.031924 0.039915 0.000354 -0.169868
C84   C     C_R   0.968075 0.960085 0.000354 -0.169868
C85   C     C_R   0.531924 0.460085 0.999645 -0.169867
C86   C     C_R   0.468076 0.539915 0.999645 -0.169867
C87   C     C_R   0.531924 0.539915 0.000354 -0.169868
C88   C     C_R   0.468076 0.460085 0.000354 -0.169868
C89   C     C_R   0.531924 0.960085 0.499645 -0.169867
C90   C     C_R   0.468076 0.039915 0.499645 -0.169867
C91   C     C_R   0.531924 0.039915 0.500354 -0.169868
C92   C     C_R   0.468075 0.960085 0.500354 -0.169868
C93   C     C_R   0.031924 0.460085 0.499645 -0.169867
C94   C     C_R   0.968076 0.539915 0.499645 -0.169867
C95   C     C_R   0.031924 0.539915 0.500354 -0.169868
C96   C     C_R   0.968075 0.460085 0.500354 -0.169868
C97   C     C_R   0.936408 0.000000 1.000000 -0.022202
C98   C     C_R   0.063592 1.000000 1.000000 -0.022202
C99   C     C_R   0.436408 0.500000 1.000000 -0.022202
C100  C     C_R   0.563592 0.500000 1.000000 -0.022202
C101  C     C_R   0.436408 0.000000 0.500000 -0.022202
C102  C     C_R   0.563592 1.000000 0.500000 -0.022202
C103  C     C_R   0.936408 0.500000 0.500000 -0.022202
C104  C     C_R   0.063592 0.500000 0.500000 -0.022202
C105  C     C_R   0.250054 0.810080 0.310172 0.855128
C106  C     C_R   0.749946 0.189920 0.310172 0.855129
C107  C     C_R   0.250054 0.189920 0.689828 0.855129
C108  C     C_R   0.749946 0.810080 0.689828 0.855129
C109  C     C_R   0.750054 0.310080 0.310172 0.855128
C110  C     C_R   0.249946 0.689920 0.310172 0.855129
C111  C     C_R   0.750054 0.689920 0.689828 0.855129
C112  C     C_R   0.249946 0.310080 0.689828 0.855129
C113  C     C_R   0.750054 0.810080 0.810172 0.855128
C114  C     C_R   0.249946 0.189920 0.810172 0.855129
C115  C     C_R   0.750054 0.189920 0.189828 0.855129
C116  C     C_R   0.249946 0.810080 0.189828 0.855129
C117  C     C_R   0.250054 0.310080 0.810172 0.855128
C118  C     C_R   0.749946 0.689920 0.810172 0.855129
C119  C     C_R   0.250054 0.689920 0.189828 0.855129
C120  C     C_R   0.749946 0.310080 0.189828 0.855129
C121  C     C_R   0.370014 0.000000 1.000000 0.863199
C122  C     C_R   0.629986 1.000000 1.000000 0.863199
C123  C     C_R   0.870014 0.500000 1.000000 0.863199
C124  C     C_R   0.129986 0.500000 1.000000 0.863199
C125  C     C_R   0.870014 0.000000 0.500000 0.863199
C126  C     C_R   0.129986 1.000000 0.500000 0.863199
C127  C     C_R   0.370014 0.500000 0.500000 0.863199
C128  C     C_R   0.629986 0.500000 0.500000 0.863199
C129  C     C_R   0.129734 1.000000 1.000000 0.855211
C130  C     C_R   0.870266 1.000000 1.000000 0.855211
C131  C     C_R   0.629734 0.500000 1.000000 0.855211
C132  C     C_R   0.370266 0.500000 1.000000 0.855211
C133  C     C_R   0.629734 1.000000 0.500000 0.855211
C134  C     C_R   0.370266 1.000000 0.500000 0.855211
C135  C     C_R   0.129734 0.500000 0.500000 0.855211
C136  C     C_R   0.870266 0.500000 0.500000 0.855211
C137  C     C_R   0.437027 0.918892 0.008188 -0.294623
C138  C     C_R   0.562973 0.081107 0.008188 -0.294623
C139  C     C_R   0.437027 0.081107 0.991813 -0.294625
C140  C     C_R   0.562973 0.918892 0.991813 -0.294625
C141  C     C_R   0.937027 0.418892 0.008188 -0.294623
C142  C     C_R   0.062973 0.581107 0.008188 -0.294623
C143  C     C_R   0.937027 0.581107 0.991813 -0.294625
C144  C     C_R   0.062973 0.418892 0.991813 -0.294625
C145  C     C_R   0.937027 0.918892 0.508188 -0.294623
C146  C     C_R   0.062973 0.081107 0.508188 -0.294623
C147  C     C_R   0.937027 0.081107 0.491813 -0.294625
C148  C     C_R   0.062973 0.918892 0.491813 -0.294625
C149  C     C_R   0.437027 0.418892 0.508188 -0.294623
C150  C     C_R   0.562973 0.581107 0.508188 -0.294623
C151  C     C_R   0.437027 0.581107 0.491813 -0.294625
C152  C     C_R   0.562973 0.418892 0.491813 -0.294625
C153  C     C_R   0.468511 0.879159 0.004762 0.393499
C154  C     C_R   0.531489 0.120841 0.004762 0.393499
C155  C     C_R   0.468511 0.120841 0.995239 0.393498
C156  C     C_R   0.531489 0.879159 0.995239 0.393498
C157  C     C_R   0.968511 0.379159 0.004762 0.393499
C158  C     C_R   0.031489 0.620841 0.004762 0.393499
C159  C     C_R   0.968511 0.620841 0.995239 0.393498
C160  C     C_R   0.031489 0.379159 0.995239 0.393498
C161  C     C_R   0.968511 0.879159 0.504762 0.393499
C162  C     C_R   0.031489 0.120841 0.504762 0.393499
C163  C     C_R   0.968511 0.120841 0.495239 0.393498
C164  C     C_R   0.031489 0.879159 0.495239 0.393498
C165  C     C_R   0.468511 0.379159 0.504762 0.393499
C166  C     C_R   0.531489 0.620841 0.504762 0.393499
C167  C     C_R   0.468511 0.620841 0.495239 0.393498
C168  C     C_R   0.531489 0.379159 0.495239 0.393498
C169  C     C_R   0.532136 0.959497 0.997865 0.019587
C170  C     C_R   0.467864 0.040503 0.997865 0.019587
C171  C     C_R   0.532137 0.040503 0.002135 0.019587
C172  C     C_R   0.467863 0.959497 0.002135 0.019587
C173  C     C_R   0.032136 0.459497 0.997865 0.019587
C174  C     C_R   0.967864 0.540503 0.997865 0.019587
C175  C     C_R   0.032136 0.540503 0.002135 0.019587
C176  C     C_R   0.967863 0.459497 0.002135 0.019587
C177  C     C_R   0.032136 0.959497 0.497865 0.019587
C178  C     C_R   0.967864 0.040503 0.497865 0.019587
C179  C     C_R   0.032137 0.040503 0.502135 0.019587
C180  C     C_R   0.967863 0.959497 0.502135 0.019587
C181  C     C_R   0.532136 0.459497 0.497865 0.019587
C182  C     C_R   0.467864 0.540503 0.497865 0.019587
C183  C     C_R   0.532137 0.540503 0.502135 0.019587
C184  C     C_R   0.467863 0.459497 0.502135 0.019587
C185  C     C_R   0.563827 1.000000 0.000000 -0.107851
C186  C     C_R   0.436173 0.000000 0.000000 -0.107851
C187  C     C_R   0.063826 0.500000 0.000000 -0.107851
C188  C     C_R   0.936173 0.500000 0.000000 -0.107851
C189  C     C_R   0.063826 1.000000 0.500000 -0.107851
C190  C     C_R   0.936173 1.000000 0.500000 -0.107851
C191  C     C_R   0.563827 0.500000 0.500000 -0.107851
C192  C     C_R   0.436173 0.500000 0.500000 -0.107851
C193  C     C_R   0.212124 0.088188 0.870172 -0.168130
C194  C     C_R   0.787876 0.911812 0.870172 -0.168130
C195  C     C_R   0.212126 0.911813 0.129829 -0.168130
C196  C     C_R   0.787874 0.088187 0.129829 -0.168129
C197  C     C_R   0.712124 0.588188 0.870172 -0.168130
C198  C     C_R   0.287876 0.411812 0.870172 -0.168130
C199  C     C_R   0.712126 0.411813 0.129829 -0.168130
C200  C     C_R   0.287874 0.588187 0.129829 -0.168129
C201  C     C_R   0.712124 0.088188 0.370172 -0.168130
C202  C     C_R   0.287876 0.911812 0.370172 -0.168130
C203  C     C_R   0.712126 0.911813 0.629829 -0.168130
C204  C     C_R   0.287874 0.088187 0.629829 -0.168129
C205  C     C_R   0.212124 0.588188 0.370172 -0.168130
C206  C     C_R   0.787876 0.411812 0.370172 -0.168130
C207  C     C_R   0.212126 0.411813 0.629829 -0.168130
C208  C     C_R   0.787874 0.588187 0.629829 -0.168129
C209  C     C_R   0.211446 0.120493 0.838505 -0.173340
C210  C     C_R   0.788553 0.879507 0.838505 -0.173339
C211  C     C_R   0.211448 0.879508 0.161495 -0.173339
C212  C     C_R   0.788551 0.120492 0.161496 -0.173340
C213  C     C_R   0.711446 0.620493 0.838505 -0.173340
C214  C     C_R   0.288554 0.379507 0.838505 -0.173339
C215  C     C_R   0.711448 0.379508 0.161495 -0.173339
C216  C     C_R   0.288552 0.620492 0.161496 -0.173340
C217  C     C_R   0.711446 0.120493 0.338505 -0.173340
C218  C     C_R   0.288554 0.879507 0.338505 -0.173339
C219  C     C_R   0.711448 0.879508 0.661496 -0.173339
C220  C     C_R   0.288551 0.120492 0.661496 -0.173340
C221  C     C_R   0.211446 0.620493 0.338505 -0.173340
C222  C     C_R   0.788554 0.379507 0.338505 -0.173339
C223  C     C_R   0.211448 0.379508 0.661496 -0.173339
C224  C     C_R   0.788551 0.620492 0.661496 -0.173340
H1    H     H_    0.388458 0.917333 0.015979 0.184159
H2    H     H_    0.611542 0.082667 0.015980 0.184159
H3    H     H_    0.388459 0.082667 0.984021 0.184159
H4    H     H_    0.611541 0.917333 0.984021 0.184159
H5    H     H_    0.888458 0.417333 0.015979 0.184159
H6    H     H_    0.111542 0.582667 0.015980 0.184159
H7    H     H_    0.888459 0.582667 0.984021 0.184159
H8    H     H_    0.111541 0.417333 0.984021 0.184159
H9    H     H_    0.888458 0.917333 0.515979 0.184159
H10   H     H_    0.111542 0.082667 0.515980 0.184159
H11   H     H_    0.888459 0.082667 0.484021 0.184159
H12   H     H_    0.111541 0.917333 0.484021 0.184159
H13   H     H_    0.388458 0.417333 0.515979 0.184159
H14   H     H_    0.611542 0.582667 0.515980 0.184159
H15   H     H_    0.388459 0.582667 0.484021 0.184159
H16   H     H_    0.611541 0.417333 0.484021 0.184159
H17   H     H_    0.182740 0.059676 0.866467 0.150833
H18   H     H_    0.817260 0.940323 0.866467 0.150833
H19   H     H_    0.182743 0.940325 0.133534 0.150835
H20   H     H_    0.817257 0.059675 0.133534 0.150835
H21   H     H_    0.682740 0.559676 0.866467 0.150833
H22   H     H_    0.317260 0.440323 0.866467 0.150833
H23   H     H_    0.682743 0.440325 0.133534 0.150835
H24   H     H_    0.317257 0.559675 0.133534 0.150835
H25   H     H_    0.682740 0.059677 0.366467 0.150833
H26   H     H_    0.317260 0.940323 0.366467 0.150833
H27   H     H_    0.682743 0.940325 0.633535 0.150835
H28   H     H_    0.317257 0.059675 0.633535 0.150835
H29   H     H_    0.182740 0.559676 0.366467 0.150833
H30   H     H_    0.817260 0.440323 0.366467 0.150833
H31   H     H_    0.182743 0.440325 0.633535 0.150835
H32   H     H_    0.817257 0.559675 0.633535 0.150835
H33   H     H_    0.181928 0.116843 0.810112 0.148796
H34   H     H_    0.818071 0.883157 0.810112 0.148796
H35   H     H_    0.181932 0.883158 0.189890 0.148794
H36   H     H_    0.818068 0.116842 0.189890 0.148794
H37   H     H_    0.681929 0.616843 0.810112 0.148796
H38   H     H_    0.318072 0.383156 0.810112 0.148796
H39   H     H_    0.681932 0.383158 0.189890 0.148794
H40   H     H_    0.318068 0.616842 0.189890 0.148794
H41   H     H_    0.681929 0.116843 0.310112 0.148796
H42   H     H_    0.318072 0.883157 0.310112 0.148796
H43   H     H_    0.681932 0.883158 0.689890 0.148794
H44   H     H_    0.318068 0.116842 0.689890 0.148794
H45   H     H_    0.181928 0.616843 0.310112 0.148796
H46   H     H_    0.818071 0.383156 0.310112 0.148796
H47   H     H_    0.181932 0.383158 0.689890 0.148794
H48   H     H_    0.818068 0.616842 0.689890 0.148794
H49   H     H_    0.317808 0.190234 0.883222 0.170655
H50   H     H_    0.682192 0.809766 0.883222 0.170655
H51   H     H_    0.317804 0.809764 0.116776 0.170653
H52   H     H_    0.682196 0.190236 0.116776 0.170654
H53   H     H_    0.817808 0.690234 0.883222 0.170655
H54   H     H_    0.182192 0.309766 0.883222 0.170655
H55   H     H_    0.817804 0.309764 0.116776 0.170653
H56   H     H_    0.182196 0.690236 0.116776 0.170654
H57   H     H_    0.817808 0.190234 0.383222 0.170655
H58   H     H_    0.182192 0.809766 0.383222 0.170655
H59   H     H_    0.817804 0.809764 0.616776 0.170653
H60   H     H_    0.182196 0.190236 0.616776 0.170654
H61   H     H_    0.317808 0.690234 0.383222 0.170655
H62   H     H_    0.682192 0.309766 0.383222 0.170655
H63   H     H_    0.317804 0.309764 0.616776 0.170653
H64   H     H_    0.682196 0.690236 0.616776 0.170654
H65   H     H_    0.316691 0.133967 0.940446 0.186371
H66   H     H_    0.683309 0.866033 0.940446 0.186371
H67   H     H_    0.316687 0.866031 0.059552 0.186374
H68   H     H_    0.683312 0.133969 0.059552 0.186374
H69   H     H_    0.816691 0.633967 0.940446 0.186371
H70   H     H_    0.183309 0.366033 0.940446 0.186371
H71   H     H_    0.816687 0.366031 0.059552 0.186374
H72   H     H_    0.183312 0.633969 0.059552 0.186374
H73   H     H_    0.816691 0.133967 0.440446 0.186371
H74   H     H_    0.183309 0.866033 0.440446 0.186371
H75   H     H_    0.816687 0.866031 0.559552 0.186374
H76   H     H_    0.183312 0.133969 0.559552 0.186374
H77   H     H_    0.316691 0.633967 0.440446 0.186371
H78   H     H_    0.683309 0.366033 0.440446 0.186371
H79   H     H_    0.316687 0.366031 0.559552 0.186374
H80   H     H_    0.683313 0.633969 0.559552 0.186374
H81   H     H_    0.056589 0.929176 0.999553 0.156923
H82   H     H_    0.943411 0.070823 0.999553 0.156923
H83   H     H_    0.056590 0.070823 0.000447 0.156923
H84   H     H_    0.943410 0.929176 0.000447 0.156923
H85   H     H_    0.556589 0.429176 0.999553 0.156923
H86   H     H_    0.443410 0.570824 0.999553 0.156923
H87   H     H_    0.556589 0.570824 0.000447 0.156923
H88   H     H_    0.443410 0.429176 0.000447 0.156923
H89   H     H_    0.556589 0.929176 0.499553 0.156923
H90   H     H_    0.443410 0.070823 0.499553 0.156923
H91   H     H_    0.556590 0.070823 0.500447 0.156923
H92   H     H_    0.443410 0.929176 0.500447 0.156923
H93   H     H_    0.056589 0.429176 0.499553 0.156923
H94   H     H_    0.943411 0.570824 0.499553 0.156923
H95   H     H_    0.056589 0.570824 0.500447 0.156923
H96   H     H_    0.943410 0.429176 0.500447 0.156923
O1    O     O_R   0.250000 0.071660 0.980070 -0.616418
O2    O     O_R   0.750000 0.928340 0.980070 -0.616418
O3    O     O_R   0.250000 0.928340 0.019930 -0.616419
O4    O     O_R   0.750000 0.071660 0.019930 -0.616419
O5    O     O_R   0.750000 0.571660 0.980070 -0.616418
O6    O     O_R   0.250000 0.428340 0.980070 -0.616418
O7    O     O_R   0.750000 0.428340 0.019930 -0.616419
O8    O     O_R   0.250000 0.571660 0.019930 -0.616419
O9    O     O_R   0.750000 0.071660 0.480070 -0.616418
O10   O     O_R   0.250000 0.928340 0.480070 -0.616418
O11   O     O_R   0.750000 0.928340 0.519930 -0.616419
O12   O     O_R   0.250000 0.071660 0.519930 -0.616419
O13   O     O_R   0.250000 0.571660 0.480070 -0.616418
O14   O     O_R   0.750000 0.428340 0.480070 -0.616418
O15   O     O_R   0.250000 0.428340 0.519930 -0.616419
O16   O     O_R   0.750000 0.571660 0.519930 -0.616419
O17   O     O_R   0.250010 0.019960 0.928320 -0.617700
O18   O     O_R   0.749990 0.980040 0.928320 -0.617700
O19   O     O_R   0.250010 0.980040 0.071680 -0.617700
O20   O     O_R   0.749990 0.019960 0.071680 -0.617700
O21   O     O_R   0.750010 0.519960 0.928320 -0.617700
O22   O     O_R   0.249990 0.480040 0.928320 -0.617700
O23   O     O_R   0.750010 0.480040 0.071680 -0.617700
O24   O     O_R   0.249990 0.519960 0.071680 -0.617700
O25   O     O_R   0.750010 0.019960 0.428320 -0.617700
O26   O     O_R   0.249990 0.980040 0.428320 -0.617700
O27   O     O_R   0.750010 0.980040 0.571680 -0.617700
O28   O     O_R   0.249990 0.019960 0.571680 -0.617700
O29   O     O_R   0.250010 0.519960 0.428320 -0.617700
O30   O     O_R   0.749990 0.480040 0.428320 -0.617700
O31   O     O_R   0.250010 0.480040 0.571680 -0.617700
O32   O     O_R   0.749990 0.519960 0.571680 -0.617700
O33   O     O_R   0.341630 0.025860 0.025880 -0.615508
O34   O     O_R   0.658370 0.974140 0.025880 -0.615508
O35   O     O_R   0.341630 0.974140 0.974120 -0.615508
O36   O     O_R   0.658370 0.025860 0.974120 -0.615508
O37   O     O_R   0.841630 0.525860 0.025880 -0.615508
O38   O     O_R   0.158370 0.474140 0.025880 -0.615508
O39   O     O_R   0.841630 0.474140 0.974120 -0.615508
O40   O     O_R   0.158370 0.525860 0.974120 -0.615508
O41   O     O_R   0.841630 0.025860 0.525880 -0.615508
O42   O     O_R   0.158370 0.974140 0.525880 -0.615508
O43   O     O_R   0.841630 0.974140 0.474120 -0.615508
O44   O     O_R   0.158370 0.025860 0.474120 -0.615508
O45   O     O_R   0.341630 0.525860 0.525880 -0.615508
O46   O     O_R   0.658370 0.474140 0.525880 -0.615508
O47   O     O_R   0.341630 0.474140 0.474120 -0.615508
O48   O     O_R   0.658370 0.525860 0.474120 -0.615508
O49   O     O_R   0.158400 0.025850 0.025870 -0.617654
O50   O     O_R   0.841600 0.974150 0.025870 -0.617653
O51   O     O_R   0.158400 0.974150 0.974130 -0.617653
O52   O     O_R   0.841600 0.025850 0.974130 -0.617653
O53   O     O_R   0.658400 0.525850 0.025870 -0.617654
O54   O     O_R   0.341600 0.474150 0.025870 -0.617653
O55   O     O_R   0.658400 0.474150 0.974130 -0.617653
O56   O     O_R   0.341600 0.525850 0.974130 -0.617653
O57   O     O_R   0.658400 0.025850 0.525870 -0.617654
O58   O     O_R   0.341600 0.974150 0.525870 -0.617653
O59   O     O_R   0.658400 0.974150 0.474130 -0.617653
O60   O     O_R   0.341600 0.025850 0.474130 -0.617653
O61   O     O_R   0.158400 0.525850 0.525870 -0.617654
O62   O     O_R   0.841600 0.474150 0.525870 -0.617653
O63   O     O_R   0.158400 0.474150 0.474130 -0.617653
O64   O     O_R   0.841600 0.525850 0.474130 -0.617653
O65   O     O_R   0.198320 0.795840 0.295890 -0.617586
O66   O     O_R   0.801680 0.204160 0.295890 -0.617586
O67   O     O_R   0.198320 0.204160 0.704110 -0.617585
O68   O     O_R   0.801680 0.795840 0.704110 -0.617585
O69   O     O_R   0.698320 0.295840 0.295890 -0.617586
O70   O     O_R   0.301680 0.704160 0.295890 -0.617586
O71   O     O_R   0.698320 0.704160 0.704110 -0.617585
O72   O     O_R   0.301680 0.295840 0.704110 -0.617585
O73   O     O_R   0.698320 0.795840 0.795890 -0.617586
O74   O     O_R   0.301680 0.204160 0.795890 -0.617586
O75   O     O_R   0.698320 0.204160 0.204110 -0.617585
O76   O     O_R   0.301680 0.795840 0.204110 -0.617585
O77   O     O_R   0.198320 0.295840 0.795890 -0.617586
O78   O     O_R   0.801680 0.704160 0.795890 -0.617586
O79   O     O_R   0.198320 0.704160 0.204110 -0.617585
O80   O     O_R   0.801680 0.295840 0.204110 -0.617585
O81   O     O_R   0.301770 0.795830 0.295870 -0.615245
O82   O     O_R   0.698230 0.204170 0.295870 -0.615245
O83   O     O_R   0.301770 0.204170 0.704130 -0.615245
O84   O     O_R   0.698230 0.795830 0.704130 -0.615245
O85   O     O_R   0.801770 0.295830 0.295870 -0.615245
O86   O     O_R   0.198230 0.704170 0.295870 -0.615245
O87   O     O_R   0.801770 0.704170 0.704130 -0.615245
O88   O     O_R   0.198230 0.295830 0.704130 -0.615245
O89   O     O_R   0.801770 0.795830 0.795870 -0.615245
O90   O     O_R   0.198230 0.204170 0.795870 -0.615245
O91   O     O_R   0.801770 0.204170 0.204130 -0.615245
O92   O     O_R   0.198230 0.795830 0.204130 -0.615245
O93   O     O_R   0.301770 0.295830 0.795870 -0.615245
O94   O     O_R   0.698230 0.704170 0.795870 -0.615245
O95   O     O_R   0.301770 0.704170 0.204130 -0.615245
O96   O     O_R   0.698230 0.295830 0.204130 -0.615245
Zn1   Zn    Zn3+2 0.250010 0.034530 0.034550 1.001822
Zn2   Zn    Zn3+2 0.749990 0.965470 0.034550 1.001822
Zn3   Zn    Zn3+2 0.250010 0.965470 0.965450 1.001821
Zn4   Zn    Zn3+2 0.749990 0.034530 0.965450 1.001821
Zn5   Zn    Zn3+2 0.750010 0.534530 0.034550 1.001822
Zn6   Zn    Zn3+2 0.249990 0.465470 0.034550 1.001822
Zn7   Zn    Zn3+2 0.750010 0.465470 0.965450 1.001821
Zn8   Zn    Zn3+2 0.249990 0.534530 0.965450 1.001821
Zn9   Zn    Zn3+2 0.750010 0.034530 0.534550 1.001822
Zn10  Zn    Zn3+2 0.249990 0.965470 0.534550 1.001822
Zn11  Zn    Zn3+2 0.750010 0.965470 0.465450 1.001821
Zn12  Zn    Zn3+2 0.249990 0.034530 0.465450 1.001821
Zn13  Zn    Zn3+2 0.250010 0.534530 0.534550 1.001822
Zn14  Zn    Zn3+2 0.749990 0.465470 0.534550 1.001822
Zn15  Zn    Zn3+2 0.250010 0.465470 0.465450 1.001821
Zn16  Zn    Zn3+2 0.749990 0.534530 0.465450 1.001821
Zn17  Zn    Zn3+2 0.180950 0.750000 0.250000 0.998942
Zn18  Zn    Zn3+2 0.819050 0.250000 0.250000 0.998942
Zn19  Zn    Zn3+2 0.180950 0.250000 0.750000 0.998942
Zn20  Zn    Zn3+2 0.819050 0.750000 0.750000 0.998942
Zn21  Zn    Zn3+2 0.680950 0.250000 0.250000 0.998942
Zn22  Zn    Zn3+2 0.319050 0.750000 0.250000 0.998942
Zn23  Zn    Zn3+2 0.680950 0.750000 0.750000 0.998942
Zn24  Zn    Zn3+2 0.319050 0.250000 0.750000 0.998942
Cl1   Cl    Cl    0.427537 0.170172 0.988455 -0.554899
Cl2   Cl    Cl    0.572463 0.829828 0.988455 -0.554899
Cl3   Cl    Cl    0.427536 0.829828 0.011546 -0.554902
Cl4   Cl    Cl    0.572464 0.170172 0.011546 -0.554902
Cl5   Cl    Cl    0.927537 0.670172 0.988455 -0.554899
Cl6   Cl    Cl    0.072463 0.329828 0.988455 -0.554899
Cl7   Cl    Cl    0.927536 0.329828 0.011546 -0.554901
Cl8   Cl    Cl    0.072464 0.670172 0.011546 -0.554902
Cl9   Cl    Cl    0.927537 0.170172 0.488455 -0.554899
Cl10  Cl    Cl    0.072463 0.829828 0.488455 -0.554899
Cl11  Cl    Cl    0.927536 0.829828 0.511546 -0.554902
Cl12  Cl    Cl    0.072464 0.170172 0.511546 -0.554902
Cl13  Cl    Cl    0.427537 0.670172 0.488455 -0.554899
Cl14  Cl    Cl    0.572463 0.329828 0.488455 -0.554899
Cl15  Cl    Cl    0.427536 0.329828 0.511546 -0.554901
Cl16  Cl    Cl    0.572464 0.670172 0.511546 -0.554902

loop_
_geom_bond_atom_site_label_1
_geom_bond_atom_site_label_2
_ccdc_geom_bond_type
O83   Zn24  S    
O57   Zn9   S    
C92   H92   S    
C211  H35   S    
C148  C177  A    
C104  C135  S    
C93   H93   S    
C26   C218  A    
C117  O77   A    
C121  O35   A    
C95   H95   S    
C53   C69   A    
C42   C58   A    
C146  H10   S    
C123  O39   A    
C30   C222  A    
C23   C215  A    
C130  O50   A    
C46   C62   A    
C18   C210  A    
C158  Cl8   S    
C126  O42   A    
C2    O18   A    
C60   H76   S    
C61   H77   S    
O26   Zn12  S    
C138  H2    S    
C182  C183  A    
O66   Zn18  S    
O34   Zn2   S    
C12   O28   A    
O53   Zn5   S    
C56   C72   A    
C149  H13   S    
C31   C112  S    
C63   H79   S    
C144  C160  A    
C6    O22   A    
C138  C154  A    
O19   Zn1   S    
C160  Cl6   S    
C28   C220  A    
C35   H51   S    
O17   Zn3   S    
C200  H24   S    
C182  C192  A    
C142  C158  A    
C26   C105  S    
C32   C224  A    
C214  H38   S    
C176  C188  A    
C114  O74   A    
C87   H87   S    
C3    O3    A    
C108  O68   A    
C116  O92   A    
C171  C185  A    
C30   C109  S    
C46   H62   S    
O15   Zn15  S    
C10   O26   A    
C25   C41   A    
C73   C201  A    
O81   Zn22  S    
C28   C44   A    
C29   C45   A    
C16   C80   S    
C122  O34   A    
C145  C161  A    
C37   C53   A    
C51   H67   S    
C77   C205  A    
C224  H48   S    
O92   Zn17  S    
C209  H33   S    
C54   C70   A    
C137  C153  A    
O36   Zn4   S    
C153  C156  A    
O37   Zn5   S    
C86   C99   A    
C154  C155  A    
C168  Cl14  S    
C140  C156  A    
C43   H59   S    
C141  C157  A    
C157  C160  A    
O24   Zn6   S    
C165  Cl15  S    
C15   O31   A    
C158  C159  A    
C219  H43   S    
C163  Cl9   S    
C198  C214  A    
O20   Zn2   S    
C161  Cl11  S    
C151  C182  A    
O62   Zn14  S    
O13   Zn13  S    
C138  C171  A    
O77   Zn19  S    
O52   Zn4   S    
C7    O23   A    
C112  O88   A    
C142  C175  A    
C122  O36   A    
C19   C35   A    
C47   C63   A    
C131  O55   A    
C27   C108  S    
C79   C207  A    
C98   C129  S    
C197  H21   S    
C218  H42   S    
C14   O30   A    
C20   C212  A    
O10   Zn10  S    
C88   C99   A    
C48   C64   A    
C117  O93   A    
C196  C212  A    
C133  O57   A    
C180  C190  A    
C148  H12   S    
C152  C181  A    
C33   C49   A    
C36   H52   S    
C55   C71   A    
C13   O29   A    
C22   C38   A    
C109  O85   A    
C207  C223  A    
C140  C169  A    
C32   C111  S    
C43   C59   A    
C107  O83   A    
C105  O81   A    
C96   H96   S    
C178  C179  A    
C167  Cl13  S    
C81   H81   S    
O43   Zn11  S    
O41   Zn9   S    
C199  C215  A    
C44   C60   A    
C57   H73   S    
O6    Zn6   S    
C151  C167  A    
C142  H6    S    
C128  O48   A    
C170  C171  A    
C150  C166  A    
C126  O44   A    
C136  O62   A    
C6    O6    A    
C174  C175  A    
C137  H1    S    
C129  O51   A    
C15   C79   S    
C61   C77   A    
C118  O78   A    
C83   C98   A    
C120  O80   A    
C146  C179  A    
C149  C184  A    
C1    C65   S    
C94   H94   S    
C123  O37   A    
C55   H71   S    
C115  O91   A    
C56   H72   S    
O89   Zn20  S    
C70   C198  A    
O90   Zn19  S    
C10   O10   A    
C18   C113  S    
C58   H74   S    
C18   C34   A    
C166  Cl16  S    
C140  H4    S    
C148  C164  A    
C149  C165  A    
C162  Cl12  S    
C4    C68   S    
C75   C203  A    
C131  O53   A    
C110  O86   A    
O54   Zn6   S    
C213  H37   S    
C103  C136  S    
C39   H55   S    
C194  C210  A    
C119  O79   A    
C159  Cl5   S    
C179  C189  A    
C139  C155  A    
C51   C67   A    
C54   H70   S    
C203  H27   S    
C80   C208  A    
O80   Zn18  S    
C201  H25   S    
O11   Zn11  S    
C21   C213  A    
C136  O64   A    
C205  H29   S    
C58   C74   A    
C87   C100  A    
C85   C88   A    
C195  H19   S    
C173  C187  A    
O82   Zn21  S    
C193  H17   S    
C62   C78   A    
C124  O38   A    
C2    C66   S    
C106  O82   A    
C20   C115  S    
C208  C224  A    
O60   Zn12  S    
C202  C218  A    
C102  C133  S    
C11   C75   S    
C7    O7    A    
C24   C216  A    
O23   Zn5   S    
C33   H49   S    
C19   C116  S    
C206  C222  A    
C200  C216  A    
O51   Zn3   S    
C13   O13   A    
O49   Zn1   S    
C107  O67   A    
O30   Zn16  S    
O14   Zn14  S    
C31   C47   A    
C143  H7    S    
C66   C194  A    
C1    O17   A    
C37   H53   S    
C16   O16   A    
C220  H44   S    
C157  Cl7   S    
C27   C219  A    
C145  H9    S    
O8    Zn8   S    
C25   C217  A    
O71   Zn23  S    
C111  O71   A    
C29   C221  A    
C146  C162  A    
C26   C42   A    
C99   C132  S    
C204  C220  A    
C19   C211  A    
C84   C97   A    
C93   C96   A    
C97   C130  S    
C17   C209  A    
C3    O19   A    
C178  C190  A    
O45   Zn13  S    
C118  O94   A    
C125  O41   A    
C81   C98   A    
C141  H5    S    
C44   H60   S    
C45   H61   S    
C139  H3    S    
C123  C188  S    
O22   Zn8   S    
C137  C172  A    
C5    C69   S    
C90   H90   S    
C135  O63   A    
C121  C186  S    
C64   C80   A    
O78   Zn20  S    
O28   Zn10  S    
C40   C56   A    
C130  O52   A    
C141  C176  A    
C184  C192  A    
C125  C190  S    
C9    O9    A    
O74   Zn24  S    
O75   Zn21  S    
C39   C55   A    
C82   H82   S    
C14   O14   A    
O61   Zn13  S    
O7    Zn7   S    
O63   Zn15  S    
O42   Zn10  S    
C124  O40   A    
C17   C33   A    
O70   Zn22  S    
C152  C168  A    
C30   C46   A    
C25   C106  S    
C65   C193  A    
O4    Zn4   S    
C3    C67   S    
C8    C72   S    
O64   Zn16  S    
O27   Zn9   S    
C62   H78   S    
C215  H39   S    
C29   C110  S    
C216  H40   S    
C119  O95   A    
C84   H84   S    
C86   C87   A    
C85   H85   S    
C74   C202  A    
C212  H36   S    
C183  C191  A    
C116  O76   A    
C78   C206  A    
C21   C118  S    
C11   O27   A    
C38   C54   A    
C170  C186  A    
C5    O5    A    
C68   C196  A    
O16   Zn16  S    
C49   C65   A    
C92   C101  A    
O86   Zn17  S    
C59   H75   S    
O48   Zn16  S    
C94   C103  A    
C217  H41   S    
C12   C76   S    
C82   C97   A    
C164  Cl10  S    
O55   Zn7   S    
O96   Zn21  S    
C161  C164  A    
C197  C213  A    
O56   Zn8   S    
C120  O96   A    
C162  C163  A    
C181  C184  A    
C6    C70   S    
C24   C119  S    
C144  H8    S    
O1    Zn1   S    
C1    O1    A    
C127  O47   A    
O73   Zn23  S    
C210  H34   S    
C151  H15   S    
C169  C185  A    
C12   O12   A    
O31   Zn13  S    
C41   C57   A    
C47   H63   S    
C135  O61   A    
C181  C191  A    
C90   C91   A    
C32   C48   A    
C198  H22   S    
C145  C180  A    
C45   C61   A    
C60   C76   A    
C125  O43   A    
O79   Zn17  S    
C94   C95   A    
O47   Zn15  S    
C16   O32   A    
C110  O70   A    
O25   Zn11  S    
C128  O46   A    
C20   C36   A    
C27   C43   A    
C21   C37   A    
C40   H56   S    
C82   C83   A    
C155  Cl1   S    
C96   C103  A    
C147  C163  A    
C153  Cl3   S    
C143  C174  A    
C154  Cl4   S    
C8    O24   A    
C147  H11   S    
C22   C117  S    
O39   Zn7   S    
C89   C102  A    
C64   H80   S    
C133  O59   A    
C49   H65   S    
C4    O20   A    
C100  C131  S    
C63   C79   A    
C101  C134  S    
C223  H47   S    
C34   H50   S    
O67   Zn19  S    
O32   Zn14  S    
C196  H20   S    
O65   Zn17  S    
C115  O75   A    
C41   H57   S    
C7    C71   S    
C113  O73   A    
O50   Zn2   S    
O40   Zn8   S    
C28   C107  S    
C57   C73   A    
O58   Zn10  S    
O2    Zn2   S    
C139  C170  A    
O12   Zn12  S    
C106  O66   A    
C207  H31   S    
C132  O56   A    
C174  C188  A    
C38   H54   S    
C172  C186  A    
C150  H14   S    
C144  C173  A    
O93   Zn24  S    
C156  Cl2   S    
C50   H66   S    
O94   Zn23  S    
C52   C68   A    
O91   Zn18  S    
C134  O60   A    
O38   Zn6   S    
C11   O11   A    
C69   C197  A    
C9    C73   S    
C52   H68   S    
C67   C195  A    
C93   C104  A    
C53   H69   S    
C42   H58   S    
C17   C114  S    
C127  O45   A    
C71   C199  A    
O46   Zn14  S    
C13   C77   S    
C34   C50   A    
C177  C189  A    
O21   Zn7   S    
C121  O33   A    
C109  O69   A    
C23   C120  S    
C91   H91   S    
C122  C185  S    
C2    O2    A    
C175  C187  A    
O29   Zn15  S    
O76   Zn22  S    
C111  O87   A    
C108  O84   A    
C204  H28   S    
C126  C189  S    
C90   C101  A    
C195  C211  A    
C72   C200  A    
C89   H89   S    
C193  C209  A    
C152  H16   S    
C83   H83   S    
C177  C180  A    
C132  O54   A    
O72   Zn24  S    
C89   C92   A    
C50   C66   A    
C129  O49   A    
O68   Zn20  S    
C31   C223  A    
O69   Zn21  S    
C202  H26   S    
C165  C168  A    
C22   C214  A    
C166  C167  A    
C169  C172  A    
O35   Zn3   S    
C91   C102  A    
O9    Zn9   S    
C206  H30   S    
C59   C75   A    
C81   C84   A    
C221  H45   S    
C95   C104  A    
C173  C176  A    
C86   H86   S    
C194  H18   S    
C114  O90   A    
C15   O15   A    
C36   C52   A    
C124  C187  S    
C105  O65   A    
O18   Zn4   S    
C76   C204  A    
C150  C183  A    
C199  H23   S    
O33   Zn1   S    
C127  C192  S    
C203  C219  A    
C128  C191  S    
C5    O21   A    
O88   Zn19  S    
O44   Zn12  S    
C201  C217  A    
C85   C100  A    
C35   C51   A    
C10   C74   S    
C147  C178  A    
O87   Zn20  S    
C112  O72   A    
O84   Zn23  S    
C23   C39   A    
C205  C221  A    
O85   Zn18  S    
C24   C40   A    
C143  C159  A    
C14   C78   S    
O95   Zn22  S    
O5    Zn5   S    
C8    O8    A    
C134  O58   A    
C113  O89   A    
C222  H46   S    
O3    Zn3   S    
C9    O25   A    
C4    O4    A    
C208  H32   S    
O59   Zn11  S    
C48   H64   S    
C88   H88   S    
