data_mof_unit_18636.cif
_audit_creation_date              2012-12-10T17:36:21-0500
_audit_creation_method            fapswitch 2.2
_symmetry_space_group_name_H-M    P1
_symmetry_Int_Tables_number       1
_space_group_crystal_system       triclinic
_cell_length_a                    12.338646
_cell_length_b                    13.182843
_cell_length_c                    15.875721
_cell_angle_alpha                 77.674136
_cell_angle_beta                  101.440148
_cell_angle_gamma                 116.586854
_cell_volume                      2240.35357219

loop_
_atom_site_label
_atom_site_type_symbol
_atom_type_description
_atom_site_fract_x
_atom_site_fract_y
_atom_site_fract_z
_atom_type_partial_charge
C1    C     C_R   0.854876 0.286604 0.508029 0.866357
C2    C     C_R   0.227466 0.835481 0.475467 -0.141349
C3    C     C_R   0.811830 0.090788 0.579647 -0.283495
C4    C     C_R   0.999912 0.499896 0.659490 0.817144
C5    C     C_R   0.728181 0.987019 0.616361 -0.198136
C6    C     C_R   0.603526 0.954685 0.592910 0.502843
C7    C     C_R   0.561360 0.018310 0.520035 -0.075868
C8    C     C_R   0.647689 0.124245 0.481413 -0.054243
C9    C     C_R   0.436396 0.982309 0.486302 0.006586
C10   C     C_R   0.396302 0.060174 0.429010 -0.002532
C11   C     C_R   0.482422 0.162965 0.391076 -0.313615
C12   C     C_3   0.067480 0.437097 0.069696 0.408302
C13   C     C_R   0.608102 0.188844 0.408486 0.507216
C14   C     C_R   0.351494 0.868515 0.502903 -0.180157
C15   C     C_R   0.186060 0.917245 0.430342 -0.259508
C16   C     C_R   0.145053 0.713502 0.488142 0.834009
C17   C     C_R   0.772065 0.163977 0.518029 -0.087979
C18   C     C_R   0.349243 0.331054 0.641523 0.327576
C19   C     C_R   0.759479 0.645823 0.383839 0.065199
C20   C     C_R   0.663236 0.677932 0.358731 -0.253567
C21   C     C_R   0.560234 0.623428 0.402885 -0.175332
C22   C     C_R   0.552057 0.535313 0.473113 0.045234
C23   C     C_3   0.997254 0.506530 0.081432 0.072096
C24   C     C_R   0.653132 0.505211 0.496119 0.294762
C25   C     C_R   0.448213 0.476296 0.521442 -0.079279
C26   C     C_R   0.447943 0.388591 0.591221 0.008172
C27   C     C_R   0.545365 0.357732 0.609261 -0.227529
C28   C     C_R   0.000117 0.500202 0.340483 0.839463
C29   C     C_R   0.646568 0.416879 0.564964 -0.198657
C30   C     C_R   0.343530 0.499377 0.502969 -0.081844
C31   C     C_R   0.246369 0.355332 0.617407 0.601111
C32   C     C_3   0.058851 0.430764 0.971954 -0.518120
C33   C     C_3   0.864172 0.455848 0.937188 -0.245321
C34   C     C_3   0.058344 0.633746 0.033626 -0.274137
C35   C     C_3   0.859705 0.447062 0.038450 0.324308
C36   C     C_1   0.000360 0.501298 0.250874 -0.137082
C37   C     C_3   0.998879 0.507717 0.915141 0.109729
C38   C     C_3   0.237594 0.408108 0.141896 -0.289826
C39   C     C_3   0.191191 0.081591 0.268515 -0.366996
C40   C     C_3   0.497368 0.908529 0.707193 -0.287158
C41   C     C_3   0.651494 0.334595 0.286548 -0.242710
C42   C     C_3   0.151743 0.301128 0.741698 -0.261181
C43   C     C_3   0.418563 0.293986 0.784195 -0.346587
C44   C     C_2   0.787388 0.510245 0.875545 0.418745
C45   C     C_3   0.076898 0.631495 0.939773 -0.183999
C46   C     C_3   0.687542 0.263625 0.054087 -0.254445
C47   C     C_2   0.785101 0.504860 0.059006 0.402635
C48   C     C_2   0.057077 0.726400 0.875420 0.386422
C49   C     C_2   0.176713 0.716018 0.078509 0.429501
C50   C     C_1   0.999422 0.503323 0.174939 0.031964
C51   C     C_1   0.000674 0.504051 0.823711 -0.004159
C52   C     C_1   0.000673 0.501565 0.748739 -0.153124
C53   C     C_R   0.270243 0.028776 0.403546 0.536726
Cu1   Cu    Cu3+1 0.098280 0.475420 0.519630 0.996676
Cu2   Cu    Cu3+1 0.901720 0.524580 0.480370 0.954459
H1    H     H_    0.021285 0.347783 0.103623 0.118366
H2    H     H_    0.544752 0.286713 0.658453 0.179094
H3    H     H_    0.336295 0.564459 0.451149 0.163427
H4    H     H_    0.839153 0.688891 0.349347 0.124875
H5    H     H_    0.488801 0.652091 0.380756 0.152319
H6    H     H_    0.668610 0.745518 0.304955 0.157991
H7    H     H_    0.718017 0.390070 0.587695 0.192452
H8    H     H_    0.823025 0.366657 0.921789 0.117459
H9    H     H_    0.174517 0.650457 0.939413 0.176823
H10   H     H_    0.222973 0.349579 0.095392 0.130966
H11   H     H_    0.195091 0.358425 0.201924 0.171770
H12   H     H_    0.151347 0.457408 0.953520 0.203403
H13   H     H_    0.337311 0.453178 0.160497 0.205498
H14   H     H_    0.265227 0.078841 0.240019 0.154659
H15   H     H_    0.167616 0.150059 0.227744 0.186498
H16   H     H_    0.107921 0.999482 0.265587 0.165877
H17   H     H_    0.449866 0.963949 0.675564 0.178516
H18   H     H_    0.580719 0.956716 0.749703 0.152933
H19   H     H_    0.434527 0.835900 0.749197 0.209083
H20   H     H_    0.579886 0.279454 0.240676 0.138127
H21   H     H_    0.727853 0.394985 0.248865 0.191472
H22   H     H_    0.619161 0.386829 0.312603 0.161152
H23   H     H_    0.994192 0.673075 0.029290 0.084284
H24   H     H_    0.061738 0.286890 0.757177 0.161012
H25   H     H_    0.217750 0.388685 0.755914 0.136085
H26   H     H_    0.176297 0.234812 0.785122 0.191723
H27   H     H_    0.407724 0.370566 0.792664 0.152720
H28   H     H_    0.516589 0.317418 0.783716 0.158504
H29   H     H_    0.388880 0.229166 0.842217 0.186915
H30   H     H_    0.723592 0.464628 0.824188 0.048860
H31   H     H_    0.653063 0.290252 0.986978 0.155403
H32   H     H_    0.633462 0.266609 0.100850 0.189096
H33   H     H_    0.671750 0.173049 0.058544 0.169657
H34   H     H_    0.089519 0.892997 0.410575 0.166961
H35   H     H_    0.825097 0.568630 0.102849 0.028576
H36   H     H_    0.008410 0.770015 0.890715 0.118537
H37   H     H_    0.219820 0.803701 0.046956 0.033240
H38   H     H_    0.449654 0.217362 0.342843 0.179351
H39   H     H_    0.381893 0.802607 0.531924 0.221765
H40   H     H_    0.906856 0.118601 0.606298 0.223282
H41   H     H_    0.759807 0.936035 0.669267 0.181819
H42   H     H_    0.004853 0.340195 0.959961 0.146282
N1    N     N_R   0.246300 0.438200 0.549400 -0.243707
N2    N     N_R   0.754300 0.561180 0.451130 -0.206347
O1    O     O_R   0.972520 0.318130 0.524690 -0.537834
O2    O     O_3   0.229585 0.107874 0.354133 -0.573520
O3    O     O_3   0.525648 0.864120 0.645428 -0.599401
O4    O     O_3   0.695179 0.268986 0.354481 -0.576712
O5    O     O_3   0.138974 0.286839 0.654076 -0.551195
O6    O     O_3   0.347685 0.244676 0.709369 -0.561009
O7    O     O_2   0.797578 0.605233 0.880577 -0.538645
O8    O     O_3   0.813411 0.329458 0.077759 -0.616228
O9    O     O_2   0.678521 0.478678 0.028833 -0.556932
O10   O     O_2   0.097186 0.756286 0.805449 -0.534461
O11   O     O_2   0.224484 0.687972 0.148868 -0.498078
O12   O     O_R   0.806530 0.359650 0.491530 -0.581881
O13   O     O_R   0.083030 0.479240 0.637150 -0.558297
O14   O     O_R   0.917040 0.520750 0.603990 -0.590186
O15   O     O_R   0.193470 0.640350 0.508470 -0.591531
O16   O     O_R   0.027480 0.681870 0.475310 -0.584566
O17   O     O_R   0.082960 0.479250 0.396010 -0.565583
O18   O     O_R   0.916970 0.520760 0.362850 -0.589304
O19   O     O_3   0.191981 0.490494 0.104152 -0.520715

loop_
_geom_bond_atom_site_label_1
_geom_bond_atom_site_label_2
_ccdc_geom_bond_type
C42   H25   S    
C8    C13   A    
C27   C29   A    
C24   N2    A    
C43   H28   S    
C19   C20   A    
C18   C26   A    
C35   C47   S    
C7    C8    A    
C40   H18   S    
C12   C23   S    
C26   C27   A    
C4    C52   S    
C15   C53   A    
C28   O18   A    
C41   H22   S    
C5    C6    A    
C37   C51   S    
C41   H20   S    
Cu1   O15   S    
C32   H42   S    
C43   O6    S    
C31   N1    A    
C20   H6    S    
C10   C53   A    
C24   C29   A    
C28   O17   A    
Cu1   Cu2   S    
C38   H11   S    
C53   O2    S    
C48   H36   S    
Cu1   O17   S    
C13   O4    S    
C2    C16   S    
C9    C10   A    
C11   H38   S    
C48   O10   D    
C4    O13   A    
C42   H24   S    
C21   C22   A    
C12   C32   S    
C43   H29   S    
Cu1   O1    S    
C42   H26   S    
C1    O1    A    
C39   O2    S    
C46   H33   S    
C51   C52   T    
C4    O14   A    
C21   H5    S    
C27   H2    S    
C19   N2    A    
C23   C50   S    
Cu2   O14   S    
C19   H4    S    
C25   C26   A    
C22   C25   A    
C33   C37   S    
C41   O4    S    
C16   O15   A    
C9    C14   A    
C15   H34   S    
C38   H10   S    
C33   H8    S    
C23   C34   S    
C46   O8    S    
C39   H14   S    
Cu1   O13   S    
C34   C45   S    
C32   C37   S    
C2    C15   A    
C12   H1    S    
C32   H12   S    
C12   O19   S    
C38   H13   S    
C23   C35   S    
C47   H35   S    
C22   C24   A    
C49   H37   S    
C37   C45   S    
C44   H30   S    
C16   O16   A    
C5    H41   S    
C36   C50   T    
C46   H32   S    
Cu2   O18   S    
C45   C48   S    
C25   C30   A    
C7    C9    A    
C29   H7    S    
C34   C49   S    
C40   H17   S    
Cu2   O12   S    
C33   C44   S    
C3    C5    A    
C42   O5    S    
C6    C7    A    
C44   O7    D    
C30   N1    A    
C45   H9    S    
C1    C17   S    
C8    C17   A    
C31   O5    S    
C18   O6    S    
C1    O12   A    
C41   H21   S    
C11   C13   A    
Cu2   O16   S    
C30   H3    S    
C33   C35   S    
C39   H15   S    
C40   H19   S    
C3    C17   A    
C6    O3    S    
C2    C14   A    
C35   O8    S    
C10   C11   A    
C40   O3    S    
C38   O19   S    
C20   C21   A    
C28   C36   S    
C47   O9    D    
Cu2   N2    S    
C43   H27   S    
C39   H16   S    
Cu1   N1    S    
C3    H40   S    
C18   C31   A    
C14   H39   S    
C34   H23   S    
C49   O11   D    
C46   H31   S    
