data_mof_unit_22832.cif
_audit_creation_date              2012-12-11T14:08:04-0500
_audit_creation_method            fapswitch 2.2
_symmetry_space_group_name_H-M    P1
_symmetry_Int_Tables_number       1
_space_group_crystal_system       triclinic
_cell_length_a                    10.95438
_cell_length_b                    10.956584
_cell_length_c                    18.73397
_cell_angle_alpha                 90.387726
_cell_angle_beta                  90.092866
_cell_angle_gamma                 60.037523
_cell_volume                      1947.9449235

loop_
_atom_site_label
_atom_site_type_symbol
_atom_type_description
_atom_site_fract_x
_atom_site_fract_y
_atom_site_fract_z
_atom_type_partial_charge
C1    C     C_R   0.234585 0.646026 0.608476 0.559788
C2    C     C_3   0.741706 0.512020 0.798708 -0.258663
C3    C     C_3   0.691876 0.667925 0.816479 0.023085
C4    C     C_3   0.662039 0.642596 0.680323 0.053790
C5    C     C_3   0.763749 0.699351 0.691244 -0.252719
C6    C     C_3   0.725743 0.496790 0.718626 -0.272219
C7    C     C_2   0.675080 0.158416 0.671065 -0.118693
C8    C     C_2   0.688426 0.166806 0.827876 -0.121449
C9    C     C_2   0.800244 0.123825 0.784326 -0.177338
C10   C     C_2   0.781803 0.156332 0.707519 -0.174403
C11   C     C_2   0.179736 0.662797 0.681576 -0.124814
C12   C     C_R   0.650104 0.618315 0.603867 0.560098
C13   C     C_2   0.193384 0.660320 0.838788 -0.124235
C14   C     C_2   0.198140 0.552356 0.800738 0.066753
C15   C     C_2   0.192963 0.552561 0.720724 0.061776
C16   C     C_2   0.613480 0.613699 0.309130 0.265530
C17   C     C_2   0.622129 0.649775 0.148370 -0.084241
C18   C     C_2   0.690270 0.523585 0.181040 0.115604
C19   C     C_2   0.693304 0.507729 0.261186 0.089297
C20   C     C_2   0.629565 0.187417 0.320937 -0.072907
C21   C     C_2   0.641734 0.183005 0.169079 -0.122512
C22   C     C_2   0.525820 0.209012 0.203397 -0.133271
C23   C     C_R   0.628168 0.228268 0.602093 0.548647
C24   C     C_2   0.512641 0.240333 0.278631 0.229824
C25   C     C_2   0.142302 0.682900 0.335967 -0.041620
C26   C     C_2   0.009162 0.742751 0.194152 0.010039
C27   C     C_2   0.017638 0.838348 0.235733 -0.137308
C28   C     C_2   0.063984 0.815287 0.310681 0.243136
C29   C     C_R   0.703227 0.101828 0.897489 0.560437
C30   C     C_R   0.718237 0.684043 0.891270 0.540087
C31   C     C_R   0.120639 0.704648 0.907835 0.566367
C32   C     C_R   0.674401 0.109853 0.102692 0.566205
C33   C     C_R   0.689246 0.684528 0.090941 0.550244
C34   C     C_R   0.219693 0.651164 0.402145 0.579262
C35   C     C_R   0.015809 0.753306 0.117072 0.591743
C36   C     C_R   0.615071 0.587632 0.386806 0.591728
C37   C     C_R   0.613300 0.232732 0.394033 0.586422
C38   C     C_3   0.533013 0.757766 0.797796 -0.217400
C39   C     C_3   0.514340 0.741469 0.716805 0.174624
C40   C     C_3   0.778875 0.717636 0.771498 -0.229675
Cr1   Cr    Cr6+3 0.393010 0.398050 0.501480 1.065058
Cr2   Cr    Cr6+3 0.398820 0.707980 0.501630 1.069967
Cr3   Cr    Cr6+3 0.708140 0.393940 0.496850 1.061563
Cr4   Cr    Cr6+3 0.937950 0.938450 0.008940 1.053639
Cr5   Cr    Cr6+3 0.626180 0.937030 0.994750 1.040293
Cr6   Cr    Cr6+3 0.937790 0.625760 0.001410 1.102010
H1    H     H_    0.490167 0.868878 0.814619 0.155423
H2    H     H_    0.831600 0.421012 0.696545 0.175221
H3    H     H_    0.892442 0.655323 0.785854 0.163806
H4    H     H_    0.868729 0.623645 0.668520 0.162946
H5    H     H_    0.906797 0.059827 0.804403 0.162816
H6    H     H_    0.854421 0.182289 0.681615 0.163417
H7    H     H_    0.582308 0.232243 0.807489 0.137621
H8    H     H_    0.607728 0.125809 0.696935 0.107240
H9    H     H_    0.212082 0.738201 0.813816 0.074242
H10   H     H_    0.472380 0.719490 0.828972 0.087402
H11   H     H_    0.155336 0.761607 0.706621 0.090067
H12   H     H_    0.528127 0.738479 0.169054 0.158423
H13   H     H_    0.440926 0.203023 0.176684 0.162423
H14   H     H_    0.723669 0.194141 0.195126 0.140932
H15   H     H_    0.734764 0.113692 0.301789 0.095161
H16   H     H_    0.007623 0.932311 0.211169 0.154035
H17   H     H_    0.457144 0.681298 0.714072 0.131994
H18   H     H_    0.172816 0.592348 0.302296 0.146086
H19   H     H_    0.744815 0.829721 0.783625 0.119923
H20   H     H_    0.727807 0.799544 0.662211 0.122169
H21   H     H_    0.854304 0.442758 0.813416 0.185902
H22   H     H_    0.678728 0.475693 0.829215 0.127551
H23   H     H_    0.656649 0.450487 0.709991 0.119211
O1    O     O_R   0.507110 0.256280 0.580300 -0.499132
O2    O     O_R   0.524640 0.695370 0.425100 -0.495049
O3    O     O_R   0.735890 0.504390 0.415980 -0.488228
O4    O     O_R   0.690560 0.277820 0.422350 -0.483175
O5    O     O_3   0.499990 0.499990 0.499980 -0.304291
O6    O     O_R   0.089190 0.825870 0.932320 -0.514512
O7    O     O_R   0.819070 0.053960 0.931440 -0.488715
O8    O     O_R   0.607070 0.076440 0.916460 -0.491995
O9    O     O_R   0.647110 0.806550 0.917690 -0.512806
O10   O     O_R   0.837080 0.593860 0.915300 -0.500071
O11   O     O_R   0.064770 0.636080 0.932550 -0.458977
O12   O     O_R   0.280830 0.527190 0.577940 -0.462297
O13   O     O_R   0.068250 0.829200 0.092940 -0.515382
O14   O     O_R   0.799650 0.057040 0.080330 -0.501297
O15   O     O_R   0.586130 0.079760 0.077080 -0.508330
O16   O     O_R   0.627700 0.809630 0.066580 -0.512161
O17   O     O_R   0.816140 0.597180 0.075920 -0.453265
O18   O     O_R   0.045360 0.639170 0.081440 -0.452772
O19   O     O_3   0.833980 0.833750 0.001700 -0.300209
O20   O     O_R   0.261360 0.738990 0.584270 -0.488117
O21   O     O_R   0.532590 0.694780 0.574370 -0.453171
O22   O     O_R   0.744470 0.503750 0.577000 -0.521647
O23   O     O_R   0.698520 0.277230 0.571620 -0.500425
O24   O     O_R   0.498530 0.256920 0.419280 -0.482218
O25   O     O_R   0.272880 0.527780 0.428680 -0.479602
O26   O     O_R   0.252780 0.739630 0.423250 -0.488672
I1    I     I_    0.233290 0.365285 0.855944 -0.333484
I2    I     I_    0.181130 0.381295 0.670041 -0.388695
I3    I     I_    0.823505 0.341643 0.114105 -0.294961
I4    I     I_    0.865134 0.311251 0.297519 -0.368137
O27   O     O_3   0.508939 0.744265 0.286333 -0.629151
C41   C     C_3   0.555192 0.842892 0.295384 -0.145340
H24   H     H_    0.656133 0.809422 0.266966 0.145961
H25   H     H_    0.565439 0.863155 0.352644 0.155450
H26   H     H_    0.475531 0.944029 0.271505 0.118617
O28   O     O_3   0.379296 0.336952 0.303933 -0.536085
C42   C     C_3   0.296003 0.271915 0.308136 -0.076919
H27   H     H_    0.351712 0.168542 0.335780 0.100038
H28   H     H_    0.260068 0.259835 0.254460 0.137601
H29   H     H_    0.200474 0.340845 0.340084 0.179595
O29   O     O_3   0.044485 0.930506 0.351081 -0.535517
C43   C     C_3   0.140679 0.972948 0.327863 -0.064362
H30   H     H_    0.108676 0.028500 0.276120 0.133391
H31   H     H_    0.249877 0.883261 0.322350 0.182379
H32   H     H_    0.142979 0.046589 0.368049 0.154935
I5    I     I_    0.961544 0.588740 0.232928 -0.391442
O30   O     O_3   0.424536 0.867869 0.678801 -0.542853
C44   C     C_3   0.439447 0.985524 0.695592 -0.087749
H33   H     H_    0.541273 0.959644 0.719689 0.088915
H34   H     H_    0.353512 0.056411 0.732507 0.171435
H35   H     H_    0.428242 0.044320 0.645762 0.175330

loop_
_geom_bond_atom_site_label_1
_geom_bond_atom_site_label_2
_ccdc_geom_bond_type
Cr3   O4    S    
C7    C10   D    
C41   H24   S    
C3    C30   S    
C12   O22   A    
C43   H30   S    
C1    C11   S    
Cr4   O14   S    
C10   H6    S    
C31   O11   A    
C29   O7    A    
C25   C28   D    
C26   C27   D    
Cr3   O3    S    
C6    H2    S    
C8    C29   S    
C12   O21   A    
C2    H22   S    
C44   H34   S    
Cr6   O10   S    
C42   H27   S    
C1    O12   A    
C40   H3    S    
O30   C44   S    
C18   C19   S    
C20   H15   S    
Cr4   O7    S    
C33   O16   A    
O29   C43   S    
Cr2   O2    S    
Cr1   O5    S    
C26   I5    S    
C35   O18   A    
Cr1   O24   S    
C20   C24   D    
C3    C38   S    
C8    C9    D    
C9    H5    S    
Cr5   O9    S    
C4    C12   S    
C9    C10   S    
C6    H23   S    
C36   O2    A    
C25   C34   S    
Cr3   O5    S    
C41   H25   S    
C21   C22   D    
C23   O1    A    
C2    C6    S    
C17   C33   S    
C15   I2    S    
C14   I1    S    
C35   O13   A    
Cr6   O19   S    
C32   O15   A    
C21   C32   S    
Cr2   O5    S    
Cr2   O26   S    
Cr5   O19   S    
C34   O26   A    
C21   H14   S    
C4    C6    S    
C2    H21   S    
C44   H35   S    
C22   H13   S    
C19   I4    S    
C16   O27   S    
C28   O29   S    
Cr3   O22   S    
Cr2   O21   S    
C25   H18   S    
Cr4   O6    S    
Cr5   O16   S    
C33   O17   A    
C27   H16   S    
C31   O6    A    
Cr1   O25   S    
C4    C39   S    
Cr1   O12   S    
C17   C18   D    
C37   O24   A    
C43   H31   S    
C38   H1    S    
C11   H11   S    
C30   O10   A    
C3    C40   S    
C41   H26   S    
C11   C15   D    
C40   H19   S    
C22   C24   S    
C5    H4    S    
Cr5   O15   S    
Cr6   O18   S    
C32   O14   A    
C37   O4    A    
C1    O20   A    
C23   O23   A    
C13   C31   S    
C34   O25   A    
C5    H20   S    
C8    H7    S    
C38   H10   S    
C39   H17   S    
O28   C42   S    
C17   H12   S    
Cr4   O13   S    
Cr3   O23   S    
Cr2   O20   S    
C2    C3    S    
Cr4   O19   S    
C44   H33   S    
C16   C36   S    
Cr6   O11   S    
C20   C37   S    
C38   C39   S    
C42   H28   S    
C16   C19   D    
C7    C23   S    
O27   C41   S    
C43   H32   S    
C30   O9    A    
C26   C35   S    
C4    C5    S    
C29   O8    A    
C39   O30   S    
C5    C40   S    
C27   C28   S    
C14   C15   S    
Cr5   O8    S    
C24   O28   S    
C18   I3    S    
C7    H8    S    
Cr6   O17   S    
C13   C14   D    
C36   O3    A    
Cr1   O1    S    
C13   H9    S    
C42   H29   S    
