data_mof_unit_13188.cif
_audit_creation_date              2012-12-10T19:48:45-0500
_audit_creation_method            fapswitch 2.2
_symmetry_space_group_name_H-M    P1
_symmetry_Int_Tables_number       1
_space_group_crystal_system       triclinic
_cell_length_a                    13.120871
_cell_length_b                    14.197488
_cell_length_c                    15.003498
_cell_angle_alpha                 90.368523
_cell_angle_beta                  90.512378
_cell_angle_gamma                 70.392177
_cell_volume                      2632.70818952

loop_
_atom_site_label
_atom_site_type_symbol
_atom_type_description
_atom_site_fract_x
_atom_site_fract_y
_atom_site_fract_z
_atom_type_partial_charge
C1    C     C_R   0.499347 0.500548 0.671966 0.907773
C2    C     C_R   0.821982 0.407954 0.509613 -0.182177
C3    C     C_R   0.571891 0.414203 0.903325 -0.174216
C4    C     C_R   0.704172 0.444613 0.504119 0.877056
C5    C     C_R   0.566283 0.414917 0.811473 -0.276282
C6    C     C_R   0.501564 0.500902 0.767452 -0.123506
C7    C     C_R   0.442154 0.587261 0.814742 0.468802
C8    C     C_R   0.445207 0.584664 0.907229 -0.287276
C9    C     C_R   0.510876 0.498800 0.951208 0.051765
C10   C     C_R   0.520863 0.579487 0.094662 -0.185086
C11   C     C_R   0.516847 0.580291 0.186524 -0.196153
C12   C     C_R   0.985506 0.450338 0.519581 0.021274
C13   C     C_R   0.506227 0.497960 0.231555 -0.036485
C14   C     C_R   0.501586 0.414192 0.184256 -0.199976
C15   C     C_R   0.504082 0.413997 0.092268 -0.190949
C16   C     C_R   0.501278 0.499419 0.327623 0.869683
C17   C     C_R   0.513065 0.496934 0.047453 0.155264
C18   C     C_R   0.576730 0.870901 0.550754 -0.282714
C19   C     C_R   0.575387 0.772322 0.548899 0.024022
C20   C     C_R   0.422521 0.819327 0.453799 -0.005833
C21   C     C_R   0.419759 0.919258 0.454948 -0.265535
C22   C     C_R   0.498350 0.946981 0.503159 0.165732
C23   C     C_R   0.877361 0.469733 0.544184 0.096426
C24   C     C_R   0.457896 0.116486 0.429646 -0.372537
C25   C     C_R   0.454741 0.217304 0.430254 0.651050
C26   C     C_R   0.541787 0.192668 0.571495 -0.083093
C27   C     C_R   0.540925 0.093856 0.574746 -0.276570
C28   C     C_R   0.295834 0.555235 0.501377 0.886778
C29   C     C_R   0.498893 0.053536 0.502912 0.086100
C30   C     C_R   0.025520 0.683935 0.603706 -0.199025
C31   C     C_R   0.180336 0.587888 0.517199 -0.070222
C32   C     C_R   0.879707 0.315822 0.470122 -0.302069
C33   C     C_R   0.991144 0.288677 0.458490 0.538107
C34   C     C_R   0.031348 0.526002 0.533947 0.116558
C35   C     C_R   0.043595 0.356009 0.482001 -0.305450
C36   C     C_3   0.413471 0.749144 0.775798 0.105793
C37   C     C_3   0.347360 0.832587 0.714414 -0.782681
C38   C     C_3   0.312497 0.279879 0.328659 0.061843
C39   C     C_3   0.318805 0.238943 0.233953 -0.884114
C40   C     C_3   0.046648 0.200372 0.331091 0.082337
C41   C     C_3   0.122479 0.102406 0.293511 -0.831885
C42   C     C_R   0.977271 0.610870 0.586987 0.178626
C43   C     C_R   0.876981 0.620278 0.623440 -0.263741
C44   C     C_R   0.827316 0.550533 0.602076 -0.189957
C45   C     C_R   0.128533 0.520491 0.494589 -0.256358
C46   C     C_R   0.128224 0.671422 0.570249 -0.173016
H1    H     H_    0.168706 0.723707 0.589241 0.169360
H2    H     H_    0.361795 0.799329 0.416510 0.128060
H3    H     H_    0.835878 0.682585 0.666769 0.136376
H4    H     H_    0.355339 0.974278 0.419035 0.142790
H5    H     H_    0.429901 0.087340 0.371227 0.149886
H6    H     H_    0.575556 0.221738 0.626899 0.149987
H7    H     H_    0.572415 0.050000 0.633738 0.143196
H8    H     H_    0.985742 0.748353 0.645182 0.138857
H9    H     H_    0.168139 0.461455 0.448269 0.133554
H10   H     H_    0.838295 0.266045 0.446244 0.173702
H11   H     H_    0.129981 0.331619 0.472667 0.143706
H12   H     H_    0.613644 0.349050 0.774673 0.161069
H13   H     H_    0.750187 0.559191 0.632369 0.146291
H14   H     H_    0.623683 0.347892 0.936985 0.141933
H15   H     H_    0.499535 0.725475 0.754065 0.133276
H16   H     H_    0.407215 0.779232 0.844963 0.125435
H17   H     H_    0.261977 0.861599 0.736853 0.245851
H18   H     H_    0.381177 0.894577 0.715303 0.202030
H19   H     H_    0.349633 0.803963 0.645162 0.267119
H20   H     H_    0.257849 0.358794 0.327407 0.162018
H21   H     H_    0.273678 0.239165 0.372889 0.131852
H22   H     H_    0.374548 0.160512 0.231040 0.249301
H23   H     H_    0.394757 0.648662 0.944572 0.144886
H24   H     H_    0.237306 0.241254 0.211176 0.220282
H25   H     H_    0.348158 0.285047 0.188025 0.258388
H26   H     H_    0.073542 0.262093 0.306393 0.126009
H27   H     H_    0.963328 0.211479 0.305909 0.144342
H28   H     H_    0.097198 0.039198 0.315868 0.261232
H29   H     H_    0.120326 0.105007 0.219544 0.206730
H30   H     H_    0.206575 0.090044 0.316697 0.247697
H31   H     H_    0.529573 0.643294 0.060421 0.126490
H32   H     H_    0.522088 0.645213 0.222016 0.161006
H33   H     H_    0.495213 0.349392 0.218059 0.203813
H34   H     H_    0.497054 0.350097 0.056175 0.134825
H35   H     H_    0.639921 0.886511 0.588448 0.131686
H36   H     H_    0.634787 0.715642 0.587048 0.121099
N1    N     N_R   0.500000 0.747530 0.500020 -0.093703
N2    N     N_R   0.499940 0.252470 0.500020 -0.126846
O1    O     O_R   0.499990 0.420530 0.630930 -0.633018
O2    O     O_3   0.416083 0.278900 0.357342 -0.606658
O3    O     O_3   0.049852 0.195644 0.425032 -0.607622
O4    O     O_R   0.499990 0.579480 0.630940 -0.607131
O5    O     O_R   0.653620 0.381060 0.499970 -0.617315
O6    O     O_R   0.653620 0.540010 0.499980 -0.617568
O7    O     O_R   0.500010 0.420520 0.369060 -0.565794
O8    O     O_R   0.500010 0.579470 0.369070 -0.627704
O9    O     O_R   0.346380 0.459990 0.500020 -0.599431
O10   O     O_R   0.346380 0.618940 0.500030 -0.621669
O11   O     O_3   0.372318 0.669210 0.770512 -0.607407
Zn1   Zn    Zn3+2 0.500000 0.393860 0.499990 0.977010
Zn2   Zn    Zn3+2 0.500000 0.606140 0.500010 0.942643

loop_
_geom_bond_atom_site_label_1
_geom_bond_atom_site_label_2
_ccdc_geom_bond_type
C22   C29   S    
C27   C29   A    
C39   H22   S    
C34   C42   A    
C7    C8    A    
C30   H8    S    
C12   C23   A    
C26   C27   A    
C5    H12   S    
C38   O2    S    
C40   O3    S    
C2    C32   A    
C36   C37   S    
C38   C39   S    
O1    Zn1   S    
C19   N1    A    
C44   H13   S    
C18   H35   S    
C40   H27   S    
C28   O10   A    
C18   C19   A    
N2    Zn1   S    
C24   C29   A    
O7    Zn1   S    
C38   H20   S    
C8    C9    A    
C31   C46   A    
C37   H19   S    
C25   N2    A    
C19   H36   S    
O6    Zn2   S    
O4    Zn2   S    
C3    H14   S    
C1    O4    A    
C41   H28   S    
C13   C14   A    
C36   H16   S    
C21   H4    S    
C37   H17   S    
C10   H31   S    
O8    Zn2   S    
C4    O6    A    
C1    O1    A    
C1    C6    S    
C24   C25   A    
C43   H3    S    
O10   Zn2   S    
C23   C44   A    
C28   O9    A    
C2    C4    S    
C43   C44   A    
C3    C9    A    
C11   H32   S    
C26   H6    S    
C41   H29   S    
C15   H34   S    
C8    H23   S    
C34   C45   A    
C14   H33   S    
C38   H21   S    
C12   C35   A    
C20   H2    S    
C9    C17   S    
C40   C41   S    
C16   O8    A    
O9    Zn1   S    
N1    Zn2   S    
C13   C16   S    
C42   C43   A    
C12   C34   A    
C36   H15   S    
C37   H18   S    
C4    O5    A    
C15   C17   A    
C46   H1    S    
C26   N2    A    
C40   H26   S    
C18   C22   A    
C30   C46   A    
C28   C31   S    
C3    C5    A    
C27   H7    S    
C6    C7    A    
C7    O11   S    
C35   H11   S    
C32   C33   A    
O5    Zn1   S    
C33   O3    S    
C41   H30   S    
C11   C13   A    
C36   O11   S    
C5    C6    A    
C24   H5    S    
C25   O2    S    
C33   C35   A    
C39   H24   S    
C10   C11   A    
C20   C21   A    
C45   H9    S    
C16   O7    A    
C31   C45   A    
C20   N1    A    
C2    C23   A    
C39   H25   S    
C14   C15   A    
C30   C42   A    
C10   C17   A    
C21   C22   A    
C32   H10   S    
