data_mof_unit_33351.cif
_audit_creation_date              2013-03-05T15:41:04-0500
_audit_creation_method            fapswitch 2.2
_symmetry_space_group_name_H-M    P1
_symmetry_Int_Tables_number       1
_space_group_crystal_system       triclinic
_cell_length_a                    10.953115
_cell_length_b                    10.973641
_cell_length_c                    18.666946
_cell_angle_alpha                 90.548325
_cell_angle_beta                  90.131587
_cell_angle_gamma                 60.336555
_cell_volume                      1949.54640249

loop_
_atom_site_label
_atom_site_type_symbol
_atom_site_description
_atom_site_fract_x
_atom_site_fract_y
_atom_site_fract_z
_atom_type_partial_charge
O1    O     O_R   0.507110 0.256280 0.580300 -0.435901
O2    O     O_R   0.280830 0.527190 0.577940 -0.474664
C1    C     C_R   0.235498 0.645727 0.608546 0.592686
O3    O     O_R   0.261360 0.738990 0.584270 -0.489558
O4    O     O_R   0.532590 0.694780 0.574370 -0.477313
C2    C     C_R   0.656394 0.625003 0.599578 0.604927
O5    O     O_R   0.744470 0.503750 0.577000 -0.487801
O6    O     O_R   0.698520 0.277230 0.571620 -0.563740
C3    C     C_R   0.630237 0.225391 0.600874 0.579401
O7    O     O_R   0.498530 0.256920 0.419280 -0.500025
O8    O     O_R   0.272880 0.527780 0.428680 -0.457078
C4    C     C_R   0.226968 0.646103 0.399623 0.584835
O9    O     O_R   0.252780 0.739630 0.423250 -0.518425
O10   O     O_R   0.524640 0.695370 0.425100 -0.515682
C5    C     C_R   0.641363 0.620832 0.392719 0.599643
O11   O     O_R   0.735890 0.504390 0.415980 -0.406017
O12   O     O_R   0.690560 0.277820 0.422350 -0.442557
C6    C     C_R   0.618425 0.225714 0.396151 0.571390
Cr1   Cr    Cr6+3 0.393010 0.398050 0.501480 1.168663
Cr2   Cr    Cr6+3 0.398820 0.707980 0.501630 1.117463
Cr3   Cr    Cr6+3 0.708140 0.393940 0.496850 1.140013
O13   O     O_3   0.499990 0.499990 0.499980 -0.322719
C7    C     C_3   0.585162 0.821305 0.779859 -0.152465
H1    H     H_    0.591126 0.919331 0.783915 0.239151
H2    H     H_    0.495660 0.836183 0.814007 0.193932
C8    C     C_3   0.555707 0.796469 0.701938 0.288035
H3    H     H_    0.458748 0.788451 0.700432 0.192552
H4    H     H_    0.856635 0.780725 0.767556 0.121482
C9    C     C_3   0.846272 0.685630 0.759138 -0.206347
C10   C     C_3   0.718956 0.557950 0.797590 -0.243120
C11   C     C_3   0.725914 0.694714 0.806616 -0.096075
H5    H     H_    0.819421 0.465128 0.814309 0.201687
H6    H     H_    0.634603 0.561377 0.831992 0.220383
C12   C     C_3   0.682149 0.658443 0.672557 0.042800
C13   C     C_3   0.818826 0.670229 0.678600 0.537233
C14   C     C_3   0.693680 0.536994 0.719692 -0.330036
H7    H     H_    0.596436 0.530207 0.714486 0.192446
H8    H     H_    0.779585 0.433605 0.701537 0.189897
H9    H     H_    0.946017 0.595419 0.776591 0.157027
C15   C     C_2   0.687583 0.142813 0.665809 0.470402
C16   C     C_2   0.688979 0.166056 0.827474 0.221304
C17   C     C_2   0.800563 0.120282 0.782892 -0.136200
C18   C     C_2   0.783222 0.155374 0.706013 -0.103440
H10   H     H_    0.906200 0.051260 0.802212 0.159065
H11   H     H_    0.841682 0.202628 0.684443 0.119138
C19   C     C_2   0.178003 0.661452 0.680859 -0.066303
C20   C     C_2   0.199699 0.659963 0.840531 0.198142
C21   C     C_2   0.204836 0.552687 0.801128 0.165948
C22   C     C_2   0.224757 0.546681 0.722393 -0.049078
H12   H     H_    0.284744 0.442674 0.698639 0.235047
H13   H     H_    0.114789 0.766273 0.703019 0.138675
C23   C     C_2   0.650543 0.645375 0.317332 -0.032746
C24   C     C_2   0.635608 0.668657 0.160388 -0.122023
C25   C     C_2   0.705049 0.548064 0.195035 -0.093059
C26   C     C_2   0.683821 0.538057 0.270959 0.352380
H14   H     H_    0.787593 0.454985 0.168663 0.208313
H15   H     H_    0.548423 0.759486 0.185549 0.184982
H16   H     H_    0.625509 0.749297 0.299935 0.072173
C27   C     C_2   0.661556 0.149366 0.329295 -0.061749
C28   C     C_2   0.719486 0.017752 0.187024 0.169978
C29   C     C_2   0.609129 0.039286 0.227768 0.333393
C30   C     C_2   0.600326 0.077325 0.304021 -0.067564
H17   H     H_    0.524778 0.065674 0.336662 0.184611
H18   H     H_    0.729260 0.171606 0.296628 0.215661
C31   C     C_2   0.193835 0.650303 0.324786 0.241078
C32   C     C_2   0.205339 0.635661 0.164217 -0.050556
C33   C     C_2   0.251860 0.706346 0.203681 0.179384
C34   C     C_2   0.271827 0.682472 0.280556 -0.120953
H19   H     H_    0.343643 0.713672 0.303639 0.137107
H20   H     H_    0.218912 0.536299 0.181456 0.157613
O14   O     O_R   0.089190 0.825870 0.932320 -0.459278
O15   O     O_R   0.819070 0.053960 0.931440 -0.525799
C35   C     C_R   0.704530 0.099297 0.896753 0.529517
O16   O     O_R   0.607070 0.076440 0.916460 -0.457953
O17   O     O_R   0.647110 0.806550 0.917690 -0.494399
C36   C     C_R   0.754324 0.710320 0.882931 0.523872
O18   O     O_R   0.837080 0.593860 0.915300 -0.484833
O19   O     O_R   0.064770 0.636080 0.932550 -0.497243
C37   C     C_R   0.118947 0.706271 0.907405 0.534296
O20   O     O_R   0.068250 0.829200 0.092940 -0.416328
O21   O     O_R   0.799650 0.057040 0.080330 -0.460825
C38   C     C_R   0.708521 0.029276 0.109017 0.579037
O22   O     O_R   0.586130 0.079760 0.077080 -0.428518
O23   O     O_R   0.627700 0.809630 0.066580 -0.460330
C39   C     C_R   0.692889 0.689328 0.094876 0.575791
O24   O     O_R   0.816140 0.597180 0.075920 -0.496445
O25   O     O_R   0.045360 0.639170 0.081440 -0.495418
C40   C     C_R   0.109061 0.701477 0.105675 0.586996
Cr4   Cr    Cr6+3 0.937950 0.938450 0.008940 1.143899
Cr5   Cr    Cr6+3 0.626180 0.937030 0.994750 1.152611
Cr6   Cr    Cr6+3 0.937790 0.625760 0.001410 1.111782
O26   O     O_3   0.833980 0.833750 0.001700 -0.361871
N1    N     N_R   0.941363 0.549639 0.645297 0.083959
O27   O     O_R   0.990238 0.564872 0.584597 -0.256351
O28   O     O_R   0.998525 0.425563 0.673529 -0.329245
N2    N     N_R   0.549852 0.259694 0.802850 0.102202
O29   O     O_R   0.520466 0.380108 0.776446 -0.390662
O30   O     O_R   0.459502 0.215967 0.797210 -0.195667
F1    F     F_    0.626694 0.070098 0.690637 -0.520771
N3    N     N_R   0.198896 0.437640 0.834842 0.098725
O31   O     O_R   0.158959 0.362063 0.798274 -0.256459
O32   O     O_R   0.261051 0.390035 0.896042 -0.259109
N4    N     N_R   0.259423 0.741135 0.813262 0.042246
O33   O     O_R   0.384538 0.676681 0.785928 -0.404565
O34   O     O_R   0.193547 0.877327 0.818406 -0.323420
F2    F     F_    0.712648 0.409724 0.294488 -0.613419
F3    F     F_    0.492267 0.046977 0.197669 -0.576504
N5    N     N_R   0.854689 0.976839 0.218923 0.006059
O35   O     O_R   0.900370 0.888453 0.271404 -0.329275
O36   O     O_R   0.925469 0.038433 0.200946 -0.240793
N6    N     N_R   0.274413 0.814159 0.173303 0.103743
O37   O     O_R   0.262567 0.917443 0.213180 -0.239062
O38   O     O_R   0.322664 0.800744 0.108297 -0.312947
N7    N     N_R   0.117936 0.580973 0.302106 0.062599
O39   O     O_R   0.987650 0.633758 0.322048 -0.270526
O40   O     O_R   0.189226 0.446452 0.289785 -0.298778
F4    F     F_    0.528821 0.909778 0.659552 -0.493723
F5    F     F_    0.797010 0.790458 0.643553 -0.543668

loop_
_geom_bond_atom_site_label_1
_geom_bond_atom_site_label_2
_geom_bond_distance
_ccdc_geom_bond_type
O25   C40   1.274280 A    
N1    O27   1.301306 A    
O25   Cr6   1.949610 S    
C16   C17   1.351905 D    
N6    O37   1.301638 A    
C8    F4    1.383520 S    
C20   C37   1.465234 S    
C15   F1    1.353345 S    
O14   C37   1.269111 A    
N7    O39   1.300261 A    
O4    Cr2   1.948344 S    
C32   H20   1.077303 S    
C39   O24   1.270567 A    
C19   C22   1.352058 D    
O8    Cr1   1.944087 S    
C27   H18   1.079540 S    
O11   Cr3   2.059631 S    
O23   Cr5   1.940468 S    
H4    C9    1.113810 S    
O24   Cr6   2.058835 S    
C32   C40   1.443551 S    
O4    C2    1.273895 A    
C16   N2    1.430124 S    
C5    O11   1.261874 A    
N5    O35   1.298609 A    
O12   C6    1.276880 A    
C12   C13   1.568815 S    
C35   O16   1.267424 A    
C7    C8    1.539924 S    
O20   Cr4   2.065183 S    
O17   Cr5   1.951698 S    
C28   C38   1.462361 S    
C8    C12   1.557008 S    
C15   C18   1.347923 D    
C34   H19   1.088038 S    
N2    O30   1.299717 A    
C7    H1    1.111359 S    
C28   N5    1.446432 S    
C23   C26   1.351351 D    
O21   Cr4   1.946525 S    
C32   C33   1.335119 D    
N1    O28   1.300772 A    
Cr3   O13   1.982109 S    
O20   C40   1.267492 A    
C17   H10   1.085536 S    
O21   C38   1.297093 A    
C13   N1    1.472784 S    
C21   N3    1.445987 S    
C25   H14   1.086930 S    
O1    Cr1   2.063465 S    
C20   N4    1.437863 S    
C26   F2    1.359015 S    
C33   C34   1.457676 S    
O10   Cr2   1.943119 S    
Cr1   O13   1.980755 S    
O1    C3    1.276250 A    
O23   C39   1.268945 A    
N6    O38   1.302315 A    
Cr6   O26   1.983261 S    
C24   H15   1.084879 S    
O19   C37   1.275277 A    
O6    C3    1.268913 A    
O5    Cr3   2.070331 S    
C19   H13   1.085134 S    
C3    C15   1.462573 S    
O12   Cr3   1.950013 S    
C2    C12   1.470093 S    
C28   C29   1.346629 D    
C7    C11   1.563953 S    
O17   C36   1.295415 A    
C30   H17   1.086681 S    
Cr5   O26   1.982405 S    
C20   C21   1.359430 D    
O14   Cr4   2.065781 S    
C31   N7    1.437843 S    
O7    Cr1   2.068748 S    
C31   C34   1.357700 D    
N2    O29   1.297424 A    
C9    H9    1.101702 S    
N3    O32   1.302827 A    
O6    Cr3   1.941106 S    
C8    H3    1.108472 S    
N4    O34   1.301402 A    
C5    C23   1.448351 S    
C36   O18   1.298316 A    
Cr4   O26   1.981561 S    
C18   H11   1.083900 S    
C23   H16   1.085501 S    
C33   N6    1.443980 S    
C21   C22   1.482394 S    
Cr2   O13   1.983348 S    
C22   H12   1.086440 S    
C17   C18   1.476755 S    
C1    O3    1.276489 A    
O22   Cr5   2.069901 S    
C25   C26   1.450713 S    
O18   Cr6   2.070364 S    
C27   C30   1.346674 D    
C10   H6    1.111445 S    
O2    Cr1   1.949607 S    
O9    Cr2   2.066182 S    
O15   C35   1.274892 A    
N7    O40   1.301981 A    
O8    C4    1.264492 A    
C24   C25   1.328859 D    
C2    O5    1.264652 A    
O19   Cr6   1.940722 S    
C4    C31   1.437962 S    
C9    C13   1.556444 S    
C1    C19   1.463002 S    
C10   C14   1.516155 S    
O16   Cr5   2.060201 S    
C14   H8    1.106737 S    
O2    C1    1.269946 A    
C9    C11   1.551432 S    
C10   H5    1.113951 S    
O15   Cr4   1.946245 S    
C11   C36   1.483775 S    
C10   C11   1.547556 S    
O7    C6    1.258125 A    
N3    O31   1.300770 A    
N5    O36   1.301805 A    
C12   C14   1.556162 S    
C7    H2    1.111961 S    
C29   C30   1.469377 S    
C29   F3    1.360841 S    
C16   C35   1.460066 S    
O3    Cr2   2.062983 S    
C6    C27   1.439986 S    
C4    O9    1.267196 A    
C14   H7    1.107878 S    
C38   O22   1.314151 A    
N4    O33   1.294423 A    
O10   C5    1.275902 A    
C13   F5    1.389075 S    
C24   C39   1.445785 S    
