data_mof_unit_61120.cif
_audit_creation_date              2012-12-10T17:04:13-0500
_audit_creation_method            fapswitch 2.2
_symmetry_space_group_name_H-M    P1
_symmetry_Int_Tables_number       1
_space_group_crystal_system       triclinic
_cell_length_a                    15.148343
_cell_length_b                    15.148692
_cell_length_c                    16.042812
_cell_angle_alpha                 89.262404
_cell_angle_beta                  89.891731
_cell_angle_gamma                 90.34435
_cell_volume                      3681.08705355

loop_
_atom_site_label
_atom_site_type_symbol
_atom_type_description
_atom_site_fract_x
_atom_site_fract_y
_atom_site_fract_z
_atom_type_partial_charge
C1    C     C_R   0.260179 0.485947 0.487974 0.552332
C2    C     C_R   0.980522 0.458354 0.505326 0.047101
C3    C     C_R   0.018391 0.544462 0.495088 -0.000825
C4    C     C_R   0.739772 0.515610 0.512310 0.521227
C5    C     C_R   0.110572 0.554573 0.485020 0.006591
C6    C     C_R   0.126282 0.394564 0.492688 -0.169934
C7    C     C_R   0.035316 0.382930 0.500871 0.008343
C8    C     C_R   0.523966 0.163935 0.515582 0.017336
C9    C     C_R   0.485318 0.835126 0.483293 0.034831
C10   C     C_R   0.413434 0.966555 0.432786 -0.128867
C11   C     C_R   0.420510 0.875573 0.434749 -0.140648
C12   C     C_1   0.475559 0.521623 0.885965 -0.088238
C13   C     C_R   0.545726 0.885681 0.530314 0.028501
C14   C     C_R   0.545184 0.979134 0.520678 0.030708
C15   C     C_R   0.474340 0.018566 0.475635 0.016731
C16   C     C_R   0.513614 0.259914 0.513058 0.506532
C17   C     C_R   0.464383 0.109979 0.473773 -0.121041
C18   C     C_R   0.597178 0.126641 0.555346 -0.138955
C19   C     C_R   0.611276 0.035645 0.554626 -0.012157
C20   C     C_R   0.486637 0.739489 0.485893 0.566205
C21   C     C_R   0.513139 0.488664 0.277398 0.517979
C22   C     C_R   0.487273 0.511375 0.722543 0.514760
C23   C     C_1   0.520474 0.483395 0.113479 0.030481
C24   C     C_1   0.517709 0.485372 0.188414 0.069524
C25   C     C_2   0.522625 0.481872 0.023720 -0.091338
C26   C     C_2   0.467108 0.528890 0.975039 0.015067
C27   C     C_2   0.396958 0.588292 0.006473 0.261620
C28   C     C_2   0.700591 0.006244 0.579904 0.216085
C29   C     C_2   0.598096 0.842505 0.597967 0.275895
C30   C     C_2   0.151078 0.643765 0.472613 0.248255
C31   C     C_2   0.002282 0.290429 0.502981 0.221931
C32   C     C_1   0.481666 0.516308 0.811392 0.015916
C33   C     C_R   0.164000 0.478705 0.486232 0.034695
C34   C     C_R   0.835283 0.524956 0.514875 0.015309
C35   C     C_R   0.962577 0.618525 0.493212 -0.129737
C36   C     C_R   0.872245 0.608498 0.501852 -0.102323
C37   C     C_R   0.888963 0.450661 0.519346 -0.095184
H1    H     H_    0.646774 0.169291 0.582665 0.136962
H2    H     H_    0.609791 0.877233 0.655674 0.098962
H3    H     H_    0.571988 0.440083 0.995160 0.115623
H4    H     H_    0.129707 0.698995 0.509784 0.098551
H5    H     H_    0.987144 0.684827 0.482708 0.119530
H6    H     H_    0.042885 0.238974 0.530504 0.110074
H7    H     H_    0.373590 0.836228 0.400051 0.146247
H8    H     H_    0.168726 0.337105 0.492351 0.114753
H9    H     H_    0.830705 0.666394 0.497455 0.169113
H10   H     H_    0.857619 0.387488 0.530919 0.177551
H11   H     H_    0.409304 0.139136 0.440460 0.134061
H12   H     H_    0.355466 0.623224 0.962050 0.113400
H13   H     H_    0.360528 0.996427 0.397044 0.128150
H14   H     H_    0.735034 0.039890 0.629681 0.106263
O1    O     O_3   0.500000 0.500000 0.500000 -0.456597
O2    O     O_R   0.461330 0.435620 0.316920 -0.527973
O3    O     O_R   0.434750 0.558200 0.677930 -0.538341
O4    O     O_R   0.559650 0.545720 0.316320 -0.535368
O5    O     O_R   0.544270 0.460460 0.688830 -0.534197
O6    O     O_2   0.384271 0.599299 0.080768 -0.482324
O7    O     O_2   0.738927 0.948669 0.541751 -0.457920
O8    O     O_2   0.629556 0.769076 0.589999 -0.486065
O9    O     O_2   0.208252 0.656307 0.419931 -0.485255
O10   O     O_2   0.933191 0.269468 0.469368 -0.496396
O11   O     O_R   0.559890 0.307360 0.561630 -0.547459
O12   O     O_R   0.434610 0.697530 0.534530 -0.526432
O13   O     O_R   0.307380 0.433810 0.444990 -0.536277
O14   O     O_R   0.698130 0.561300 0.458860 -0.524146
O15   O     O_R   0.296270 0.542620 0.535390 -0.526394
O16   O     O_R   0.698230 0.462280 0.560770 -0.539208
O17   O     O_R   0.461480 0.296280 0.460320 -0.549555
O18   O     O_R   0.544020 0.698820 0.443520 -0.496922
Zn1   Zn    Zn3+2 0.574310 0.433680 0.576480 0.958487
Zn2   Zn    Zn3+2 0.433700 0.417860 0.431740 0.964135
Zn3   Zn    Zn3+2 0.574160 0.575160 0.430870 1.012811
Zn4   Zn    Zn3+2 0.417840 0.573310 0.560900 0.987444

loop_
_geom_bond_atom_site_label_1
_geom_bond_atom_site_label_2
_ccdc_geom_bond_type
O18   Zn3   S    
C23   C24   T    
C6    C33   A    
C30   H4    S    
C36   H9    S    
C6    C7    A    
C16   O17   A    
C6    H8    S    
C28   O7    D    
C37   H10   S    
O14   Zn3   S    
C31   O10   D    
C9    C20   S    
C34   C36   A    
C8    C17   A    
C17   H11   S    
C3    C35   A    
O16   Zn1   S    
C29   H2    S    
C20   O12   A    
C2    C3    A    
C18   H1    S    
C1    C33   S    
C11   H7    S    
C22   O3    A    
O1    Zn2   S    
C13   C14   A    
C12   C32   T    
C21   O2    A    
C19   C28   S    
C9    C11   A    
C2    C37   A    
C5    C33   A    
C26   C27   S    
C30   O9    D    
C22   C32   S    
O17   Zn2   S    
O1    Zn3   S    
C13   C29   S    
O1    Zn4   S    
C1    O15   A    
C34   C37   A    
O5    Zn1   S    
C10   C15   A    
C23   C25   S    
C25   H3    S    
C27   O6    D    
C4    O14   A    
C28   H14   S    
C4    C34   S    
C20   O18   A    
C21   C24   S    
O1    Zn1   S    
C10   C11   A    
O3    Zn4   S    
C1    O13   A    
C29   O8    D    
O4    Zn3   S    
C7    C31   S    
O11   Zn1   S    
O2    Zn2   S    
C18   C19   A    
C8    C16   S    
O13   Zn2   S    
C21   O4    A    
C35   H5    S    
C9    C13   A    
C14   C15   A    
C22   O5    A    
C35   C36   A    
O12   Zn4   S    
C2    C7    A    
C25   C26   D    
C15   C17   A    
O15   Zn4   S    
C14   C19   A    
C16   O11   A    
C31   H6    S    
C8    C18   A    
C27   H12   S    
C5    C30   S    
C12   C26   S    
C3    C5    A    
C4    O16   A    
C10   H13   S    
