data_mof_unit_30556.cif
_audit_creation_date              2012-12-10T21:00:46-0500
_audit_creation_method            fapswitch 2.2
_symmetry_space_group_name_H-M    P1
_symmetry_Int_Tables_number       1
_space_group_crystal_system       triclinic
_cell_length_a                    18.147571
_cell_length_b                    18.196045
_cell_length_c                    18.292968
_cell_angle_alpha                 119.884599
_cell_angle_beta                  90.035681
_cell_angle_gamma                 119.86403
_cell_volume                      4286.20601901

loop_
_atom_site_label
_atom_site_type_symbol
_atom_type_description
_atom_site_fract_x
_atom_site_fract_y
_atom_site_fract_z
_atom_type_partial_charge
C1    C     C_R   0.111053 0.219976 0.609816 0.503912
C2    C     C_3   0.449832 0.897203 0.947835 0.031152
C3    C     C_3   0.654774 0.534992 0.650329 0.013058
C4    C     C_3   0.706534 0.581143 0.744716 -0.268409
C5    C     C_3   0.792765 0.585484 0.748038 -0.453788
C6    C     C_3   0.451268 0.031983 0.040222 0.367891
C7    C     C_3   0.548758 0.967983 0.959871 0.368238
C8    C     C_3   0.420725 0.410203 0.454401 0.270087
C9    C     C_3   0.579369 0.592065 0.545708 0.220547
C10   C     C_3   0.510626 0.422948 0.475267 -0.207548
C11   C     C_3   0.488917 0.578599 0.524912 -0.204644
C12   C     C_3   0.551268 0.500587 0.448936 -0.003657
C13   C     C_3   0.448853 0.500893 0.550995 0.035916
C14   C     C_3   0.461265 0.486635 0.428228 0.242267
C15   C     C_R   0.888756 0.780006 0.390160 0.502588
C16   C     C_3   0.539288 0.515592 0.571846 0.231758
C17   C     C_R   0.174830 0.148176 0.812664 -0.180433
C18   C     C_R   0.823106 0.851447 0.187525 -0.178985
C19   C     C_R   0.392767 0.781082 0.888468 0.525895
C20   C     C_R   0.607235 0.218908 0.111560 0.527195
C21   C     C_R   0.145341 0.109830 0.722970 -0.106010
C22   C     C_R   0.853094 0.890095 0.277263 -0.108437
C23   C     C_R   0.067546 0.097109 0.688793 0.007681
C24   C     C_R   0.930978 0.902710 0.311105 0.008095
C25   C     C_R   0.019231 0.122523 0.745029 -0.040871
C26   C     C_3   0.922337 0.405083 0.448522 -0.124986
C27   C     C_R   0.978851 0.876865 0.254460 -0.038384
C28   C     C_R   0.049386 0.161677 0.834990 0.388965
C29   C     C_R   0.948152 0.837327 0.164459 0.389222
C30   C     C_R   0.127222 0.174595 0.868805 -0.057072
C31   C     C_R   0.870248 0.824524 0.130998 -0.055685
C32   C     C_R   0.979052 0.943573 0.536578 -0.151200
C33   C     C_R   0.020041 0.056387 0.463339 -0.150696
C34   C     C_R   0.944883 0.892280 0.444497 0.021598
C35   C     C_R   0.054417 0.107678 0.555421 0.022056
C36   C     C_R   0.965521 0.949489 0.407222 -0.031937
C37   C     C_3   0.077316 0.594745 0.551624 -0.121384
C38   C     C_R   0.033446 0.050434 0.592679 -0.031684
C39   C     C_R   0.690821 0.816246 0.989186 -0.099572
C40   C     C_R   0.306642 0.179624 0.005397 -0.099290
C41   C     C_R   0.648931 0.720596 0.977070 -0.088347
C42   C     C_R   0.347990 0.275581 0.018202 -0.107065
C43   C     C_R   0.111715 0.501518 0.890506 0.532837
C44   C     C_R   0.888168 0.498400 0.109392 0.533192
C45   C     C_R   0.579070 0.689421 0.011650 0.051974
C46   C     C_R   0.420959 0.310241 0.988036 0.049461
C47   C     C_R   0.551430 0.754553 0.058148 -0.082048
C48   C     C_3   0.428916 0.965022 0.938007 -0.154470
C49   C     C_R   0.451845 0.247853 0.944728 -0.070650
C50   C     C_R   0.593860 0.850355 0.070595 -0.093572
C51   C     C_R   0.409780 0.151591 0.931308 -0.090263
C52   C     C_R   0.663670 0.881325 0.036426 -0.047126
C53   C     C_R   0.337174 0.117422 0.961467 -0.049746
C54   C     C_R   0.587853 0.585826 0.054415 -0.158749
C55   C     C_R   0.411795 0.414511 0.946336 -0.154215
C56   C     C_R   0.550834 0.496528 0.052437 0.023835
C57   C     C_R   0.448988 0.503635 0.947964 0.027489
C58   C     C_R   0.462048 0.409412 0.997706 -0.036806
C59   C     C_3   0.571117 0.034936 0.062093 -0.154125
C60   C     C_R   0.537708 0.590723 0.002767 -0.034948
C61   C     C_R   0.221712 0.839517 0.032756 -0.118006
C62   C     C_R   0.774984 0.158980 0.963154 -0.117412
C63   C     C_R   0.179446 0.753867 0.036879 0.403460
C64   C     C_R   0.818560 0.245383 0.960109 0.402021
C65   C     C_R   0.087732 0.674484 0.988120 0.031343
C66   C     C_R   0.910157 0.324217 0.009935 0.028624
C67   C     C_R   0.392166 0.499745 0.607801 0.542971
C68   C     C_R   0.607893 0.500315 0.392175 0.513227
C69   C     C_R   0.038816 0.682454 0.936296 -0.055946
C70   C     C_3   0.529400 0.036745 0.950116 -0.163044
C71   C     C_R   0.957612 0.315044 0.061834 -0.050563
C72   C     C_R   0.081610 0.768262 0.932213 0.406134
C73   C     C_R   0.913467 0.228562 0.064945 0.410136
C74   C     C_R   0.173092 0.846614 0.980263 -0.109849
C75   C     C_R   0.822129 0.150736 0.015802 -0.112848
C76   C     C_R   0.986117 0.578262 0.042499 -0.129365
C77   C     C_R   0.013307 0.421373 0.956977 -0.128516
C78   C     C_R   0.943485 0.496313 0.051723 0.038446
C79   C     C_R   0.056094 0.503432 0.947888 0.038428
C80   C     C_R   0.956637 0.416299 0.007722 0.011272
C81   C     C_3   0.470618 0.963207 0.049985 -0.162375
C82   C     C_R   0.042522 0.583170 0.991487 0.011580
C83   C     C_R   0.393720 0.501676 0.890362 0.509655
C84   C     C_R   0.606256 0.498405 0.109764 0.501769
C85   C     C_R   0.108906 0.500051 0.607641 0.504096
C86   C     C_R   0.890978 0.499858 0.392379 0.503954
C87   C     C_3   0.017289 0.430564 0.447877 -0.095621
C88   C     C_3   0.982358 0.569255 0.552259 -0.102048
C89   C     C_3   0.042736 0.525506 0.448181 -0.117700
C90   C     C_3   0.956934 0.474325 0.551975 -0.124237
C91   C     C_3   0.948616 0.499944 0.449549 0.058701
C92   C     C_3   0.550195 0.102766 0.052260 0.030461
C93   C     C_3   0.051064 0.499876 0.550574 0.060482
C94   C     C_3   0.330448 0.241552 0.329384 0.033436
C95   C     C_3   0.232508 0.148907 0.274692 -0.257913
C96   C     C_3   0.225346 0.063200 0.186997 -0.448728
C97   C     C_3   0.670494 0.759496 0.672132 0.016190
C98   C     C_3   0.768903 0.850504 0.726766 -0.265644
C99   C     C_3   0.777518 0.934795 0.816570 -0.444952
C100  C     C_3   0.461121 0.551605 0.347103 0.025151
C101  C     C_3   0.430301 0.517556 0.251376 -0.248669
C102  C     C_3   0.479011 0.608825 0.243727 -0.480502
F1    F     F_    0.002508 0.185814 0.889120 -0.671139
F2    F     F_    0.994545 0.812646 0.109919 -0.672801
F3    F     F_    0.227667 0.748123 0.088098 -0.640859
F4    F     F_    0.771748 0.252326 0.908812 -0.641029
F5    F     F_    0.034357 0.775515 0.881743 -0.642847
F6    F     F_    0.959274 0.220112 0.115500 -0.624017
F7    F     F_    0.401799 0.067350 0.083224 -0.665736
F8    F     F_    0.598232 0.932676 0.916799 -0.666662
H1    H     H_    0.077041 0.546408 0.404666 0.125967
H2    H     H_    0.039836 0.887762 0.280175 0.123889
H3    H     H_    0.963925 0.900415 0.565678 0.150245
H4    H     H_    0.035152 0.099569 0.434269 0.151547
H5    H     H_    0.697035 0.955962 0.047015 0.146230
H6    H     H_    0.304192 0.042491 0.950253 0.144059
H7    H     H_    0.744918 0.840358 0.962817 0.113222
H8    H     H_    0.250273 0.152941 0.028514 0.124792
H9    H     H_    0.671202 0.671233 0.941464 0.104025
H10   H     H_    0.322806 0.322425 0.050808 0.103212
H11   H     H_    0.498044 0.731683 0.085677 0.106413
H12   H     H_    0.922611 0.453487 0.595517 0.118074
H13   H     H_    0.507505 0.273180 0.920355 0.110416
H14   H     H_    0.032308 0.373506 0.405572 0.154461
H15   H     H_    0.967263 0.626242 0.594573 0.142615
H16   H     H_    0.573147 0.900894 0.107520 0.102925
H17   H     H_    0.432972 0.103175 0.896684 0.102743
H18   H     H_    0.655533 0.653270 0.098132 0.141525
H19   H     H_    0.344060 0.347106 0.902696 0.143155
H20   H     H_    0.206166 0.913227 0.977482 0.153413
H21   H     H_    0.788060 0.083600 0.017800 0.157102
H22   H     H_    0.292055 0.900637 0.070822 0.183410
H23   H     H_    0.150282 0.204292 0.938263 0.137771
H24   H     H_    0.704803 0.098116 0.924090 0.181172
H25   H     H_    0.967931 0.621940 0.898757 0.129988
H26   H     H_    0.028380 0.375169 0.100207 0.141454
H27   H     H_    0.977170 0.640443 0.076789 0.191531
H28   H     H_    0.022149 0.359115 0.922597 0.191598
H29   H     H_    0.857897 0.327233 0.405299 0.117455
H30   H     H_    0.141749 0.672603 0.594850 0.118274
H31   H     H_    0.554051 0.067217 0.909282 0.127739
H32   H     H_    0.445845 0.932679 0.090767 0.130111
H33   H     H_    0.369543 0.935241 0.887291 0.113664
H34   H     H_    0.846748 0.794489 0.061497 0.132502
H35   H     H_    0.630525 0.064644 0.112719 0.114101
H36   H     H_    0.520459 0.360727 0.454653 0.095270
H37   H     H_    0.479013 0.640817 0.545792 0.095276
H38   H     H_    0.368467 0.215222 0.344276 0.133113
H39   H     H_    0.359446 0.271401 0.288749 0.191884
H40   H     H_    0.202458 0.117765 0.314062 0.178712
H41   H     H_    0.193665 0.174372 0.259842 0.195849
H42   H     H_    0.253602 0.092002 0.145730 0.180962
H43   H     H_    0.153512 0.997261 0.148895 0.207039
H44   H     H_    0.262342 0.035246 0.200384 0.178424
H45   H     H_    0.234317 0.156741 0.838319 0.125816
H46   H     H_    0.641836 0.727300 0.711302 0.186888
H47   H     H_    0.632893 0.787966 0.660631 0.142273
H48   H     H_    0.806874 0.822574 0.738497 0.176807
H49   H     H_    0.799025 0.883856 0.688882 0.182566
H50   H     H_    0.741505 0.965179 0.806194 0.180491
H51   H     H_    0.849669 0.999509 0.854749 0.207727
H52   H     H_    0.748965 0.903656 0.856246 0.173445
H53   H     H_    0.535761 0.593943 0.370078 0.132123
H54   H     H_    0.442770 0.604801 0.390858 0.135049
H55   H     H_    0.444034 0.459986 0.206839 0.205421
H56   H     H_    0.763548 0.842917 0.162051 0.124159
H57   H     H_    0.356561 0.479986 0.228803 0.175388
H58   H     H_    0.466673 0.667882 0.288011 0.152697
H59   H     H_    0.453639 0.581242 0.173694 0.158862
H60   H     H_    0.552574 0.644690 0.262346 0.145517
H61   H     H_    0.700155 0.582719 0.627977 0.176328
H62   H     H_    0.635378 0.454349 0.604754 0.132297
H63   H     H_    0.724225 0.660909 0.790871 0.172164
H64   H     H_    0.663177 0.533423 0.767775 0.177988
H65   H     H_    0.776721 0.506413 0.703242 0.142105
H66   H     H_    0.828427 0.619031 0.817352 0.191423
H67   H     H_    0.182402 0.088992 0.679928 0.121525
H68   H     H_    0.838097 0.634909 0.727256 0.181695
H69   H     H_    0.816328 0.911205 0.320581 0.117739
H70   H     H_    0.958279 0.111486 0.719007 0.123136
O1    O     O_3   0.251620 0.500000 0.748430 -0.460025
O2    O     O_R   0.570330 0.268390 0.136490 -0.487079
O3    O     O_R   0.134680 0.268390 0.572240 -0.546144
O4    O     O_R   0.865320 0.731610 0.427760 -0.547077
O5    O     O_R   0.306670 0.731630 0.863510 -0.552727
O6    O     O_R   0.693330 0.268370 0.136490 -0.552085
O7    O     O_R   0.135450 0.439270 0.865360 -0.543017
O8    O     O_R   0.864550 0.560730 0.134640 -0.541626
O9    O     O_R   0.429670 0.560710 0.692610 -0.517679
O10   O     O_R   0.570330 0.439290 0.307390 -0.533194
O11   O     O_R   0.308540 0.439240 0.865360 -0.550898
O12   O     O_3   0.748380 0.500000 0.251570 -0.453803
O13   O     O_R   0.691460 0.560760 0.134640 -0.547890
O14   O     O_R   0.133580 0.439310 0.571150 -0.545587
O15   O     O_R   0.866420 0.560690 0.428850 -0.550835
O16   O     O_R   0.430770 0.560690 0.864590 -0.524829
O17   O     O_R   0.569230 0.439310 0.135410 -0.543620
O18   O     O_R   0.133580 0.560760 0.692610 -0.541471
O19   O     O_R   0.866420 0.439240 0.307390 -0.538410
O20   O     O_3   0.333054 0.317753 0.409745 -0.529965
O21   O     O_3   0.666589 0.685045 0.589528 -0.559089
O22   O     O_3   0.417116 0.463002 0.348337 -0.546783
O23   O     O_R   0.134680 0.560740 0.864590 -0.543044
O24   O     O_3   0.576692 0.534237 0.651830 -0.553186
O25   O     O_R   0.865320 0.439260 0.135410 -0.543179
O26   O     O_R   0.306670 0.439270 0.571150 -0.504425
O27   O     O_R   0.693330 0.560730 0.428850 -0.512898
O28   O     O_R   0.135450 0.268370 0.694460 -0.540203
O29   O     O_R   0.864550 0.731630 0.305540 -0.540744
O30   O     O_R   0.429670 0.731610 0.863510 -0.490051
Zn1   Zn    Zn3+2 0.207400 0.586780 0.791530 0.944541
Zn2   Zn    Zn3+2 0.792600 0.413220 0.208470 0.948182
Zn3   Zn    Zn3+2 0.208510 0.413230 0.792630 0.947645
Zn4   Zn    Zn3+2 0.791490 0.586770 0.207370 0.944545
Zn5   Zn    Zn3+2 0.383150 0.586740 0.791530 0.986997
Zn6   Zn    Zn3+2 0.616850 0.413260 0.208470 0.962942
Zn7   Zn    Zn3+2 0.207400 0.413250 0.618010 0.957144
Zn8   Zn    Zn3+2 0.792600 0.586750 0.381990 0.937997

loop_
_geom_bond_atom_site_label_1
_geom_bond_atom_site_label_2
_ccdc_geom_bond_type
C102  H60   S    
C40   H8    S    
C63   C65   A    
C45   C60   S    
C32   C34   A    
C8    C13   S    
C17   C30   A    
O6    Zn2   S    
C27   C29   A    
C19   O30   A    
C5    H65   S    
C37   C88   S    
C95   C96   S    
C24   C27   A    
O12   Zn8   S    
C11   H37   S    
C7    C70   S    
O7    Zn3   S    
C97   C98   S    
C18   H56   S    
C25   H70   S    
O13   Zn4   S    
C39   C41   A    
C54   C60   A    
C76   H27   S    
C25   C28   A    
C20   C92   S    
C46   C49   A    
C33   H4    S    
C101  C102  S    
C6    C48   S    
C83   O11   A    
C9    C16   S    
C76   C78   A    
C86   C91   S    
C87   H14   S    
C11   C14   S    
C78   C80   A    
C85   O14   A    
C52   H5    S    
C70   H31   S    
C43   C79   S    
O30   Zn5   S    
C96   H42   S    
C14   O22   S    
C83   O16   A    
C33   C36   A    
C61   C63   A    
O19   Zn2   S    
C42   C46   A    
C97   H46   S    
O12   Zn4   S    
C31   H34   S    
C101  H57   S    
C1    O28   A    
O12   Zn2   S    
C62   C64   A    
O9    Zn5   S    
C61   H22   S    
C33   C35   A    
C99   H51   S    
C2    C7    S    
C85   C93   S    
C96   H44   S    
C98   H48   S    
C26   C87   S    
C49   C51   A    
C37   H30   S    
C50   C52   A    
O5    Zn1   S    
C48   C70   S    
C50   H16   S    
C68   O10   A    
C32   H3    S    
C89   C91   S    
C84   O13   A    
C15   C34   S    
C34   C36   A    
C53   H6    S    
C86   O19   A    
C59   C92   S    
C102  H59   S    
O4    Zn8   S    
C39   C52   A    
C69   H25   S    
C6    C81   S    
C4    H64   S    
C99   H50   S    
C46   C58   S    
O2    Zn6   S    
C3    O24   S    
C90   H12   S    
O23   Zn1   S    
C100  O22   S    
C7    C59   S    
C75   H21   S    
C56   C84   S    
C47   C50   A    
C45   C47   A    
O26   Zn7   S    
C1    O3    A    
C54   C56   A    
C22   H69   S    
C35   C38   A    
C77   H28   S    
O28   Zn3   S    
C100  H54   S    
C26   H29   S    
C76   C82   A    
C71   H26   S    
C71   C73   A    
O16   Zn5   S    
O8    Zn4   S    
C9    O21   S    
C57   C60   A    
C94   H38   S    
C2    C48   S    
C26   C91   S    
C39   H7    S    
C54   H18   S    
C17   C21   A    
C29   F2    S    
C94   H39   S    
C97   H47   S    
C69   C72   A    
C44   C78   S    
C55   C57   A    
C88   H15   S    
C86   O15   A    
C99   H52   S    
C12   C68   S    
C40   C42   A    
C66   C71   A    
C72   F5    S    
C43   O7    A    
O14   Zn7   S    
C30   H23   S    
C15   O4    A    
C68   O27   A    
C57   C83   S    
C77   C79   A    
C37   C93   S    
O1    Zn5   S    
C95   H40   S    
C24   C36   S    
C41   H9    S    
C101  H55   S    
O18   Zn1   S    
C9    C11   S    
C67   O26   A    
C10   C12   S    
C44   O8    A    
C59   H35   S    
C72   C74   A    
C81   H32   S    
C88   C90   S    
C27   H2    S    
C98   C99   S    
C32   C38   A    
C4    H63   S    
C21   C23   A    
O1    Zn7   S    
C61   C74   A    
C5    H66   S    
C22   C24   A    
C62   C75   A    
C8    O20   S    
C95   H41   S    
C73   C75   A    
C3    C4    S    
C17   H45   S    
C74   H20   S    
C15   O29   A    
C1    C35   S    
C90   C93   S    
C20   O2    A    
C13   C67   S    
C77   C80   A    
C89   H1    S    
O27   Zn8   S    
C8    C14   S    
C2    C19   S    
C18   C22   A    
C8    C10   S    
C70   C92   S    
C59   C81   S    
O17   Zn6   S    
C4    C5    S    
C73   F6    S    
C79   C82   A    
O1    Zn3   S    
C67   O9    A    
C13   C16   S    
C64   F4    S    
C96   H43   S    
C97   O21   S    
C84   O17   A    
C26   C90   S    
C23   C38   S    
C66   C80   S    
C10   H36   S    
O29   Zn4   S    
O25   Zn2   S    
C7    F8    S    
C37   C89   S    
O1    Zn1   S    
C51   H17   S    
C62   H24   S    
C55   H19   S    
C12   C14   S    
C28   C30   A    
C29   C31   A    
C10   C16   S    
O11   Zn3   S    
C43   O23   A    
C11   C13   S    
C28   F1    S    
C3    H61   S    
C65   C82   S    
C88   C91   S    
C65   C69   A    
C87   C93   S    
C21   H67   S    
C44   O25   A    
C6    F7    S    
C56   C58   A    
C100  H53   S    
C94   O20   S    
C6    C92   S    
C23   C25   A    
C94   C95   S    
C3    H62   S    
C9    C12   S    
C5    H68   S    
C47   H11   S    
C63   F3    S    
C20   O6    A    
C102  H58   S    
C85   O18   A    
C98   H49   S    
C48   H33   S    
O3    Zn7   S    
C40   C53   A    
C55   C58   A    
C42   H10   S    
C87   C89   S    
C41   C45   A    
C2    C81   S    
C100  C101  S    
C18   C31   A    
C51   C53   A    
C16   O24   S    
O10   Zn6   S    
O12   Zn6   S    
O15   Zn8   S    
C19   O5    A    
C64   C66   A    
C49   H13   S    
