data_mof_unit_34497.cif
_audit_creation_date              2012-12-10T18:03:34-0500
_audit_creation_method            fapswitch 2.2
_symmetry_space_group_name_H-M    P1
_symmetry_Int_Tables_number       1
_space_group_crystal_system       triclinic
_cell_length_a                    10.850492
_cell_length_b                    9.630027
_cell_length_c                    19.404457
_cell_angle_alpha                 90.125823
_cell_angle_beta                  94.640495
_cell_angle_gamma                 90.04498
_cell_volume                      2020.92967765

loop_
_atom_site_label
_atom_site_type_symbol
_atom_type_description
_atom_site_fract_x
_atom_site_fract_y
_atom_site_fract_z
_atom_type_partial_charge
C1    C     C_R   0.871269 0.500611 0.497324 -0.021502
C2    C     C_R   0.128485 0.500512 0.501668 -0.019846
C3    C     C_R   0.604813 0.576646 0.964021 -0.069944
C4    C     C_R   0.393160 0.545236 0.035960 -0.109744
C5    C     C_R   0.615242 0.576667 0.036089 -0.102050
C6    C     C_R   0.383155 0.542178 0.964019 -0.102089
C7    C     C_R   0.509585 0.558915 0.072323 0.103822
C8    C     C_R   0.489173 0.555787 0.927992 0.092674
C9    C     C_R   0.262458 0.500084 0.500870 0.842052
C10   C     C_R   0.737456 0.500137 0.498809 0.837333
C11   C     C_R   0.510290 0.499986 0.368097 0.840913
C12   C     C_R   0.489531 0.500329 0.631955 0.845460
C13   C     C_R   0.063600 0.374945 0.500568 -0.161302
C14   C     C_R   0.936088 0.626437 0.498092 -0.073657
C15   C     C_R   0.935764 0.375030 0.496717 -0.172942
C16   C     C_R   0.063890 0.626356 0.501811 -0.133080
C17   C     C_R   0.486268 0.387224 0.751341 -0.114803
C18   C     C_R   0.580083 0.627393 0.264391 -0.064277
C19   C     C_R   0.502107 0.389595 0.247945 -0.097373
C20   C     C_R   0.432886 0.633304 0.737108 -0.077220
C21   C     C_R   0.491009 0.404290 0.823914 -0.060781
C22   C     C_R   0.568331 0.648326 0.192091 -0.062577
C23   C     C_R   0.495025 0.409384 0.175728 -0.058014
C24   C     C_R   0.449575 0.652336 0.809429 -0.087367
C25   C     C_R   0.479896 0.538027 0.852398 -0.087661
C26   C     C_R   0.521652 0.540420 0.148162 -0.080697
C27   C     C_R   0.410899 0.072575 0.460601 0.037035
C28   C     C_R   0.582459 0.925335 0.543247 0.038053
C29   C     C_R   0.589102 0.073210 0.539453 0.032928
C30   C     C_R   0.418176 0.924875 0.456446 0.030579
C31   C     C_R   0.467802 0.505032 0.707434 -0.181302
C32   C     C_R   0.532651 0.503664 0.292814 -0.183072
Cu1   Cu    Cu3+1 0.500000 0.640660 0.500000 1.037386
Cu2   Cu    Cu3+1 0.500000 0.359340 0.500000 1.059735
H1    H     H_    0.111315 0.276787 0.503082 0.197708
H2    H     H_    0.888793 0.725104 0.495498 0.222292
H3    H     H_    0.887729 0.276998 0.492850 0.199099
H4    H     H_    0.111338 0.724989 0.505149 0.213578
H5    H     H_    0.687121 0.586610 0.936333 0.159938
H6    H     H_    0.311059 0.531209 0.063449 0.169487
H7    H     H_    0.705806 0.585673 0.063607 0.152359
H8    H     H_    0.293546 0.525752 0.936361 0.169201
N1    N     N_R   0.500000 0.852070 0.500000 -0.257934
N2    N     N_R   0.500000 0.147930 0.500000 -0.223859
O1    O     O_R   0.319640 0.618740 0.500000 -0.566165
O2    O     O_R   0.680360 0.381260 0.500000 -0.588191
O3    O     O_R   0.680360 0.618740 0.500000 -0.561477
O4    O     O_R   0.319640 0.381260 0.500000 -0.581868
O5    O     O_R   0.500020 0.618830 0.400190 -0.574614
O6    O     O_R   0.499980 0.381170 0.599810 -0.529294
O7    O     O_R   0.499980 0.618830 0.599810 -0.572352
O8    O     O_R   0.500020 0.381170 0.400190 -0.526709
C33   C     C_2   0.300216 0.138646 0.424257 0.852308
O9    O     O_2   0.309729 0.234587 0.384335 -0.554010
O10   O     O_R   0.183274 0.083152 0.432664 -0.758050
H9    H     H_    0.115291 0.129649 0.402038 0.344235
C34   C     C_2   0.662111 0.852089 0.596988 0.916432
O11   O     O_2   0.765911 0.815216 0.585391 -0.580368
O12   O     O_R   0.622611 0.836971 0.663171 -0.754524
H10   H     H_    0.685913 0.788520 0.696077 0.339772
C35   C     C_2   0.699019 0.140525 0.576190 0.853932
O13   O     O_2   0.688197 0.233000 0.618108 -0.557820
O14   O     O_R   0.816831 0.089677 0.565995 -0.761103
H11   H     H_    0.884376 0.136679 0.596890 0.345925
C36   C     C_2   0.343497 0.852124 0.400224 0.918748
O15   O     O_2   0.383117 0.842152 0.343314 -0.592910
O16   O     O_R   0.224267 0.806407 0.409845 -0.740306
H12   H     H_    0.182157 0.761479 0.366862 0.340569
C37   C     C_2   0.497727 0.244720 0.723472 0.984137
O17   O     O_2   0.415428 0.196317 0.683720 -0.530022
O18   O     O_R   0.599107 0.162968 0.746542 -0.699168
H13   H     H_    0.594432 0.066148 0.726150 0.388542
C38   C     C_2   0.649879 0.730454 0.309836 0.950677
O19   O     O_2   0.730760 0.690373 0.352721 -0.607552
O20   O     O_R   0.624215 0.872307 0.303487 -0.694285
H14   H     H_    0.677565 0.930551 0.337774 0.358586
C39   C     C_2   0.489034 0.246413 0.274578 0.945542
O21   O     O_2   0.572835 0.194987 0.312024 -0.568527
O22   O     O_R   0.384254 0.167819 0.253679 -0.684796
H15   H     H_    0.388830 0.069953 0.272645 0.374676
C40   C     C_2   0.361098 0.738351 0.693865 0.932652
O23   O     O_2   0.380197 0.862668 0.701981 -0.514902
O24   O     O_R   0.268751 0.693501 0.644428 -0.765179
H16   H     H_    0.225527 0.773609 0.618768 0.340942
C41   C     C_2   0.502612 0.281382 0.870494 0.909894
O25   O     O_2   0.427726 0.186533 0.862837 -0.555154
O26   O     O_R   0.598579 0.274553 0.922938 -0.722065
H17   H     H_    0.595999 0.186255 0.951140 0.371521
C42   C     C_2   0.606781 0.781770 0.161872 0.898859
O27   O     O_2   0.532912 0.848130 0.124099 -0.542824
O28   O     O_R   0.727809 0.830038 0.175787 -0.736976
H18   H     H_    0.742633 0.921693 0.152199 0.362407
C43   C     C_2   0.468088 0.290323 0.128103 0.888014
O29   O     O_2   0.551972 0.236490 0.099174 -0.563082
O30   O     O_R   0.346707 0.242700 0.115307 -0.704214
H19   H     H_    0.340070 0.162089 0.081514 0.359140
C44   C     C_2   0.431808 0.790549 0.840998 0.920292
O31   O     O_2   0.505239 0.884030 0.832373 -0.513342
O32   O     O_R   0.332519 0.812703 0.881257 -0.744686
H20   H     H_    0.331145 0.910568 0.900526 0.370197

loop_
_geom_bond_atom_site_label_1
_geom_bond_atom_site_label_2
_ccdc_geom_bond_type
O10   H9    S    
C9    O1    A    
C43   O29   D    
Cu1   O1    S    
C38   O19   D    
O30   H19   S    
O26   H17   S    
C40   O23   D    
C28   C34   S    
C17   C37   S    
C7    C26   S    
O24   H16   S    
C28   C29   A    
C13   H1    S    
C14   H2    S    
C34   O12   S    
Cu1   O5    S    
C19   C39   S    
C23   C26   A    
C37   O18   S    
C2    C13   A    
C15   H3    S    
C21   C25   A    
C11   O8    A    
C40   O24   S    
C27   N2    A    
C4    H6    S    
C36   O16   S    
C10   O2    A    
Cu2   O2    S    
C42   O28   S    
C2    C16   A    
C39   O21   D    
C39   O22   S    
C3    H5    S    
O12   H10   S    
C43   O30   S    
C20   C40   S    
C27   C30   A    
C8    C25   S    
C38   O20   S    
C35   O13   D    
C4    C7    A    
C19   C32   A    
C44   O32   S    
C44   O31   D    
C29   C35   S    
C33   O10   S    
C21   C41   S    
Cu2   O6    S    
C41   O26   S    
C24   C44   S    
Cu1   N1    S    
C20   C24   A    
Cu2   N2    S    
C24   C25   A    
C4    C6    A    
C3    C8    A    
O28   H18   S    
C5    C7    A    
C6    C8    A    
C41   O25   D    
C17   C21   A    
O16   H12   S    
C19   C23   A    
O20   H14   S    
C11   O5    A    
O32   H20   S    
C35   O14   S    
Cu1   Cu2   S    
C1    C15   A    
C11   C32   S    
C18   C38   S    
C13   C15   A    
C29   N2    A    
C22   C26   A    
Cu1   O3    S    
C14   C16   A    
C30   N1    A    
Cu2   O4    S    
C12   O7    A    
C5    H7    S    
C18   C22   A    
C1    C10   S    
O14   H11   S    
C3    C5    A    
C12   O6    A    
C27   C33   S    
C33   O9    D    
Cu1   O7    S    
C28   N1    A    
Cu2   O8    S    
O18   H13   S    
C12   C31   S    
C34   O11   D    
C17   C31   A    
C22   C42   S    
C37   O17   D    
C30   C36   S    
O22   H15   S    
C23   C43   S    
C18   C32   A    
C9    O4    A    
C36   O15   D    
C6    H8    S    
C10   O3    A    
C1    C14   A    
C42   O27   D    
C2    C9    S    
C16   H4    S    
C20   C31   A    
