data_mof_unit_28485.cif
_audit_creation_date              2013-03-05T16:48:43-0500
_audit_creation_method            fapswitch 2.2
_symmetry_space_group_name_H-M    P1
_symmetry_Int_Tables_number       1
_space_group_crystal_system       triclinic
_cell_length_a                    27.115129
_cell_length_b                    9.038535
_cell_length_c                    8.148234
_cell_angle_alpha                 89.799502
_cell_angle_beta                  90.548312
_cell_angle_gamma                 85.944375
_cell_volume                      1991.86829468

loop_
_atom_site_label
_atom_site_type_symbol
_atom_site_description
_atom_site_fract_x
_atom_site_fract_y
_atom_site_fract_z
_atom_type_partial_charge
O1    O     O_R   0.500000 0.285350 0.636850 -0.615952
O2    O     O_R   0.500000 0.714650 0.363150 -0.616368
O3    O     O_R   0.500000 0.714650 0.636850 -0.611420
O4    O     O_R   0.500000 0.285350 0.363150 -0.616258
C1    C     C_R   0.500297 0.217895 0.500184 0.918304
C2    C     C_R   0.499803 0.782094 0.499804 0.927092
O5    O     O_R   0.428760 0.500000 0.636860 -0.619482
O6    O     O_R   0.571240 0.500000 0.363140 -0.612708
O7    O     O_R   0.571240 0.500000 0.636860 -0.614650
O8    O     O_R   0.428760 0.500000 0.363140 -0.619100
C3    C     C_R   0.405282 0.499255 0.498294 0.916405
C4    C     C_R   0.594587 0.500234 0.500226 0.911731
Zn1   Zn    Zn3+2 0.500000 0.500000 0.682780 0.981645
Zn2   Zn    Zn3+2 0.500000 0.500000 0.317220 0.978827
C5    C     C_R   0.176104 0.373041 0.356100 0.530211
C6    C     C_R   0.821430 0.669561 0.332759 0.529068
C7    C     C_R   0.172313 0.636701 0.342659 0.569848
C8    C     C_R   0.818564 0.408510 0.310614 0.590680
O9    O     O_2   0.200177 0.245400 0.407920 -0.547882
O10   O     O_2   0.804097 0.799926 0.396606 -0.578667
O11   O     O_2   0.195690 0.763586 0.342194 -0.489349
O12   O     O_2   0.791664 0.288980 0.298267 -0.512322
N1    N     N_R   0.198501 0.503700 0.370033 -0.332222
N2    N     N_R   0.796102 0.544531 0.351654 -0.333463
C9    C     C_R   0.267549 0.571631 0.550843 0.486697
C10   C     C_R   0.732944 0.451923 0.539641 0.495837
C11   C     C_R   0.284263 0.418169 0.306812 0.500360
C12   C     C_R   0.709316 0.657728 0.352416 0.476677
C13   C     C_R   0.318319 0.565014 0.588028 -0.346071
C14   C     C_R   0.683045 0.439214 0.576410 -0.336481
C15   C     C_R   0.334701 0.414320 0.347227 -0.350595
C16   C     C_R   0.659892 0.638072 0.386588 -0.334269
C17   C     C_R   0.250546 0.498715 0.409588 0.117130
C18   C     C_R   0.746303 0.553800 0.416582 0.073167
C19   C     C_R   0.099375 0.507763 0.277129 -0.173930
C20   C     C_R   0.894129 0.522634 0.251171 -0.181344
C21   C     C_R   0.128005 0.371949 0.289839 -0.150857
C22   C     C_R   0.867106 0.660963 0.253283 -0.164866
C23   C     C_R   0.121144 0.641066 0.312329 -0.186811
C24   C     C_R   0.869875 0.393686 0.282361 -0.164884
C25   C     C_R   0.107635 0.240912 0.234177 0.539437
C26   C     C_R   0.887422 0.783608 0.177285 0.563161
C27   C     C_R   0.091041 0.774110 0.317560 0.567307
C28   C     C_R   0.897499 0.255932 0.286990 0.535364
C29   C     C_R   0.351832 0.487525 0.485144 -0.146101
C30   C     C_R   0.646681 0.528069 0.494101 -0.145882
C31   C     C_R   0.973351 0.376781 0.225115 0.016105
C32   C     C_R   0.020102 0.646986 0.221350 0.009105
C33   C     C_R   0.968542 0.647569 0.195668 0.014643
C34   C     C_R   0.025802 0.374454 0.218919 0.003083
C35   C     C_R   0.945344 0.514887 0.220703 0.090228
C36   C     C_R   0.048512 0.509839 0.236083 0.078601
C37   C     C_R   0.948146 0.247737 0.251370 -0.323757
C38   C     C_R   0.042614 0.778373 0.258104 -0.332489
C39   C     C_R   0.938671 0.777369 0.156520 -0.316691
C40   C     C_R   0.056562 0.242180 0.207381 -0.289956
C41   C     C_1   0.500178 0.064969 0.500229 -0.195790
C42   C     C_1   0.500012 0.935013 0.499715 -0.193546
N3    N     N_1   0.500000 0.500000 0.073640 -0.037454
N4    N     N_1   0.500000 0.500000 0.926360 -0.036254
H1    H     H_    0.361791 0.360105 0.267100 0.177670
H2    H     H_    0.631215 0.707450 0.324672 0.171971
H3    H     H_    0.331608 0.628428 0.689879 0.174402
H4    H     H_    0.672791 0.353239 0.659874 0.171842
O13   O     O_3   0.266165 0.360643 0.160566 -0.667356
C43   C     C_3   0.296726 0.243315 0.091842 0.080863
H5    H     H_    0.272498 0.162781 0.038414 0.152578
H6    H     H_    0.319410 0.177168 0.184385 0.144300
C44   C     C_3   0.327374 0.300452 0.950702 -0.379688
H7    H     H_    0.302404 0.330610 0.845194 0.219161
H8    H     H_    0.345655 0.401319 0.988264 0.231181
C45   C     C_3   0.366586 0.182733 0.894376 -0.896698
H9    H     H_    0.393435 0.154505 0.995477 0.263082
H10   H     H_    0.386898 0.225842 0.788638 0.275721
H11   H     H_    0.348996 0.081004 0.855353 0.261639
O14   O     O_3   0.720669 0.767748 0.242510 -0.643202
C46   C     C_3   0.700911 0.909945 0.295550 0.120533
H12   H     H_    0.731869 0.981740 0.316081 0.214873
H13   H     H_    0.681096 0.910161 0.415123 0.121455
C47   C     C_3   0.666561 0.981544 0.163210 -0.402937
H14   H     H_    0.686641 0.984969 0.045466 0.232637
H15   H     H_    0.634264 0.914253 0.144786 0.226763
C48   C     C_3   0.648188 0.139235 0.210416 -0.891945
H16   H     H_    0.627061 0.138328 0.326553 0.255631
H17   H     H_    0.623494 0.188274 0.112013 0.267959
H18   H     H_    0.679855 0.209681 0.226224 0.283703
O15   O     O_3   0.235689 0.670388 0.634278 -0.619649
C49   C     C_3   0.222305 0.609512 0.785547 0.041843
H19   H     H_    0.208286 0.703350 0.863556 0.194642
H20   H     H_    0.254358 0.554646 0.853721 0.146228
C50   C     C_3   0.181123 0.503349 0.761903 -0.366560
H21   H     H_    0.154930 0.544436 0.664080 0.226596
H22   H     H_    0.197734 0.392634 0.725773 0.225356
C51   C     C_3   0.151912 0.489188 0.918118 -0.936291
H23   H     H_    0.177815 0.468363 0.022603 0.283582
H24   H     H_    0.127154 0.396981 0.906600 0.260389
H25   H     H_    0.129071 0.593396 0.941531 0.262346
O16   O     O_3   0.767656 0.349237 0.606947 -0.620498
C52   C     C_3   0.786818 0.404413 0.754369 0.060303
H26   H     H_    0.800062 0.306937 0.830146 0.191824
H27   H     H_    0.758291 0.468195 0.828858 0.133174
C53   C     C_3   0.830523 0.498451 0.719868 -0.395656
H28   H     H_    0.854463 0.446445 0.623676 0.230465
H29   H     H_    0.816286 0.610425 0.677648 0.230157
C54   C     C_3   0.861906 0.514567 0.872450 -0.948424
H30   H     H_    0.837449 0.554625 0.972808 0.259735
H31   H     H_    0.890121 0.595409 0.850203 0.269769
H32   H     H_    0.880899 0.405942 0.907523 0.276764
O17   O     O_3   0.135051 0.106109 0.219851 -0.556498
C55   C     C_3   0.174322 0.110871 0.107070 0.208380
H33   H     H_    0.207267 0.051089 0.164832 0.217701
H34   H     H_    0.184507 0.223898 0.076052 0.133944
C56   C     C_3   0.162350 0.031301 0.948641 -0.475600
H35   H     H_    0.152297 0.917353 0.978202 0.249341
H36   H     H_    0.130688 0.093619 0.886750 0.219495
C57   C     C_3   0.206640 0.022157 0.833426 -0.888811
H37   H     H_    0.216795 0.134976 0.799493 0.271170
H38   H     H_    0.197650 0.962944 0.719461 0.307331
H39   H     H_    0.238864 0.960217 0.892994 0.253371
O18   O     O_3   0.860714 0.915127 0.133080 -0.588197
C58   C     C_3   0.815110 0.896910 0.051120 0.212421
H40   H     H_    0.786884 0.971482 0.111992 0.220437
H41   H     H_    0.802273 0.783258 0.053493 0.126609
C59   C     C_3   0.817579 0.944590 0.871784 -0.454542
H42   H     H_    0.838662 0.045173 0.860784 0.245743
H43   H     H_    0.836406 0.852338 0.802968 0.230066
C60   C     C_3   0.766156 0.976358 0.796132 -0.900819
H44   H     H_    0.744071 0.878057 0.808943 0.259849
H45   H     H_    0.769383 0.002232 0.663577 0.299230
H46   H     H_    0.746760 0.073445 0.856695 0.262181
O19   O     O_3   0.106221 0.899389 0.394313 -0.560826
C61   C     C_3   0.106094 0.883085 0.567676 0.138182
H47   H     H_    0.116790 0.989769 0.618812 0.197548
H48   H     H_    0.134240 0.795910 0.609843 0.161569
C62   C     C_3   0.055009 0.853742 0.635468 -0.472802
H49   H     H_    0.027348 0.929688 0.572234 0.247066
H50   H     H_    0.046797 0.737325 0.609398 0.222788
C63   C     C_3   0.051183 0.879214 0.820011 -0.922429
H51   H     H_    0.080655 0.811471 0.886222 0.263202
H52   H     H_    0.014961 0.845988 0.863943 0.274259
H53   H     H_    0.053720 0.998331 0.848644 0.260472
O20   O     O_3   0.875116 0.128061 0.325822 -0.555032
C64   C     C_3   0.880735 0.094973 0.495212 0.213381
H54   H     H_    0.848629 0.032925 0.530582 0.225522
H55   H     H_    0.878774 0.195756 0.573865 0.078887
C65   C     C_3   0.929135 0.000175 0.528958 -0.424378
H56   H     H_    0.944404 0.954852 0.412990 0.244066
H57   H     H_    0.956392 0.072353 0.583484 0.198666
C66   C     C_3   0.922838 0.868330 0.642245 -0.941634
H58   H     H_    0.917154 0.907062 0.770087 0.267427
H59   H     H_    0.956421 0.791288 0.640396 0.270061
H60   H     H_    0.891835 0.804253 0.598917 0.283286
H61   H     H_    0.967573 0.139896 0.254161 0.142089
H62   H     H_    0.021375 0.883875 0.262832 0.148722
H63   H     H_    0.954757 0.875747 0.111625 0.158169
H64   H     H_    0.041855 0.138130 0.175319 0.163857

loop_
_geom_bond_atom_site_label_1
_geom_bond_atom_site_label_2
_geom_bond_distance
_ccdc_geom_bond_type
C64   C65   1.537675 S    
C43   H6    1.113707 S    
O15   C49   1.409168 S    
C13   H3    1.083476 S    
C37   H61   1.074749 S    
C14   H4    1.083590 S    
C62   C63   1.525420 S    
C15   H1    1.080028 S    
C19   C23   1.407890 A    
C63   H51   1.106719 S    
C40   H64   1.079129 S    
O3    C2    1.270144 A    
C62   H49   1.102960 S    
Zn1   N4    1.984747 S    
C46   H12   1.108545 S    
C11   C17   1.411351 A    
C32   C38   1.405034 A    
Zn2   N3    1.984747 S    
C54   H31   1.110350 S    
C7    N1    1.368752 A    
O1    C1    1.271261 A    
C19   C21   1.408209 A    
C56   H35   1.110087 S    
C32   C36   1.416534 A    
C44   H7    1.110366 S    
C45   H11   1.111405 S    
C53   H29   1.109706 S    
C43   C44   1.534507 S    
C64   H54   1.108253 S    
C9    O15   1.382636 S    
C57   H37   1.109640 S    
C53   C54   1.513147 S    
C64   H55   1.114109 S    
C7    C23   1.404727 A    
C44   H8    1.110645 S    
O7    Zn1   1.971096 S    
C55   H33   1.110585 S    
C5    C21   1.407477 A    
C58   C59   1.525478 S    
C8    C24   1.409486 A    
C55   H34   1.105998 S    
C5    O9    1.349133 S    
C28   C37   1.403235 A    
C10   C18   1.425558 A    
C52   H26   1.110682 S    
C61   H47   1.107966 S    
C33   C35   1.408160 A    
C34   C36   1.415023 A    
O3    Zn1   1.974601 S    
C6    O10   1.345578 S    
C31   C37   1.409634 A    
C56   C57   1.529204 S    
C5    N1    1.370195 A    
C43   H5    1.102424 S    
C12   C18   1.419448 A    
N3    N4    1.200071 T    
C6    N2    1.372230 A    
C25   O17   1.387560 S    
C21   C25   1.415990 A    
C66   H59   1.106784 S    
O2    C2    1.271181 A    
C47   C48   1.527972 S    
C31   C34   1.422257 A    
C65   H57   1.110485 S    
C46   H13   1.117063 S    
C9    C13   1.403850 A    
C54   H32   1.111093 S    
C11   C15   1.401672 A    
C28   O20   1.380073 S    
C12   C16   1.394809 A    
O14   C46   1.427092 S    
C45   H10   1.111109 S    
C39   H63   1.081841 S    
C66   H60   1.109666 S    
C50   H21   1.107907 S    
C45   H9    1.111076 S    
C31   C35   1.414670 A    
C51   H25   1.108215 S    
N1    C17   1.442072 S    
C33   C39   1.411457 A    
C34   C40   1.412482 A    
C13   C29   1.395609 A    
C44   C45   1.525120 S    
O5    C3    1.291130 A    
C60   H45   1.109897 S    
C25   C40   1.399128 A    
C11   O13   1.400156 S    
C26   C39   1.398686 A    
C50   H22   1.109863 S    
C65   C66   1.524955 S    
C27   C38   1.393172 A    
C48   H16   1.111183 S    
C49   C50   1.534113 S    
O5    Zn1   1.964068 S    
O6    C4    1.278734 A    
C52   C53   1.533966 S    
C51   H23   1.105588 S    
C51   H24   1.110198 S    
C55   C56   1.523347 S    
C58   H40   1.105762 S    
C20   C35   1.409960 A    
C63   H52   1.109351 S    
C10   O16   1.382424 S    
C59   C60   1.527178 S    
C4    C30   1.453468 S    
C32   C33   1.411287 A    
C48   H17   1.110377 S    
C49   H20   1.112548 S    
C10   C14   1.401115 A    
O8    Zn2   1.971099 S    
C8    N2    1.376647 A    
C3    C29   1.463558 S    
O1    Zn1   1.977174 S    
C60   H44   1.111173 S    
C12   O14   1.388518 S    
C20   C24   1.401787 A    
O18   C58   1.419850 S    
C59   H43   1.104002 S    
C65   H56   1.103780 S    
C46   C47   1.529620 S    
C62   H50   1.111624 S    
O6    Zn2   1.964065 S    
C52   H27   1.116875 S    
C8    O12   1.349151 S    
C16   C30   1.390905 A    
C14   C30   1.392319 A    
C47   H14   1.109072 S    
C63   H53   1.109165 S    
C38   H62   1.079562 S    
C23   C27   1.405829 A    
C22   C26   1.415586 A    
C54   H30   1.103651 S    
C57   H39   1.110532 S    
C1    C41   1.382452 S    
C20   C22   1.403999 A    
C60   H46   1.110354 S    
C16   H2    1.083376 S    
C66   H58   1.108782 S    
C50   C51   1.515412 S    
C26   O18   1.391954 S    
C41   C42   1.174963 T    
C61   C62   1.536150 S    
O4    C1    1.270007 A    
C27   O19   1.381559 S    
C47   H15   1.110329 S    
C57   H38   1.107155 S    
C2    C42   1.382576 S    
O13   C43   1.419022 S    
O4    Zn2   1.974602 S    
C53   H28   1.107158 S    
O2    Zn2   1.977173 S    
O7    C4    1.286057 A    
N2    C18   1.451984 S    
C58   H41   1.107854 S    
O8    C3    1.277535 A    
C24   C28   1.407104 A    
C48   H18   1.111342 S    
C49   H19   1.109372 S    
C61   H48   1.108761 S    
O16   C52   1.410859 S    
C15   C29   1.398268 A    
C6    C22   1.400510 A    
C19   C36   1.414844 A    
O20   C64   1.415749 S    
O17   C55   1.416042 S    
O19   C61   1.419814 S    
C9    C17   1.417669 A    
C59   H42   1.111437 S    
C56   H36   1.109030 S    
C7    O11   1.349050 S    
