data_mof_unit_62685.cif
_audit_creation_date              2012-10-26T18:18:26-0400
_audit_creation_method            fapswitch 2.2
_symmetry_space_group_name_H-M    P1
_symmetry_Int_Tables_number       1
_space_group_crystal_system       triclinic
_cell_length_a                    18.748211
_cell_length_b                    18.742498
_cell_length_c                    18.966467
_cell_angle_alpha                 109.620079
_cell_angle_beta                  109.195304
_cell_angle_gamma                 109.02209
_cell_volume                      5166.45528892

loop_
_atom_site_label
_atom_site_type_symbol
_atom_type_description
_atom_site_fract_x
_atom_site_fract_y
_atom_site_fract_z
_atom_type_partial_charge
C1    C     C_R   0.881526 0.381457 0.000047 0.577368
C2    C     C_R   0.184808 0.499282 0.182611 -0.027871
C3    C     C_R   0.245460 0.477347 0.166811 -0.111345
C4    C     C_R   0.883707 0.502436 0.882353 0.553999
C5    C     C_R   0.310576 0.478073 0.231505 0.361074
C6    C     C_R   0.313729 0.498250 0.311517 0.025786
C7    C     C_R   0.252023 0.517569 0.323549 -0.052806
C8    C     C_3   0.222710 0.545023 0.387215 -0.033499
C9    C     C_3   0.153482 0.547557 0.317570 -0.186282
C10   C     C_R   0.247650 0.760567 0.069466 -0.023497
C11   C     C_R   0.181833 0.683685 0.995300 0.029603
C12   C     C_R   0.814218 0.315205 0.998595 0.021521
C13   C     C_R   0.181884 0.670384 0.917022 0.114063
C14   C     C_R   0.248066 0.734670 0.916984 0.071097
C15   C     C_R   0.314467 0.811796 0.995599 0.012741
C16   C     C_R   0.117664 0.618504 0.998819 0.569629
C17   C     C_R   0.311475 0.820672 0.069791 -0.014561
C18   C     C_3   0.355977 0.879902 0.164236 -0.261193
C19   C     C_3   0.283562 0.810626 0.164103 -0.258131
C20   C     C_R   0.497105 0.380922 0.378112 0.573032
C21   C     C_R   0.614691 0.497908 0.613241 0.550871
C22   C     C_R   0.496486 0.618517 0.615283 0.537903
C23   C     C_R   0.734218 0.254440 0.922610 -0.155642
C24   C     C_R   0.379108 0.499729 0.378820 0.590492
C25   C     C_R   0.501135 0.881479 0.882349 0.535695
C26   C     C_R   0.618679 0.118494 0.999651 0.569384
C27   C     C_R   0.498993 0.118682 0.117450 0.572575
C28   C     C_R   0.118142 0.499810 0.117639 0.573177
C29   C     C_R   0.381402 0.880516 0.998984 0.532717
C30   C     C_R   0.550068 0.335779 0.275994 -0.049040
C31   C     C_R   0.493405 0.313841 0.307580 0.013037
C32   C     C_R   0.430318 0.225862 0.267163 -0.132374
C33   C     C_R   0.431671 0.161469 0.203999 -0.158118
C34   C     C_R   0.669142 0.189989 0.922731 -0.150393
C35   C     C_R   0.496356 0.184565 0.181431 0.027651
C36   C     C_R   0.551057 0.272120 0.213414 0.089657
C37   C     C_3   0.647291 0.322111 0.253959 0.684787
C38   C     C_3   0.646311 0.392145 0.322786 -0.160173
C39   C     C_R   0.512563 0.763763 0.689173 -0.038481
C40   C     C_2   0.756246 0.507489 0.682144 -0.153163
C41   C     C_R   0.498557 0.684449 0.684134 0.013183
C42   C     C_R   0.486619 0.670687 0.749231 -0.138683
C43   C     C_R   0.489481 0.736282 0.816235 -0.155721
C44   C     C_R   0.501661 0.814922 0.817074 0.015840
C45   C     C_R   0.684539 0.184197 0.998254 0.020485
C46   C     C_R   0.512294 0.825207 0.751595 0.060720
C47   C     C_3   0.526594 0.885840 0.716945 0.260199
C48   C     C_3   0.526359 0.815463 0.645260 -0.212043
C49   C     C_2   0.678835 0.491720 0.676224 -0.110677
C50   C     C_2   0.817357 0.495255 0.743170 -0.150908
C51   C     C_2   0.821187 0.509599 0.818846 -0.110942
C52   C     C_R   0.826167 0.308091 0.071415 0.041103
C53   C     C_R   0.764975 0.244533 0.070891 0.022481
C54   C     C_3   0.820588 0.273025 0.162894 0.012967
C55   C     C_3   0.890771 0.345090 0.162761 0.231824
C56   C     C_R   0.191543 0.519812 0.262763 -0.000384
Cu1   Cu    Cu3+1 0.999590 0.561790 0.061400 0.958702
Cu2   Cu    Cu3+1 0.000410 0.438210 0.938600 0.993264
Cu3   Cu    Cu3+1 0.558560 0.561730 0.496790 0.984003
Cu4   Cu    Cu3+1 0.434970 0.438120 0.496790 0.962192
Cu5   Cu    Cu3+1 0.438600 0.999980 0.938570 1.022553
Cu6   Cu    Cu3+1 0.561400 0.999920 0.061330 1.019711
F1    F     F_    0.962225 0.334831 0.169561 -0.647997
F2    F     F_    0.368996 0.457958 0.215602 -0.611016
F3    F     F_    0.688869 0.281500 0.284919 -0.615331
F4    F     F_    0.673450 0.348675 0.202657 -0.632336
F5    F     F_    0.455363 0.897010 0.686712 -0.600283
H1    H     H_    0.773085 0.524552 0.638271 0.149802
H2    H     H_    0.240112 0.832686 0.180761 0.153558
H3    H     H_    0.382106 0.206396 0.286331 0.147190
H4    H     H_    0.384621 0.093816 0.175331 0.111266
H5    H     H_    0.677782 0.399631 0.387733 0.125757
H6    H     H_    0.665615 0.453929 0.320939 0.151612
H7    H     H_    0.476129 0.610188 0.748873 0.138235
H8    H     H_    0.862784 0.478962 0.727601 0.157261
H9    H     H_    0.480411 0.724955 0.865802 0.126678
H10   H     H_    0.589542 0.947253 0.760700 0.101788
H11   H     H_    0.469858 0.784854 0.580512 0.169382
H12   H     H_    0.243435 0.461140 0.105475 0.160160
H13   H     H_    0.590306 0.835077 0.647942 0.104244
H14   H     H_    0.782537 0.535186 0.838593 0.111519
H15   H     H_    0.721829 0.257365 0.863967 0.130694
H16   H     H_    0.607832 0.144297 0.863883 0.158104
H17   H     H_    0.794700 0.297242 0.205003 0.213865
H18   H     H_    0.906918 0.412318 0.204942 0.116048
H19   H     H_    0.336554 0.624541 0.500828 0.236928
H20   H     H_    0.315341 0.673677 0.443246 0.242976
H21   H     H_    0.142059 0.560985 0.810000 0.258485
H22   H     H_    0.082510 0.611413 0.796194 0.244830
H23   H     H_    0.196187 0.494664 0.403917 0.176221
H24   H     H_    0.307791 0.726209 0.845043 0.235425
H25   H     H_    0.238036 0.765148 0.822403 0.263417
H26   H     H_    0.863003 0.183925 0.129232 0.284415
H27   H     H_    0.894513 0.237715 0.234655 0.264408
H28   H     H_    0.086312 0.496895 0.292041 0.179059
H29   H     H_    0.162293 0.613641 0.333307 0.156450
H30   H     H_    0.420942 0.887079 0.198164 0.156582
H31   H     H_    0.658132 0.465499 0.713456 0.111847
H32   H     H_    0.353877 0.941675 0.180231 0.133852
H33   H     H_    0.306608 0.777328 0.197391 0.144080
N1    N     N_3   0.287139 0.631005 0.462373 -0.599405
N2    N     N_3   0.113942 0.593105 0.837709 -0.590680
N3    N     N_3   0.247574 0.719047 0.837350 -0.628151
N4    N     N_3   0.842493 0.207453 0.172662 -0.566310
O1    O     O_R   0.909480 0.462010 0.051860 -0.509516
O2    O     O_R   0.552410 0.909770 0.962140 -0.525582
O3    O     O_R   0.538310 0.090150 0.948110 -0.504239
O4    O     O_R   0.910180 0.357650 0.948150 -0.499721
O5    O     O_R   0.642020 0.090090 0.051780 -0.475368
O6    O     O_R   0.447590 0.090130 0.037760 -0.510084
O7    O     O_R   0.551300 0.090080 0.141420 -0.465286
O8    O     O_R   0.357980 0.909810 0.948120 -0.525536
O9    O     O_R   0.461690 0.909750 0.051790 -0.518043
O10   O     O_R   0.910060 0.552180 0.962250 -0.508279
O11   O     O_R   0.910760 0.447820 0.858550 -0.502118
O12   O     O_R   0.445180 0.357580 0.407200 -0.515461
O13   O     O_R   0.089820 0.642350 0.051850 -0.521041
O14   O     O_R   0.090520 0.537990 0.948140 -0.483366
O15   O     O_R   0.089240 0.552180 0.141450 -0.513012
O16   O     O_R   0.089940 0.447820 0.037750 -0.507086
O17   O     O_R   0.549550 0.461960 0.407200 -0.496900
O18   O     O_R   0.638540 0.552110 0.586390 -0.508126
O19   O     O_R   0.534170 0.447730 0.586390 -0.508885
O20   O     O_R   0.548350 0.642270 0.586380 -0.516007
O21   O     O_R   0.443970 0.537890 0.586380 -0.516205
O22   O     O_R   0.459360 0.552110 0.407190 -0.475786
O23   O     O_R   0.354990 0.447740 0.407190 -0.512851
O24   O     O_R   0.448700 0.909820 0.858480 -0.467294

loop_
_geom_bond_atom_site_label_1
_geom_bond_atom_site_label_2
_ccdc_geom_bond_type
Cu3   O17   S    
Cu1   O1    S    
C55   H18   S    
C23   H15   S    
H22   N2    S    
C41   C42   A    
C54   C55   S    
C29   O8    A    
C35   C36   A    
C3    H12   S    
C54   H17   S    
Cu1   Cu2   S    
C7    C8    S    
C39   C41   A    
C53   C54   S    
Cu3   O22   S    
C12   C23   A    
C30   C38   S    
C4    O10   A    
C36   C37   S    
C25   O24   A    
Cu5   O8    S    
C30   C31   A    
C22   C41   S    
C10   C17   A    
C40   C49   D    
Cu2   O14   S    
C25   C44   S    
C18   C19   S    
C48   H11   S    
C21   O18   A    
C29   O9    A    
C4    O11   A    
C26   C45   S    
C49   H31   S    
H20   N1    S    
Cu6   O7    S    
C31   C32   A    
C27   O6    A    
C8    C9    S    
C55   F1    S    
C24   O23   A    
C18   H30   S    
C8    N1    S    
C9    H28   S    
H25   N3    S    
C52   C55   S    
Cu1   O15   S    
Cu3   O18   S    
C27   O7    A    
Cu3   Cu4   S    
C26   O3    A    
C13   C14   A    
C24   O22   A    
C1    C12   S    
C7    C56   A    
Cu5   O6    S    
H26   N4    S    
C47   F5    S    
C12   C52   A    
C44   C46   A    
C25   O2    A    
C15   C29   S    
C38   H5    S    
C42   H7    S    
C4    C51   S    
Cu6   O9    S    
C34   H16   S    
C28   O16   A    
C20   O12   A    
C22   O21   A    
C32   H3    S    
C27   C35   S    
C45   C53   A    
C5    F2    S    
C37   F3    S    
C21   O19   A    
Cu4   O19   S    
C43   C44   A    
C37   C38   S    
C16   O14   A    
C11   C16   S    
C47   C48   S    
C9    H29   S    
C10   C19   S    
C23   C34   A    
C6    C24   S    
C37   F4    S    
Cu2   O16   S    
C17   C18   S    
C50   C51   D    
C9    C56   S    
C26   O5    A    
C20   O17   A    
C6    C7    A    
C34   C45   A    
C39   C46   A    
C21   C49   S    
Cu2   O11   S    
C19   H2    S    
C8    H23   S    
C42   C43   A    
C47   H10   S    
C52   C53   A    
Cu1   O13   S    
C54   N4    S    
Cu3   O20   S    
C15   C17   A    
C51   H14   S    
C46   C47   S    
Cu4   O21   S    
Cu4   O23   S    
H24   N3    S    
C3    C5    A    
C28   O15   A    
C18   H32   S    
H21   N2    S    
C19   H33   S    
C22   O20   A    
Cu1   O10   S    
Cu6   O2    S    
C30   C36   A    
C32   C33   A    
C48   H13   S    
C2    C3    A    
C2    C56   A    
C16   O13   A    
C11   C13   A    
C14   N3    S    
C5    C6    A    
Cu6   O5    S    
C40   C50   S    
C33   C35   A    
Cu5   O24   S    
Cu2   O4    S    
Cu5   Cu6   S    
Cu5   O3    S    
Cu4   O12   S    
C10   C11   A    
C33   H4    S    
C1    O4    A    
H27   N4    S    
C40   H1    S    
C14   C15   A    
C43   H9    S    
C2    C28   S    
C13   N2    S    
C50   H8    S    
H19   N1    S    
C38   H6    S    
C1    O1    A    
C39   C48   S    
C20   C31   S    
