data_mof_unit_6010.cif
_audit_creation_date              2012-12-10T17:32:17-0500
_audit_creation_method            fapswitch 2.2
_symmetry_space_group_name_H-M    P1
_symmetry_Int_Tables_number       1
_space_group_crystal_system       triclinic
_cell_length_a                    12.333788
_cell_length_b                    13.029183
_cell_length_c                    15.047563
_cell_angle_alpha                 77.257753
_cell_angle_beta                  101.056143
_cell_angle_gamma                 116.338191
_cell_volume                      2101.50137633

loop_
_atom_site_label
_atom_site_type_symbol
_atom_type_description
_atom_site_fract_x
_atom_site_fract_y
_atom_site_fract_z
_atom_type_partial_charge
C1    C     C_R   0.855301 0.284903 0.509624 0.886799
C2    C     C_R   0.974195 0.584514 0.074192 0.130290
C3    C     C_R   0.069685 0.347672 0.088225 -0.251432
C4    C     C_R   0.068138 0.344748 0.996059 0.449613
C5    C     C_R   0.030303 0.420020 0.927075 -0.058315
C6    C     C_R   0.006079 0.505152 0.953707 -0.083452
C7    C     C_R   0.982363 0.590855 0.887447 0.128438
C8    C     C_R   0.951866 0.669882 0.916228 -0.163367
C9    C     C_R   0.946544 0.665712 0.008397 -0.194264
C10   C     C_R   0.013896 0.413207 0.832987 0.349080
C11   C     C_R   0.001920 0.504319 0.767528 -0.152631
C12   C     C_R   0.000303 0.501265 0.670817 0.882312
C13   C     C_R   0.991708 0.596750 0.794427 0.074157
C14   C     C_R   0.284067 0.027692 0.369472 -0.148576
C15   C     C_R   0.226464 0.838731 0.464381 -0.066927
C16   C     C_R   0.812945 0.074548 0.571799 0.177366
C17   C     C_R   0.726745 0.961469 0.594213 -0.106509
C18   C     C_R   0.604617 0.930641 0.564746 -0.187591
C19   C     C_R   0.564468 0.009675 0.504687 0.063031
C20   C     C_R   0.653290 0.120486 0.471419 -0.039274
C21   C     C_R   0.439409 0.979631 0.472695 0.091497
C22   C     C_R   0.406134 0.056872 0.403784 0.038142
C23   C     C_R   0.144710 0.714635 0.484856 0.775941
C24   C     C_R   0.495561 0.158448 0.363982 -0.230447
C25   C     C_R   0.617817 0.186998 0.393297 0.369329
C26   C     C_R   0.346531 0.873517 0.505115 -0.260460
C27   C     C_R   0.193590 0.918255 0.397369 0.171348
C28   C     C_R   0.774987 0.158471 0.514846 -0.091852
C29   C     C_R   0.344467 0.327497 0.653241 0.056746
C30   C     C_R   0.756082 0.643087 0.373522 0.106052
C31   C     C_R   0.658574 0.673645 0.346938 -0.241257
C32   C     C_R   0.556955 0.619179 0.395602 -0.162759
C33   C     C_R   0.550842 0.532083 0.472018 0.000125
C34   C     C_R   0.001638 0.501739 0.329041 0.850308
C35   C     C_R   0.653665 0.504880 0.496767 0.222906
C36   C     C_R   0.447162 0.471601 0.524311 -0.114923
C37   C     C_R   0.447554 0.384218 0.601453 0.055258
C38   C     C_R   0.551147 0.358730 0.622870 0.309774
C39   C     C_R   0.649599 0.418773 0.571853 -0.217673
C40   C     C_R   0.342169 0.494938 0.502339 0.032683
C41   C     C_R   0.246430 0.357880 0.626714 0.069856
C42   C     C_R   0.971301 0.581845 0.166828 -0.219202
C43   C     C_R   0.003601 0.503284 0.232763 -0.033890
C44   C     C_R   0.037485 0.426080 0.206741 -0.177727
C45   C     C_R   0.036881 0.425286 0.114218 0.041335
C46   C     C_R   0.005645 0.504909 0.047255 0.098942
Cu1   Cu    Cu3+1 0.098270 0.475420 0.521130 0.955607
Cu2   Cu    Cu3+1 0.901730 0.524580 0.478870 0.967142
H1    H     H_    0.946406 0.642311 0.187891 0.135715
H2    H     H_    0.470691 0.212032 0.305242 0.185660
H3    H     H_    0.260349 0.088181 0.316685 0.145389
H4    H     H_    0.365261 0.813518 0.560519 0.157381
H5    H     H_    0.545004 0.841981 0.587167 0.137844
H6    H     H_    0.753454 0.896414 0.637651 0.141576
H7    H     H_    0.168536 0.317666 0.665219 0.172884
H8    H     H_    0.061978 0.365208 0.258537 0.151912
H9    H     H_    0.334202 0.558277 0.445206 0.130393
H10   H     H_    0.833414 0.684512 0.334506 0.118782
H11   H     H_    0.484893 0.647099 0.371356 0.137224
H12   H     H_    0.661539 0.739571 0.288101 0.156396
H13   H     H_    0.722539 0.393773 0.593877 0.240402
H14   H     H_    0.098711 0.289905 0.140090 0.174945
H15   H     H_    0.929566 0.734390 0.867900 0.160643
H16   H     H_    0.921950 0.727014 0.028302 0.157231
N1    N     N_R   0.246280 0.438190 0.553160 -0.206061
N2    N     N_R   0.754320 0.561190 0.447410 -0.190340
O1    O     O_R   0.972510 0.318130 0.526570 -0.582784
O2    O     O_R   0.806530 0.359650 0.490890 -0.566745
O3    O     O_R   0.082980 0.479210 0.647590 -0.557176
O4    O     O_R   0.917000 0.520730 0.611900 -0.599974
O5    O     O_R   0.193470 0.640350 0.509110 -0.587649
O6    O     O_R   0.027490 0.681870 0.473430 -0.593393
O7    O     O_R   0.083000 0.479270 0.388100 -0.601582
O8    O     O_R   0.917020 0.520790 0.352410 -0.547749
C47   C     C_3   0.943215 0.100975 0.610382 -0.789762
H17   H     H_    0.954404 0.022612 0.649300 0.215401
H18   H     H_    0.002333 0.135314 0.553976 0.232798
H19   H     H_    0.974016 0.163940 0.658435 0.279904
Cl1   Cl    Cl    0.719692 0.286359 0.314747 -0.619729
Cl2   Cl    Cl    0.570142 0.251562 0.711406 -0.616109
C48   C     C_3   0.332543 0.236180 0.737030 -0.700300
H20   H     H_    0.331326 0.157824 0.718496 0.263242
H21   H     H_    0.406866 0.271811 0.791554 0.283475
H22   H     H_    0.246117 0.206928 0.767147 0.228998
Cl3   Cl    Cl    0.132291 0.256551 0.974722 -0.547930
Cl4   Cl    Cl    0.983466 0.282691 0.794886 -0.575819
C49   C     C_3   0.994074 0.702415 0.725762 -0.824634
H23   H     H_    0.031404 0.711449 0.661732 0.234784
H24   H     H_    0.900845 0.698646 0.708661 0.236614
H25   H     H_    0.055384 0.782844 0.754811 0.224902
C50   C     C_3   0.066208 0.887266 0.350395 -0.842027
H26   H     H_    0.002366 0.865605 0.401564 0.243857
H27   H     H_    0.058886 0.960092 0.298884 0.228739
H28   H     H_    0.039179 0.812872 0.313818 0.221124

loop_
_geom_bond_atom_site_label_1
_geom_bond_atom_site_label_2
_ccdc_geom_bond_type
C16   C28   A    
C49   H23   S    
C9    H16   S    
C19   C20   A    
C12   O3    A    
C1    O2    A    
C48   H20   S    
C7    C8    A    
C45   C46   A    
C2    C46   A    
C5    C6    A    
C36   C37   A    
C19   C21   A    
C38   C39   A    
C20   C25   A    
C16   C47   S    
C33   C36   A    
C18   C19   A    
Cu1   O3    S    
C18   H5    S    
C1    O1    A    
C41   H7    S    
Cu1   Cu2   S    
C8    C9    A    
C1    C28   S    
C27   C50   S    
C14   C27   A    
C15   C23   S    
Cu2   O8    S    
C21   C22   A    
Cu2   O6    S    
Cu1   O1    S    
C48   H21   S    
C21   C26   A    
C24   H2    S    
C39   H13   S    
C23   O5    A    
C36   C40   A    
C24   C25   A    
Cu1   O7    S    
C8    H15   S    
C50   H26   S    
C16   C17   A    
C15   C26   A    
C41   N1    A    
C4    Cl3   S    
C20   C28   A    
C35   N2    A    
C34   O7    A    
C3    C45   A    
C31   H12   S    
C35   C39   A    
C47   H17   S    
C29   C48   S    
C37   C38   A    
C26   H4    S    
C50   H27   S    
C44   H8    S    
C15   C27   A    
C14   H3    S    
C13   C49   S    
C17   C18   A    
Cu2   O2    S    
C47   H18   S    
Cu1   O5    S    
C30   N2    A    
C34   O8    A    
C40   N1    A    
C49   H24   S    
C43   C44   A    
C22   C24   A    
C42   C43   A    
C3    C4    A    
C48   H22   S    
C44   C45   A    
C3    H14   S    
C12   O4    A    
C10   Cl4   S    
C40   H9    S    
C6    C46   A    
C29   C41   A    
C25   Cl1   S    
C23   O6    A    
C31   C32   A    
C34   C43   S    
Cu2   O4    S    
C4    C5    A    
C11   C12   S    
C6    C7    A    
C32   C33   A    
C14   C22   A    
C5    C10   A    
C50   H28   S    
C11   C13   A    
C30   C31   A    
C38   Cl2   S    
C2    C42   A    
C30   H10   S    
C33   C35   A    
C47   H19   S    
C10   C11   A    
C42   H1    S    
C7    C13   A    
C49   H25   S    
C29   C37   A    
C32   H11   S    
Cu2   N2    S    
C2    C9    A    
C17   H6    S    
Cu1   N1    S    
