data_mof_unit_47920.cif
_audit_creation_date              2012-12-10T17:40:56-0500
_audit_creation_method            fapswitch 2.2
_symmetry_space_group_name_H-M    P1
_symmetry_Int_Tables_number       1
_space_group_crystal_system       triclinic
_cell_length_a                    15.039844
_cell_length_b                    13.703304
_cell_length_c                    11.706825
_cell_angle_alpha                 89.804363
_cell_angle_beta                  89.917904
_cell_angle_gamma                 90.333006
_cell_volume                      2412.667228

loop_
_atom_site_label
_atom_site_type_symbol
_atom_type_description
_atom_site_fract_x
_atom_site_fract_y
_atom_site_fract_z
_atom_type_partial_charge
C1    C     C_R   0.328780 0.499638 0.497519 0.876452
C2    C     C_R   0.671152 0.500255 0.501371 0.861461
C3    C     C_R   0.905204 0.468157 0.401094 0.051566
C4    C     C_R   0.094529 0.549169 0.586077 0.048911
C5    C     C_R   0.955237 0.594719 0.675629 -0.243043
C6    C     C_R   0.044465 0.427582 0.308515 -0.250990
C7    C     C_R   0.048109 0.594683 0.676614 -0.006983
C8    C     C_R   0.951762 0.432834 0.304708 -0.001175
C9    C     C_R   0.448337 0.792839 0.576817 0.030606
C10   C     C_R   0.550977 0.207190 0.422439 0.015325
C11   C     C_R   0.551615 0.793931 0.423133 0.031608
C12   C     C_R   0.449978 0.206055 0.578561 -0.008346
C13   C     C_R   0.552672 0.896997 0.421106 -0.007740
C14   C     C_R   0.448409 0.103030 0.580039 -0.002521
C15   C     C_R   0.447447 0.895875 0.579015 -0.008103
C16   C     C_R   0.552479 0.104174 0.420898 -0.006994
C17   C     C_R   0.500183 0.948216 0.500191 0.085195
C18   C     C_R   0.500419 0.051823 0.500442 0.080375
C19   C     C_R   0.604752 0.949851 0.342230 -0.185572
C20   C     C_R   0.395930 0.050215 0.658480 -0.190749
C21   C     C_R   0.395332 0.947606 0.657849 -0.187183
C22   C     C_R   0.604516 0.052466 0.341978 -0.190549
C23   C     C_R   0.500130 0.500111 0.283821 0.841476
C24   C     C_R   0.499105 0.499896 0.716167 0.820174
C25   C     C_1   0.500242 0.500233 0.162229 -0.160917
C26   C     C_1   0.499478 0.499694 0.837756 -0.162907
C27   C     C_1   0.500206 0.500033 0.059822 0.006896
C28   C     C_1   0.499904 0.499761 0.940148 0.008232
C29   C     C_R   0.812230 0.464987 0.406865 -0.294061
C30   C     C_R   0.187476 0.549714 0.581062 -0.289694
C31   C     C_R   0.767555 0.501198 0.501777 -0.158656
C32   C     C_R   0.232227 0.498956 0.495810 -0.147130
C33   C     C_R   0.814079 0.538464 0.595777 0.424642
C34   C     C_R   0.185648 0.449315 0.409755 0.403958
C35   C     C_R   0.907301 0.547229 0.589360 -0.011614
C36   C     C_R   0.092329 0.459544 0.404302 -0.016926
C37   C     C_R   0.953052 0.507130 0.495006 0.019009
C38   C     C_R   0.046648 0.505318 0.495191 0.024444
Cu1   Cu    Cu3+1 0.500000 0.597420 0.500000 0.976131
Cu2   Cu    Cu3+1 0.500000 0.402580 0.500000 0.936129
H1    H     H_    0.773154 0.433158 0.338873 0.186115
H2    H     H_    0.226639 0.588693 0.643636 0.189558
H3    H     H_    0.920240 0.630065 0.744969 0.199869
H4    H     H_    0.079357 0.401198 0.233945 0.193414
H5    H     H_    0.407836 0.751597 0.636581 0.130492
H6    H     H_    0.590694 0.248437 0.361835 0.132733
H7    H     H_    0.591986 0.753532 0.363254 0.133175
H8    H     H_    0.410261 0.246436 0.639167 0.133881
H9    H     H_    0.645563 0.911853 0.280595 0.148718
H10   H     H_    0.355217 0.088239 0.720198 0.145986
H11   H     H_    0.354224 0.908730 0.719163 0.149493
H12   H     H_    0.645102 0.091358 0.280108 0.147543
N1    N     N_R   0.500000 0.743810 0.500000 -0.186075
N2    N     N_R   0.500000 0.256190 0.500000 -0.189967
O1    O     O_R   0.370260 0.582280 0.500020 -0.589298
O2    O     O_R   0.629740 0.417720 0.499980 -0.602167
O3    O     O_R   0.629740 0.582280 0.499980 -0.552504
O4    O     O_R   0.370260 0.417720 0.500020 -0.582778
O5    O     O_R   0.500010 0.582270 0.337200 -0.581310
O6    O     O_R   0.499990 0.417730 0.662800 -0.591614
O7    O     O_R   0.499990 0.582270 0.662800 -0.567462
O8    O     O_R   0.500010 0.417730 0.337200 -0.586906
O9    O     O_3   0.766837 0.566622 0.692150 -0.609778
C39   C     C_3   0.778832 0.498183 0.782329 0.015161
H13   H     H_    0.750085 0.530906 0.860735 0.191604
H14   H     H_    0.850062 0.484457 0.801328 0.149858
C40   C     C_3   0.731451 0.400557 0.759710 -0.374557
H15   H     H_    0.662048 0.414268 0.733881 0.241719
H16   H     H_    0.765449 0.361250 0.689378 0.216525
C41   C     C_3   0.730998 0.335565 0.865766 -0.871810
H17   H     H_    0.800130 0.320568 0.893794 0.269924
H18   H     H_    0.697679 0.265151 0.845812 0.264373
H19   H     H_    0.694020 0.371284 0.936241 0.251123
O10   O     O_3   0.233463 0.401422 0.325232 -0.614768
C42   C     C_3   0.212749 0.300135 0.323075 0.038096
H20   H     H_    0.195090 0.280817 0.233792 0.178712
H21   H     H_    0.155444 0.277959 0.378335 0.133419
C43   C     C_3   0.293826 0.240778 0.358613 -0.303642
H22   H     H_    0.353663 0.267154 0.311669 0.249021
H23   H     H_    0.304497 0.250580 0.451495 0.226272
C44   C     C_3   0.280420 0.132224 0.334967 -0.908215
H24   H     H_    0.222119 0.103821 0.383327 0.262920
H25   H     H_    0.340315 0.091367 0.362107 0.264461
H26   H     H_    0.269970 0.119787 0.242236 0.262153
C45   C     C_2   0.093326 0.638856 0.776743 0.828009
O11   O     O_2   0.067957 0.717257 0.813853 -0.581723
O12   O     O_R   0.161813 0.588949 0.832104 -0.771405
H27   H     H_    0.186314 0.626185 0.899925 0.339457
C46   C     C_2   0.906770 0.403963 0.196996 0.829722
O13   O     O_2   0.932001 0.332066 0.144773 -0.601194
O14   O     O_R   0.838563 0.461477 0.152256 -0.773115
H28   H     H_    0.814568 0.435238 0.077500 0.326047

loop_
_geom_bond_atom_site_label_1
_geom_bond_atom_site_label_2
_ccdc_geom_bond_type
O12   H27   S    
C9    H5    S    
C24   O7    A    
Cu2   O6    S    
C14   C18   A    
C11   H7    S    
C12   H8    S    
C44   H24   S    
C2    O3    A    
Cu1   N1    S    
C45   O11   D    
C23   O5    A    
C35   C37   A    
C24   C26   S    
C43   H23   S    
Cu1   O3    S    
Cu2   O8    S    
C3    C29   A    
C20   H10   S    
C23   O8    A    
Cu1   O1    S    
Cu2   O2    S    
C10   H6    S    
C31   C33   A    
C41   H17   S    
C46   O14   S    
C11   N1    A    
C24   O6    A    
C5    H3    S    
C6    H4    S    
C4    C7    A    
C44   H25   S    
C45   O12   S    
Cu1   O7    S    
Cu2   O4    S    
O10   C42   S    
C13   C19   A    
C40   H15   S    
C39   C40   S    
C14   C20   A    
C19   C22   A    
C3    C8    A    
Cu1   Cu2   S    
C5    C7    A    
C43   H22   S    
C6    C8    A    
C1    C32   S    
C2    C31   S    
C40   H16   S    
C32   C34   A    
C42   H20   S    
C37   C38   A    
C19   H9    S    
C33   O9    S    
Cu1   O5    S    
C41   H19   S    
C17   C18   A    
C42   H21   S    
C34   O10   S    
C12   C14   A    
Cu2   N2    S    
C9    N1    A    
C21   H11   S    
C44   H26   S    
C22   H12   S    
C15   C17   A    
C16   C22   A    
C29   H1    S    
C4    C38   A    
C41   H18   S    
C25   C27   T    
C26   C28   T    
C13   C17   A    
C40   C41   S    
C39   H13   S    
C36   C38   A    
C1    O1    A    
C29   C31   A    
C10   C16   A    
C1    O4    A    
C30   C32   A    
C11   C13   A    
C43   C44   S    
C7    C45   S    
C5    C35   A    
C33   C35   A    
C6    C36   A    
C34   C36   A    
C23   C25   S    
C9    C15   A    
C10   N2    A    
C42   C43   S    
C4    C30   A    
O9    C39   S    
C15   C21   A    
C20   C21   A    
C3    C37   A    
C16   C18   A    
C27   C28   S    
C30   H2    S    
C2    O2    A    
C8    C46   S    
C46   O13   D    
C12   N2    A    
O14   H28   S    
C39   H14   S    
