data_mof_unit_13863.cif
_audit_creation_date              2012-12-10T18:15:25-0500
_audit_creation_method            fapswitch 2.2
_symmetry_space_group_name_H-M    P1
_symmetry_Int_Tables_number       1
_space_group_crystal_system       triclinic
_cell_length_a                    12.641258
_cell_length_b                    12.965976
_cell_length_c                    23.299785
_cell_angle_alpha                 92.185348
_cell_angle_beta                  102.678304
_cell_angle_gamma                 81.98589
_cell_volume                      3689.36504893

loop_
_atom_site_label
_atom_site_type_symbol
_atom_type_description
_atom_site_fract_x
_atom_site_fract_y
_atom_site_fract_z
_atom_type_partial_charge
C1    C     C_R   0.438825 0.692057 0.495980 0.946142
C2    C     C_R   0.557134 0.341203 0.883813 0.630765
C3    C     C_R   0.629699 0.443712 0.770501 0.060288
C4    C     C_R   0.502167 0.497531 0.610883 0.965105
C5    C     C_R   0.616222 0.464098 0.710827 -0.415949
C6    C     C_R   0.511609 0.481630 0.674035 -0.171464
C7    C     C_R   0.418554 0.476436 0.697326 0.514911
C8    C     C_R   0.431958 0.440724 0.754945 -0.126745
C9    C     C_R   0.536563 0.432566 0.792621 0.140733
C10   C     C_R   0.597580 0.497843 0.248054 0.035770
C11   C     C_R   0.591122 0.513487 0.306824 -0.350739
C12   C     C_R   0.473531 0.631682 0.023886 -0.156449
C13   C     C_R   0.500203 0.489862 0.326652 -0.030078
C14   C     C_R   0.413591 0.452382 0.286883 -0.195525
C15   C     C_R   0.418029 0.438391 0.228093 -0.157937
C16   C     C_R   0.561295 0.308080 0.509645 0.836079
C17   C     C_R   0.509044 0.460913 0.208421 0.308128
C18   C     C_R   0.705338 0.063373 0.593421 -0.158894
C19   C     C_R   0.597131 0.199218 0.527836 -0.140176
C20   C     C_R   0.297394 0.842149 0.463753 -0.350691
C21   C     C_R   0.257866 0.948689 0.464751 0.552117
C22   C     C_R   0.327957 0.017969 0.495208 -0.108412
C23   C     C_R   0.484501 0.627710 0.965927 -0.159740
C24   C     C_R   0.437822 0.977886 0.521794 -0.107154
C25   C     C_R   0.461549 0.871767 0.535606 0.092032
C26   C     C_R   0.524901 0.038186 0.536174 0.097667
C27   C     C_R   0.621668 0.000794 0.576899 0.146320
C28   C     C_R   0.499288 0.498593 0.389309 0.869698
C29   C     C_R   0.630483 0.903684 0.602782 -0.331863
C30   C     C_R   0.548652 0.840033 0.583990 0.018454
C31   C     C_R   0.520519 0.131226 0.507612 -0.263278
C32   C     C_R   0.692447 0.164933 0.571408 -0.023703
C33   C     C_R   0.397846 0.802858 0.499987 -0.134638
C34   C     C_R   0.508472 0.531550 0.938759 0.033310
C35   C     C_R   0.092602 0.337049 0.420705 -0.145845
C36   C     C_R   0.802116 0.623495 0.574519 0.031800
C37   C     C_R   0.909786 0.639003 0.596200 -0.262887
C38   C     C_R   0.990405 0.587145 0.569672 -0.067983
C39   C     C_R   0.963004 0.524111 0.519109 0.046812
C40   C     C_R   0.528137 0.358095 0.121923 0.583604
C41   C     C_R   0.854224 0.502376 0.503004 0.165644
C42   C     C_R   0.040635 0.475894 0.487106 -0.077558
C43   C     C_R   0.013001 0.392626 0.447618 0.051346
C44   C     C_R   0.906253 0.366832 0.434974 0.432559
C45   C     C_R   0.519017 0.437784 0.969658 -0.079297
C46   C     C_R   0.827773 0.423194 0.461999 -0.327511
C47   C     C_R   0.145225 0.506769 0.492239 0.115383
C48   C     C_R   0.198364 0.362103 0.434309 -0.013801
C49   C     C_R   0.482917 0.543053 0.115073 0.561748
C50   C     C_R   0.487527 0.539619 0.055867 0.041905
C51   C     C_R   0.509100 0.441968 0.028708 -0.065849
C52   C     C_R   0.523130 0.349319 0.060950 -0.219556
C53   C     C_2   0.775949 0.233095 0.597829 0.413509
C54   C     C_2   0.281320 0.125276 0.509948 0.418848
C55   C     C_3   0.072737 0.939450 0.446947 0.138611
C56   C     C_R   0.542000 0.340746 0.942041 -0.231573
C57   C     C_3   0.964107 0.009510 0.428986 -0.692393
C58   C     C_2   0.544021 0.754467 0.623146 0.402935
C59   C     C_3   0.802109 0.313675 0.348450 0.053230
C60   C     C_3   0.799299 0.226745 0.302712 -0.724894
C61   C     C_2   0.169347 0.610967 0.513399 0.388088
C62   C     C_3   0.473929 0.115974 0.915671 0.138320
C63   C     C_3   0.503275 0.024060 0.876903 -0.692872
C64   C     C_3   0.429736 0.144849 0.063067 0.123279
C65   C     C_3   0.427298 0.030594 0.074585 -0.741224
C66   C     C_2   0.742059 0.435560 0.807825 0.484825
C67   C     C_R   0.546265 0.247359 0.972820 0.411204
C68   C     C_3   0.290061 0.621333 0.680761 0.127101
C69   C     C_3   0.200702 0.636133 0.716082 -0.805942
C70   C     C_2   0.336842 0.414706 0.776857 0.456769
C71   C     C_2   0.698108 0.520002 0.230430 0.408870
C72   C     C_R   0.534476 0.251829 0.031647 0.419912
C73   C     C_R   0.520512 0.527079 0.880784 0.529095
H1    H     H_    0.456314 0.707231 0.043861 0.187473
H2    H     H_    0.261517 0.317005 0.415677 0.136108
H3    H     H_    0.074530 0.272801 0.390692 0.205819
H4    H     H_    0.739000 0.661614 0.595355 0.113619
H5    H     H_    0.073740 0.593920 0.591029 0.148439
H6    H     H_    0.931016 0.688735 0.634201 0.150339
H7    H     H_    0.747978 0.400039 0.452461 0.219865
H8    H     H_    0.688128 0.468242 0.693256 0.178070
H9    H     H_    0.755202 0.316586 0.600861 0.100646
H10   H     H_    0.332612 0.177213 0.536673 0.089018
H11   H     H_    0.087823 0.926015 0.495285 0.170660
H12   H     H_    0.658662 0.541971 0.337468 0.157958
H13   H     H_    0.065633 0.864091 0.422995 0.174173
H14   H     H_    0.945637 0.024276 0.380939 0.251991
H15   H     H_    0.897464 0.971455 0.439707 0.199060
H16   H     H_    0.967876 0.084965 0.453060 0.304909
H17   H     H_    0.616628 0.722107 0.654632 0.059133
H18   H     H_    0.821256 0.384047 0.328756 0.131599
H19   H     H_    0.719709 0.329788 0.358897 0.157592
H20   H     H_    0.777494 0.155916 0.320187 0.249298
H21   H     H_    0.737212 0.251714 0.262350 0.252185
H22   H     H_    0.880675 0.208086 0.291282 0.253433
H23   H     H_    0.342791 0.433190 0.301170 0.163709
H24   H     H_    0.242572 0.619344 0.546018 0.132946
H25   H     H_    0.419974 0.177773 0.886921 0.125822
H26   H     H_    0.427665 0.088441 0.945913 0.128447
H27   H     H_    0.554888 0.960000 0.904472 0.253099
H28   H     H_    0.427502 0.995093 0.852101 0.194120
H29   H     H_    0.548784 0.048065 0.845077 0.282639
H30   H     H_    0.368351 0.167842 0.021891 0.073220
H31   H     H_    0.403357 0.191511 0.099621 0.174880
H32   H     H_    0.484227 0.006699 0.116848 0.275088
H33   H     H_    0.343260 0.018298 0.077134 0.204904
H34   H     H_    0.350062 0.410880 0.197402 0.138079
H35   H     H_    0.452247 0.981446 0.038464 0.244683
H36   H     H_    0.809921 0.447708 0.788408 0.049387
H37   H     H_    0.258580 0.666048 0.639647 0.168217
H38   H     H_    0.361479 0.658551 0.705380 0.176479
H39   H     H_    0.235427 0.613539 0.762529 0.252106
H40   H     H_    0.164978 0.719437 0.715545 0.210963
H41   H     H_    0.134675 0.588723 0.697027 0.280404
H42   H     H_    0.341066 0.408594 0.823603 0.016963
H43   H     H_    0.757913 0.558693 0.261245 0.056044
H44   H     H_    0.699110 0.878897 0.638586 0.138375
H45   H     H_    0.777723 0.035224 0.626246 0.179293
H46   H     H_    0.453096 0.154098 0.470916 0.152377
H47   H     H_    0.249009 0.789910 0.435436 0.189794
H48   H     H_    0.474823 0.700334 0.942640 0.185855
N1    N     N_R   0.506322 0.453535 0.146931 -0.339714
N2    N     N_R   0.542880 0.433111 0.854570 -0.329546
N3    N     N_R   0.222200 0.444670 0.469780 -0.143628
N4    N     N_R   0.776960 0.554790 0.529910 -0.117719
O1    O     O_R   0.366740 0.627150 0.485570 -0.627788
O2    O     O_R   0.410990 0.482290 0.406510 -0.618185
O3    O     O_R   0.589070 0.517660 0.425810 -0.631966
O4    O     O_2   0.558324 0.273304 0.156511 -0.533285
O5    O     O_2   0.870204 0.195595 0.618422 -0.546544
O6    O     O_2   0.183352 0.154985 0.496035 -0.524862
O7    O     O_3   0.155974 0.987864 0.431483 -0.586937
O8    O     O_2   0.456981 0.724465 0.623638 -0.643792
O9    O     O_3   0.881685 0.281321 0.399408 -0.611466
O10   O     O_2   0.106696 0.688524 0.494538 -0.630743
O11   O     O_3   0.571191 0.150835 0.947773 -0.524933
O12   O     O_2   0.458069 0.635231 0.141278 -0.560532
O13   O     O_3   0.537541 0.159157 0.060019 -0.529659
O14   O     O_2   0.761085 0.415009 0.860071 -0.535480
O15   O     O_3   0.315087 0.514587 0.665809 -0.587159
O16   O     O_2   0.253370 0.396160 0.742741 -0.510291
O17   O     O_2   0.717203 0.493671 0.182478 -0.547684
O18   O     O_2   0.508434 0.615900 0.850140 -0.578274
O19   O     O_2   0.584904 0.251686 0.856107 -0.511197
O20   O     O_R   0.544830 0.662520 0.504870 -0.613001
O21   O     O_R   0.410930 0.482340 0.574190 -0.592252
O22   O     O_R   0.589010 0.517710 0.593490 -0.642016
O23   O     O_R   0.455170 0.337480 0.495130 -0.615057
O24   O     O_R   0.633260 0.372850 0.514430 -0.651420
Zn1   Zn    Zn3+2 0.381090 0.476380 0.487110 0.958016
Zn2   Zn    Zn3+2 0.618910 0.523620 0.512890 0.927536

loop_
_geom_bond_atom_site_label_1
_geom_bond_atom_site_label_2
_ccdc_geom_bond_type
C64   H30   S    
C15   H34   S    
C40   O4    S    
C49   O12   S    
C27   C29   A    
C2    O19   S    
C65   H33   S    
C1    O20   A    
C36   N4    A    
C63   H28   S    
C19   C31   A    
C1    C33   S    
C7    C8    A    
C39   C41   A    
C64   O13   S    
C2    N2    A    
C54   O6    D    
C37   H6    S    
C12   C23   A    
C69   H40   S    
C26   C27   A    
C63   H27   S    
C57   H16   S    
C3    C9    A    
C36   C37   A    
C24   C26   A    
C12   H1    S    
C36   H4    S    
O24   Zn2   S    
O2    Zn1   S    
C7    O15   S    
C69   H39   S    
C19   C32   A    
C10   C17   A    
C62   O11   S    
C11   C13   A    
C64   H31   S    
C67   C72   A    
C14   H23   S    
N4    Zn2   S    
O21   Zn1   S    
C66   O14   D    
C45   C56   A    
C68   C69   S    
C73   N2    A    
C41   C46   A    
C13   C28   S    
C16   O24   A    
C29   C30   A    
C35   C43   A    
C18   H45   S    
C65   H35   S    
C28   O2    A    
C59   H19   S    
C60   H20   S    
C72   O13   S    
C59   C60   S    
C62   H25   S    
C21   C22   A    
C22   C54   S    
C48   H2    S    
C63   H29   S    
C35   C48   A    
C65   H32   S    
C54   H10   S    
C44   C46   A    
C39   C42   A    
C58   O8    D    
C44   O9    S    
C38   C39   A    
C35   H3    S    
C69   H41   S    
C51   C52   A    
C41   N4    A    
C1    O1    A    
C4    C6    S    
C8    C9    A    
C59   H18   S    
C38   H5    S    
C40   C52   A    
C4    O22   A    
C29   H44   S    
C57   H14   S    
C53   H9    S    
C68   H38   S    
O22   Zn2   S    
C43   C44   A    
C21   O7    S    
C48   N3    A    
C37   C38   A    
C52   C72   A    
C5    H8    S    
O3    Zn2   S    
C23   C34   A    
C4    O21   A    
C62   C63   S    
C50   C51   A    
C34   C45   A    
C68   H37   S    
C24   C25   A    
C58   H17   S    
C31   H46   S    
O20   Zn2   S    
C23   H48   S    
C71   O17   D    
C20   C33   A    
C49   C50   A    
C55   C57   S    
C22   C24   A    
C68   O15   S    
C3    C66   S    
C18   C32   A    
C42   C43   A    
C32   C53   S    
C20   H47   S    
C61   O10   D    
C73   O18   S    
C25   C30   A    
C15   C17   A    
N3    Zn1   S    
C70   O16   D    
C61   H24   S    
C18   C27   A    
O23   Zn1   S    
C3    C5    A    
C47   C61   S    
C12   C50   A    
C6    C7    A    
C70   H42   S    
C56   C67   A    
C40   N1    A    
C59   O9    S    
C8    C70   S    
C57   H15   S    
C16   O23   A    
C64   C65   S    
C55   H13   S    
C67   O11   S    
C2    C56   A    
C10   C71   S    
C46   H7    S    
O1    Zn1   S    
C47   N3    A    
C5    C6    A    
C11   H12   S    
C16   C19   S    
C49   N1    A    
C30   C58   S    
C9    N2    S    
C71   H43   S    
C42   C47   A    
C66   H36   S    
C10   C11   A    
C34   C73   A    
C62   H26   S    
C60   H22   S    
C17   N1    S    
C26   C31   A    
C20   C21   A    
C55   O7    S    
C45   C51   A    
C14   C15   A    
C53   O5    D    
C55   H11   S    
C13   C14   A    
C28   O3    A    
C25   C33   A    
C60   H21   S    
