data_mof_unit_28070.cif
_audit_creation_date              2012-12-10T16:57:08-0500
_audit_creation_method            fapswitch 2.2
_symmetry_space_group_name_H-M    P1
_symmetry_Int_Tables_number       1
_space_group_crystal_system       triclinic
_cell_length_a                    7.778701
_cell_length_b                    8.572968
_cell_length_c                    16.695274
_cell_angle_alpha                 92.106823
_cell_angle_beta                  80.184624
_cell_angle_gamma                 93.866364
_cell_volume                      1094.19485838

loop_
_atom_site_label
_atom_site_type_symbol
_atom_type_description
_atom_site_fract_x
_atom_site_fract_y
_atom_site_fract_z
_atom_type_partial_charge
Br1   Br    Br    0.740085 0.804887 0.684309 -0.520314
Br2   Br    Br    0.220654 0.306971 0.263451 -0.483437
Br3   Br    Br    0.769611 0.507601 0.935399 -0.485058
Br4   Br    Br    0.269246 0.767335 0.058250 -0.471657
C1    C     C_R   0.546286 0.794794 0.497643 0.983564
C2    C     C_R   0.414968 0.441679 0.214972 0.264587
C3    C     C_R   0.554640 0.736214 0.841786 -0.109264
C4    C     C_R   0.432000 0.469566 0.132631 -0.116225
C5    C     C_R   0.434566 0.655729 0.899943 0.093596
C6    C     C_R   0.572346 0.565723 0.094294 0.095622
C7    C     C_R   0.322872 0.533857 0.877111 -0.070515
C8    C     C_R   0.703083 0.625827 0.136316 -0.074122
C9    C     C_R   0.339232 0.485414 0.796159 -0.194154
C10   C     C_R   0.687886 0.597665 0.218460 -0.201960
C11   C     C_2   0.453120 0.671834 0.984577 0.152826
C12   C     C_R   0.453742 0.205185 0.502025 0.974470
C13   C     C_2   0.582718 0.599579 0.009318 0.160873
C14   C     C_2   0.570617 0.958327 0.496413 -0.324184
C15   C     C_2   0.429430 0.041628 0.503044 -0.346949
C16   C     C_R   0.478048 0.510273 0.653896 0.902878
C17   C     C_R   0.523102 0.496176 0.345728 0.903473
C18   C     C_R   0.468954 0.557370 0.738385 -0.094569
C19   C     C_R   0.541937 0.509263 0.258514 -0.108769
C20   C     C_R   0.573413 0.687253 0.760803 0.254923
H1    H     H_    0.787038 0.649498 0.251372 0.188759
H2    H     H_    0.977570 0.621212 0.559966 0.233168
H3    H     H_    0.254332 0.389181 0.778836 0.178338
H4    H     H_    0.230778 0.470570 0.922505 0.186700
H5    H     H_    0.813550 0.697536 0.106133 0.200026
H6    H     H_    0.334628 0.418323 0.098507 0.184140
H7    H     H_    0.640753 0.830403 0.860238 0.190462
H8    H     H_    0.703837 0.009619 0.490236 0.194756
H9    H     H_    0.296211 0.990319 0.509251 0.192339
H10   H     H_    0.022498 0.378581 0.440113 0.227294
N1    N     N_2   0.953500 0.457650 0.478520 -0.159778
N2    N     N_2   0.046500 0.542350 0.521480 -0.161505
O1    O     O_R   0.388470 0.738640 0.505270 -0.614783
O2    O     O_R   0.611530 0.261360 0.494730 -0.610696
O3    O     O_R   0.679650 0.711510 0.491500 -0.610585
O4    O     O_R   0.320350 0.288490 0.508500 -0.618465
O5    O     O_R   0.337210 0.515200 0.623500 -0.606049
O6    O     O_R   0.662790 0.484800 0.376500 -0.610452
O7    O     O_R   0.628380 0.488060 0.609730 -0.588393
O8    O     O_R   0.371620 0.511940 0.390270 -0.592809
Zn1   Zn    Zn3+2 0.305580 0.518120 0.509190 1.005111
Zn2   Zn    Zn3+2 0.694420 0.481880 0.490810 1.006790

loop_
_geom_bond_atom_site_label_1
_geom_bond_atom_site_label_2
_ccdc_geom_bond_type
C10   C19   A    
C11   C13   D    
C1    O1    A    
C8    H5    S    
C17   O8    A    
C7    C9    A    
O6    Zn2   S    
N1    N2    D    
C4    H6    S    
Br4   C11   S    
C17   C19   S    
C16   O5    A    
C5    C11   S    
N2    Zn1   S    
C5    C7    A    
Br2   C2    S    
C6    C8    A    
C7    H4    S    
C12   O4    A    
O3    Zn2   S    
C2    C19   A    
H2    N2    S    
C8    C10   A    
C9    C18   A    
Br3   C13   S    
C1    O3    A    
C10   H1    S    
C12   C15   S    
O4    Zn1   S    
H10   N1    S    
O7    Zn2   S    
C18   C20   A    
O2    Zn2   S    
C3    H7    S    
C6    C13   S    
O1    Zn1   S    
C3    C20   A    
C16   O7    A    
C14   H8    S    
O8    Zn1   S    
Br1   C20   S    
C4    C6    A    
C14   C15   D    
C15   H9    S    
C12   O2    A    
C3    C5    A    
O5    Zn1   S    
C9    H3    S    
C2    C4    A    
C1    C14   S    
N1    Zn2   S    
C17   O6    A    
C16   C18   S    
