data_mof_unit_50279.cif
_audit_creation_date              2012-12-10T18:58:15-0500
_audit_creation_method            fapswitch 2.2
_symmetry_space_group_name_H-M    P1
_symmetry_Int_Tables_number       1
_space_group_crystal_system       triclinic
_cell_length_a                    11.05451
_cell_length_b                    10.825771
_cell_length_c                    9.549327
_cell_angle_alpha                 89.880474
_cell_angle_beta                  102.799108
_cell_angle_gamma                 90.190075
_cell_volume                      1114.39964519

loop_
_atom_site_label
_atom_site_type_symbol
_atom_type_description
_atom_site_fract_x
_atom_site_fract_y
_atom_site_fract_z
_atom_type_partial_charge
C1    C     C_R   0.502092 0.262316 0.500596 0.793124
C2    C     C_R   0.514175 0.129223 0.503309 -0.093275
C3    C     C_R   0.526731 0.064731 0.379640 -0.220124
C4    C     C_R   0.526489 0.936003 0.379431 -0.221275
C5    C     C_R   0.514049 0.870805 0.502973 -0.092894
C6    C     C_R   0.518858 0.936091 0.629981 0.114935
C7    C     C_3   0.436134 0.928964 0.734057 -0.469069
C8    C     C_3   0.436454 0.069204 0.734493 -0.479233
C9    C     C_R   0.541109 0.600954 0.084133 0.176682
C10   C     C_R   0.445747 0.406975 0.060652 -0.066518
C11   C     C_R   0.445149 0.407330 0.911674 -0.065495
C12   C     C_R   0.262771 0.499620 0.441690 0.857069
C13   C     C_R   0.543682 0.599769 0.937750 0.174404
C14   C     C_3   0.671015 0.655432 0.967311 0.304242
C15   C     C_3   0.665775 0.659662 0.125366 -0.542199
C16   C     C_R   0.502109 0.737672 0.500380 0.792336
C17   C     C_R   0.737241 0.499401 0.558278 0.870399
C18   C     C_2   0.127734 0.498255 0.408782 -0.358040
C19   C     C_2   0.067400 0.496483 0.515536 -0.154387
C20   C     C_2   0.872288 0.498115 0.591047 -0.351548
C21   C     C_2   0.932743 0.495278 0.484499 -0.162479
C22   C     C_R   0.518961 0.063269 0.630177 0.140146
Cu1   Cu    Cu3+1 0.499990 0.499980 0.640670 0.970522
Cu2   Cu    Cu3+1 0.500010 0.500020 0.359330 0.942161
H1    H     H_    0.882907 0.492480 0.372902 0.183166
H2    H     H_    0.484772 0.109056 0.839249 0.194148
H3    H     H_    0.403698 0.330503 0.105491 0.131994
H4    H     H_    0.402061 0.331559 0.845260 0.129649
H5    H     H_    0.671946 0.747402 0.914702 0.063353
H6    H     H_    0.735043 0.599606 0.195372 0.229114
H7    H     H_    0.661145 0.755281 0.165684 0.144145
H8    H     H_    0.117460 0.496531 0.627289 0.178745
H9    H     H_    0.922710 0.499633 0.702376 0.155662
H10   H     H_    0.077410 0.498534 0.297178 0.149795
H11   H     H_    0.530461 0.112991 0.281202 0.163159
H12   H     H_    0.529636 0.888340 0.280789 0.158889
H13   H     H_    0.343805 0.888182 0.686136 0.200330
H14   H     H_    0.483841 0.888378 0.838651 0.181153
H15   H     H_    0.344267 0.110095 0.687120 0.193776
N1    N     N_R   0.500780 0.500930 0.148120 -0.166858
N2    N     N_R   0.500790 0.500890 0.852210 -0.163371
O1    O     O_R   0.500000 0.319640 0.618810 -0.583781
O2    O     O_R   0.500010 0.319680 0.381230 -0.593334
O3    O     O_R   0.320680 0.500000 0.575130 -0.587674
O4    O     O_R   0.320690 0.500040 0.337550 -0.581911
O5    O     O_R   0.499990 0.680320 0.618770 -0.592400
O6    O     O_R   0.500000 0.680360 0.381190 -0.583615
O7    O     O_R   0.679310 0.499960 0.662450 -0.520543
O8    O     O_R   0.679320 0.500000 0.424870 -0.587411
O9    O     O_3   0.760352 0.570232 0.942312 -0.518484
C23   C     C_3   0.876014 0.630478 0.960014 -0.326531
H16   H     H_    0.903428 0.676743 0.066428 0.155382
H17   H     H_    0.874666 0.698269 0.871991 0.157313
H18   H     H_    0.947947 0.560493 0.954999 0.176656

loop_
_geom_bond_atom_site_label_1
_geom_bond_atom_site_label_2
_ccdc_geom_bond_type
C10   H3    S    
C2    C22   A    
C8    C22   S    
Cu1   Cu2   S    
C4    H12   S    
C15   H7    S    
C6    C7    S    
C12   O4    A    
C8    H15   S    
C8    H2    S    
Cu1   N2    S    
C17   O7    A    
C3    H11   S    
C23   H18   S    
C13   N2    A    
O9    C23   S    
C7    H13   S    
Cu2   O4    S    
C7    C8    S    
C12   O3    A    
Cu1   O5    S    
C13   C14   S    
C18   H10   S    
C14   O9    S    
Cu1   O1    S    
C11   H4    S    
C19   H8    S    
C16   O6    A    
C19   C21   S    
C7    H14   S    
C11   N2    A    
C2    C3    A    
C9    C15   S    
C5    C6    A    
C10   C11   A    
C20   H9    S    
C14   H5    S    
C12   C18   S    
C3    C4    A    
C6    C22   A    
C1    O1    A    
C17   C20   S    
C20   C21   D    
C15   H6    S    
C10   N1    A    
C1    C2    S    
C16   O5    A    
Cu2   O8    S    
Cu2   O2    S    
C9    C13   A    
C14   C15   S    
C18   C19   D    
C5    C16   S    
C21   H1    S    
Cu1   O7    S    
Cu2   N1    S    
Cu2   O6    S    
C1    O2    A    
C9    N1    A    
C17   O8    A    
Cu1   O3    S    
C23   H16   S    
C4    C5    A    
C23   H17   S    
