data_mof_unit_21545.cif
_audit_creation_date              2012-12-10T17:55:03-0500
_audit_creation_method            fapswitch 2.2
_symmetry_space_group_name_H-M    P1
_symmetry_Int_Tables_number       1
_space_group_crystal_system       triclinic
_cell_length_a                    8.797401
_cell_length_b                    10.832697
_cell_length_c                    9.513651
_cell_angle_alpha                 89.985438
_cell_angle_beta                  97.326069
_cell_angle_gamma                 90.180585
_cell_volume                      899.241074611

loop_
_atom_site_label
_atom_site_type_symbol
_atom_type_description
_atom_site_fract_x
_atom_site_fract_y
_atom_site_fract_z
_atom_type_partial_charge
C1    C     C_R   0.499932 0.262062 0.499964 0.780606
C2    C     C_R   0.500068 0.737938 0.500036 0.780606
C3    C     C_R   0.204595 0.496918 0.465032 0.882315
C4    C     C_R   0.795405 0.503082 0.534968 0.882314
C5    C     C_2   0.041579 0.476854 0.450279 -0.026417
C6    C     C_2   0.958421 0.523146 0.549721 -0.026417
C7    C     C_R   0.502133 0.063882 0.372525 -0.190813
C8    C     C_R   0.497867 0.936118 0.627475 -0.190813
C9    C     C_R   0.502249 0.936172 0.372548 -0.185699
C10   C     C_R   0.497751 0.063828 0.627452 -0.185699
C11   C     C_R   0.500087 0.871781 0.500018 -0.014861
C12   C     C_R   0.499913 0.128219 0.499982 -0.014861
C13   C     C_R   0.399297 0.427757 0.062532 -0.018637
C14   C     C_R   0.600703 0.572243 0.937468 -0.018637
C15   C     C_R   0.399322 0.427808 0.913669 -0.034587
C16   C     C_R   0.600678 0.572192 0.086331 -0.034587
Cu1   Cu    Cu3+1 0.500000 0.500020 0.640660 0.934300
Cu2   Cu    Cu3+1 0.500000 0.499980 0.359340 0.934300
H1    H     H_    0.503869 0.111938 0.272870 0.149836
H2    H     H_    0.496131 0.888062 0.727130 0.149836
H3    H     H_    0.504100 0.888158 0.272916 0.149795
H4    H     H_    0.495900 0.111841 0.727084 0.149795
H5    H     H_    0.318823 0.369730 0.109154 0.117253
H6    H     H_    0.681177 0.630270 0.890846 0.117253
H7    H     H_    0.318826 0.369872 0.848007 0.120229
H8    H     H_    0.681174 0.630128 0.151993 0.120229
N1    N     N_R   0.500040 0.500030 0.852080 -0.157567
N2    N     N_R   0.499960 0.499970 0.147920 -0.157567
O1    O     O_R   0.499990 0.319660 0.618740 -0.589641
O2    O     O_R   0.500010 0.680340 0.381260 -0.589641
O3    O     O_R   0.499990 0.319630 0.381170 -0.593136
O4    O     O_R   0.500010 0.680370 0.618830 -0.593136
O5    O     O_R   0.274840 0.500010 0.591370 -0.588534
O6    O     O_R   0.725160 0.499990 0.408630 -0.588533
O7    O     O_R   0.274830 0.499980 0.353800 -0.585773
O8    O     O_R   0.725170 0.500020 0.646200 -0.585772
C17   C     C_3   0.976357 0.390916 0.330929 -0.857080
H9    H     H_    0.068343 0.342788 0.282722 0.220909
H10   H     H_    0.904760 0.317754 0.371696 0.232914
H11   H     H_    0.908235 0.444059 0.245265 0.254585
C18   C     C_3   0.023643 0.609084 0.669071 -0.857078
H12   H     H_    0.931657 0.657212 0.717278 0.220909
H13   H     H_    0.091764 0.555940 0.754735 0.254584
H14   H     H_    0.095241 0.682246 0.628304 0.232914

loop_
_geom_bond_atom_site_label_1
_geom_bond_atom_site_label_2
_ccdc_geom_bond_type
C16   N2    A    
C4    O8    A    
C13   N2    A    
C17   H9    S    
Cu2   O2    S    
Cu1   O8    S    
C5    C17   S    
C14   N1    A    
C18   H13   S    
Cu2   O7    S    
C15   N1    A    
C13   C15   A    
C3    O7    A    
C2    O2    A    
C1    O1    A    
Cu1   Cu2   S    
Cu2   N2    S    
C17   H10   S    
C10   H4    S    
C9    C11   A    
C9    H3    S    
C8    H2    S    
C1    C12   S    
Cu1   O5    S    
C8    C11   A    
C2    C11   S    
C10   C12   A    
C4    C6    S    
C17   H11   S    
C14   C16   A    
Cu2   O6    S    
C16   H8    S    
C5    C6    D    
C18   H14   S    
C4    O6    A    
C7    C12   A    
C15   H7    S    
C3    O5    A    
Cu1   N1    S    
C1    O3    A    
Cu1   O1    S    
C13   H5    S    
C2    O4    A    
C18   H12   S    
C14   H6    S    
C7    C9    A    
Cu1   O4    S    
C7    H1    S    
Cu2   O3    S    
C8    C10   A    
C3    C5    S    
C6    C18   S    
