data_mof_unit_11180.cif
_audit_creation_date              2012-12-11T15:10:50-0500
_audit_creation_method            fapswitch 2.2
_symmetry_space_group_name_H-M    P1
_symmetry_Int_Tables_number       1
_space_group_crystal_system       triclinic
_cell_length_a                    21.352357
_cell_length_b                    7.220171
_cell_length_c                    17.983276
_cell_angle_alpha                 89.609978
_cell_angle_beta                  93.580382
_cell_angle_gamma                 89.358947
_cell_volume                      2766.77696126

loop_
_atom_site_label
_atom_site_type_symbol
_atom_type_description
_atom_site_fract_x
_atom_site_fract_y
_atom_site_fract_z
_atom_type_partial_charge
O1    O     O_R   0.448880 0.506250 0.415280 -0.523952
O2    O     O_R   0.551120 0.006250 0.584720 -0.532401
O3    O     O_R   0.434830 0.174000 0.557310 -0.525673
O4    O     O_R   0.565170 0.674000 0.442690 -0.515576
C1    C     C_R   0.416852 0.345010 0.579476 0.694927
C2    C     C_R   0.583301 0.844379 0.420623 0.699371
O5    O     O_R   0.441680 0.176440 0.414130 -0.536296
O6    O     O_R   0.558320 0.676440 0.585870 -0.529799
O7    O     O_R   0.558020 0.007570 0.440520 -0.522169
O8    O     O_R   0.441980 0.507570 0.559480 -0.511697
C3    C     C_R   0.428611 0.346916 0.387255 0.685315
C4    C     C_R   0.571290 0.844110 0.612861 0.690690
O9    O     O_3   0.538160 0.339670 0.508820 -0.363551
O10   O     O_3   0.461840 0.839670 0.491180 -0.362814
V1    V     V_3+5 0.492920 0.064260 0.498360 1.405189
V2    V     V_3+5 0.507080 0.564260 0.501640 1.443076
C5    C     C_R   0.876760 0.889162 0.682884 -0.093523
C6    C     C_R   0.124421 0.287764 0.308485 -0.097050
H1    H     H_    0.791912 0.870722 0.564271 0.142147
H2    H     H_    0.208562 0.227839 0.425410 0.142014
C7    C     C_R   0.887389 0.939308 0.817154 -0.241613
C8    C     C_R   0.110992 0.425725 0.184033 -0.253958
C9    C     C_R   0.582749 0.825998 0.752107 0.002995
C10   C     C_R   0.417832 0.416335 0.250276 0.006447
C11   C     C_R   0.619873 0.821498 0.818878 -0.187878
C12   C     C_R   0.380877 0.447873 0.184382 -0.187453
C13   C     C_R   0.684365 0.847528 0.819966 -0.168001
C14   C     C_R   0.315843 0.439534 0.182758 -0.163957
C15   C     C_R   0.714769 0.882061 0.753911 0.104311
C16   C     C_R   0.284443 0.404085 0.247867 0.106194
C17   C     C_R   0.677480 0.873523 0.684913 0.057772
C18   C     C_R   0.322144 0.357171 0.314329 0.059304
C19   C     C_R   0.781658 0.909407 0.753709 -0.038270
C20   C     C_R   0.216907 0.401714 0.247873 -0.043793
C21   C     C_R   0.810385 0.893901 0.684632 -0.013843
C22   C     C_R   0.189610 0.323267 0.310742 -0.019678
C23   C     C_R   0.772277 0.879950 0.618057 -0.150132
C24   C     C_R   0.227969 0.279577 0.375258 -0.150478
C25   C     C_R   0.707503 0.878012 0.618066 -0.184365
C26   C     C_R   0.292357 0.301378 0.377667 -0.192079
C27   C     C_R   0.821370 0.949563 0.819020 0.269908
C28   C     C_R   0.175243 0.472036 0.188028 0.266520
C29   C     C_R   0.914841 0.910000 0.749084 0.297682
C30   C     C_R   0.085679 0.335758 0.245038 0.310403
C31   C     C_R   0.611137 0.850796 0.683953 -0.134075
C32   C     C_R   0.388985 0.365594 0.316078 -0.136238
H3    H     H_    0.709578 0.828902 0.873228 0.183272
H4    H     H_    0.291513 0.453782 0.128741 0.182565
H5    H     H_    0.598585 0.796058 0.871094 0.130402
H6    H     H_    0.402850 0.478414 0.133037 0.129887
H7    H     H_    0.681279 0.869828 0.564701 0.103002
H8    H     H_    0.318846 0.266064 0.429200 0.112423
C33   C     C_1   0.865143 0.939370 0.133040 -0.199623
C34   C     C_1   0.134989 0.437927 0.867291 -0.190293
C35   C     C_1   0.822724 0.925053 0.177348 -0.007110
C36   C     C_1   0.177573 0.423861 0.823169 -0.007142
C37   C     C_1   0.772605 0.905369 0.230027 -0.008928
C38   C     C_1   0.227810 0.404872 0.770593 -0.011078
C39   C     C_1   0.730283 0.888282 0.274309 -0.024229
C40   C     C_1   0.270208 0.388628 0.726335 -0.022224
C41   C     C_1   0.679721 0.868863 0.326405 -0.026359
C42   C     C_1   0.320838 0.370572 0.674241 -0.017699
C43   C     C_1   0.636367 0.855161 0.369474 -0.199239
C44   C     C_1   0.364071 0.357076 0.630975 -0.202743
O11   O     O_R   0.058070 0.289240 0.940580 -0.528372
O12   O     O_R   0.941930 0.789240 0.059420 -0.526977
O13   O     O_R   0.058330 0.616740 0.085880 -0.534950
O14   O     O_R   0.941670 0.116740 0.914120 -0.547900
C45   C     C_R   0.071413 0.446696 0.112998 0.798589
C46   C     C_R   0.928301 0.949217 0.887232 0.817125
O15   O     O_R   0.065180 0.619040 0.942700 -0.516144
O16   O     O_R   0.934820 0.119040 0.057300 -0.519764
O17   O     O_R   0.948870 0.787780 0.915270 -0.524450
O18   O     O_R   0.051130 0.287780 0.084730 -0.518621
C47   C     C_R   0.083038 0.449954 0.919977 0.718039
C48   C     C_R   0.916951 0.950517 0.080119 0.735345
O19   O     O_3   0.961870 0.453310 0.991210 -0.374464
O20   O     O_3   0.038130 0.953310 0.008790 -0.371918
V3    V     V_3+5 0.007070 0.728770 0.001630 1.441446
V4    V     V_3+5 0.992930 0.228770 0.998370 1.424508
O21   O     O_3   0.979432 0.893446 0.747804 -0.551357
C49   C     C_3   0.004286 0.069805 0.733587 0.089130
H9    H     H_    0.992394 0.170856 0.777221 0.111673
H10   H     H_    0.986412 0.124052 0.678082 0.115028
C50   C     C_3   0.075355 0.053902 0.733803 -0.689264
H11   H     H_    0.088865 0.951126 0.691854 0.218719
H12   H     H_    0.095212 0.190312 0.719792 0.178149
H13   H     H_    0.095055 0.009242 0.789783 0.222159
O22   O     O_3   0.023262 0.284462 0.241278 -0.546950
C51   C     C_3   0.986306 0.437851 0.260999 0.098503
H14   H     H_    0.989016 0.553035 0.219897 0.104365
H15   H     H_    0.001411 0.489362 0.317449 0.104957
C52   C     C_3   0.918184 0.379223 0.261989 -0.688623
H16   H     H_    0.913756 0.265476 0.303176 0.217862
H17   H     H_    0.888668 0.498645 0.277685 0.174780
H18   H     H_    0.901216 0.330554 0.205909 0.222694
C53   C     C_R   0.906576 0.846690 0.612528 0.158912
C54   C     C_R   0.926170 0.664651 0.598539 -0.084388
C55   C     C_R   0.945136 0.616794 0.528076 -0.163524
C56   C     C_R   0.944353 0.749901 0.471224 -0.087414
C57   C     C_R   0.925940 0.932215 0.485181 -0.097139
C58   C     C_R   0.907843 0.981353 0.555858 -0.197484
H19   H     H_    0.924706 0.558782 0.641355 0.101351
H20   H     H_    0.959135 0.475681 0.517065 0.110035
H21   H     H_    0.958368 0.712144 0.416491 0.105644
H22   H     H_    0.925702 0.035407 0.441203 0.124327
H23   H     H_    0.892320 0.121953 0.565627 0.107715
C59   C     C_R   0.097869 0.184126 0.370286 0.174590
C60   C     C_R   0.104933 0.990642 0.373726 -0.116682
C61   C     C_R   0.092630 0.894527 0.438813 -0.146332
C62   C     C_R   0.073115 0.990639 0.500626 -0.074342
C63   C     C_R   0.064124 0.182515 0.496773 -0.135247
C64   C     C_R   0.076499 0.279375 0.431803 -0.156876
H24   H     H_    0.122674 0.915675 0.327317 0.095065
H25   H     H_    0.099499 0.746094 0.441894 0.107827
H26   H     H_    0.064269 0.916071 0.551244 0.128574
H27   H     H_    0.048894 0.256352 0.544730 0.111035
H28   H     H_    0.072105 0.428691 0.430599 0.091869
O23   O     O_3   0.797129 0.003898 0.885029 -0.569731
C65   C     C_3   0.783177 0.195501 0.880478 0.090140
H29   H     H_    0.744708 0.224534 0.837120 0.129307
H30   H     H_    0.825293 0.276732 0.867477 0.126415
C66   C     C_3   0.761779 0.260535 0.955127 -0.694486
H31   H     H_    0.799618 0.235587 0.999425 0.222559
H32   H     H_    0.750531 0.411073 0.952208 0.176506
H33   H     H_    0.719218 0.184146 0.969346 0.217669
O24   O     O_3   0.195517 0.591509 0.134433 -0.564604
C67   C     C_3   0.196179 0.772545 0.163954 0.107288
H34   H     H_    0.231306 0.782766 0.212192 0.124273
H35   H     H_    0.149011 0.813811 0.182038 0.120854
C68   C     C_3   0.213969 0.909123 0.104313 -0.677535
H36   H     H_    0.179287 0.904012 0.055712 0.227591
H37   H     H_    0.214503 0.051772 0.127118 0.174313
H38   H     H_    0.261332 0.874226 0.085871 0.213131
C69   C     C_R   0.514424 0.797605 0.755435 0.078409
C70   C     C_R   0.471523 0.939025 0.732908 -0.118308
C71   C     C_R   0.407242 0.913863 0.739196 -0.122247
C72   C     C_R   0.385436 0.748536 0.768317 -0.083752
C73   C     C_R   0.427831 0.607182 0.790802 -0.118206
C74   C     C_R   0.492136 0.631416 0.784484 -0.138601
H39   H     H_    0.487877 0.069421 0.711704 0.106624
H40   H     H_    0.374287 0.022977 0.722206 0.121293
H41   H     H_    0.335686 0.730371 0.773653 0.118208
H42   H     H_    0.410879 0.479022 0.813302 0.115953
H43   H     H_    0.524570 0.521136 0.802373 0.109821
C75   C     C_R   0.486684 0.438486 0.247957 0.086637
C76   C     C_R   0.528211 0.292116 0.268747 -0.124429
C77   C     C_R   0.592801 0.313080 0.263427 -0.119947
C78   C     C_R   0.616371 0.478678 0.236663 -0.084132
C79   C     C_R   0.575389 0.624356 0.215398 -0.121821
C80   C     C_R   0.510858 0.604884 0.221215 -0.138793
H44   H     H_    0.510616 0.161195 0.287866 0.104070
H45   H     H_    0.624623 0.200491 0.279326 0.122800
H46   H     H_    0.666377 0.493936 0.232251 0.116551
H47   H     H_    0.593615 0.752573 0.194479 0.117269
H48   H     H_    0.479682 0.719281 0.204668 0.109240

loop_
_geom_bond_atom_site_label_1
_geom_bond_atom_site_label_2
_ccdc_geom_bond_type
O14   V4    S    
C25   H7    S    
C71   H40   S    
C57   C58   A    
C9    C31   A    
C13   C15   A    
C76   C77   A    
O1    C3    A    
O16   C48   A    
C68   H38   S    
O2    C4    A    
C67   H34   S    
C2    O7    A    
O15   V3    S    
C53   C54   A    
C69   C70   A    
C50   H11   S    
O5    C3    A    
O12   V3    S    
C56   H21   S    
C52   H16   S    
C24   C26   A    
C10   C12   A    
C72   H41   S    
C12   H6    S    
C63   H27   S    
C66   H32   S    
C38   C40   T    
C54   H19   S    
C15   C19   A    
C59   C60   A    
C40   C42   S    
O6    V2    S    
C41   C43   T    
C61   C62   A    
C42   C44   T    
H1    C23   S    
C7    C29   A    
C8    C30   A    
C62   C63   A    
C36   C38   S    
C20   C28   A    
C62   H26   S    
C16   C18   A    
C8    C45   S    
C53   C58   A    
C65   C66   S    
O5    V1    S    
C55   H20   S    
C52   H17   S    
O11   V4    S    
O18   V4    S    
C63   C64   A    
C65   H30   S    
O21   C49   S    
C11   H5    S    
C33   C35   T    
C45   O18   A    
C69   C74   A    
C23   C25   A    
C73   C74   A    
C34   C36   T    
C39   C41   S    
C16   C20   A    
C50   H12   S    
C66   H31   S    
O13   V3    S    
C77   C78   A    
O4    C2    A    
O20   V3    S    
C70   C71   A    
C66   H33   S    
C68   H37   S    
C26   H8    S    
C34   C47   S    
C1    C44   S    
C75   C80   A    
O13   C45   A    
C59   C64   A    
O4    V2    S    
C78   H46   S    
C5    C29   A    
C70   H39   S    
C6    C30   A    
C2    C43   S    
H2    C24   S    
C73   H42   S    
C51   H15   S    
C55   C56   A    
O6    C4    A    
O12   C48   A    
C46   O17   A    
O17   V3    S    
C58   H23   S    
O1    V2    S    
C80   H48   S    
C27   O23   S    
O2    V1    S    
C28   O24   S    
C7    C27   A    
C60   H24   S    
O14   C46   A    
C54   C55   A    
C52   H18   S    
C49   H10   S    
C79   H47   S    
C35   C37   S    
C29   O21   S    
C33   C48   S    
C77   H45   S    
C68   H36   S    
C67   C68   S    
O3    V1    S    
C65   H29   S    
C51   C52   S    
C75   C76   A    
C50   H13   S    
C13   H3    S    
C57   H22   S    
C14   H4    S    
C21   C23   A    
C79   C80   A    
C18   C32   A    
C4    C31   S    
O3    C1    A    
C67   H35   S    
C74   H43   S    
O23   C65   S    
C11   C13   A    
C49   C50   S    
C71   C72   A    
C12   C14   A    
O11   C47   A    
C9    C69   S    
C7    C46   S    
C19   C27   A    
C22   C24   A    
C76   H44   S    
O7    V1    S    
C10   C32   A    
C1    O8    A    
O16   V4    S    
O8    V2    S    
C78   C79   A    
O15   C47   A    
O19   V4    S    
C51   H14   S    
C8    C28   A    
C5    C53   S    
C14   C16   A    
C56   C57   A    
C19   C21   A    
C17   C25   A    
C20   C22   A    
C18   C26   A    
C6    C59   S    
C37   C39   T    
C72   C73   A    
C64   H28   S    
C9    C11   A    
C15   C17   A    
C49   H9    S    
C17   C31   A    
O9    V2    S    
O10   V1    S    
C3    C32   S    
C10   C75   S    
C5    C21   A    
O22   C51   S    
C60   C61   A    
C6    C22   A    
C61   H25   S    
C30   O22   S    
O24   C67   S    
