data_mof_unit_48878.cif
_audit_creation_date              2012-12-10T17:37:17-0500
_audit_creation_method            fapswitch 2.2
_symmetry_space_group_name_H-M    P1
_symmetry_Int_Tables_number       1
_space_group_crystal_system       triclinic
_cell_length_a                    12.434942
_cell_length_b                    13.210438
_cell_length_c                    15.840536
_cell_angle_alpha                 76.121946
_cell_angle_beta                  101.377492
_cell_angle_gamma                 117.136727
_cell_volume                      2236.44211343

loop_
_atom_site_label
_atom_site_type_symbol
_atom_type_description
_atom_site_fract_x
_atom_site_fract_y
_atom_site_fract_z
_atom_type_partial_charge
C1    C     C_R   0.854953 0.286457 0.508289 0.802199
C2    C     C_3   0.998713 0.498497 0.917353 0.178859
C3    C     C_3   0.107063 0.575877 0.029482 -0.157289
C4    C     C_3   0.998263 0.499028 0.082600 0.179915
C5    C     C_3   0.019916 0.604505 0.953820 -0.156650
C6    C     C_3   0.911093 0.527651 0.008458 -0.151018
C7    C     C_1   0.999282 0.498529 0.825603 -0.063442
C8    C     C_1   0.998556 0.499543 0.174395 -0.064566
C9    C     C_R   0.285101 0.023895 0.366969 -0.128508
C10   C     C_R   0.228357 0.835903 0.459245 -0.140847
C11   C     C_R   0.808933 0.082911 0.572164 -0.179019
C12   C     C_R   0.999942 0.499576 0.659938 0.860873
C13   C     C_R   0.727003 0.967996 0.591256 -0.137016
C14   C     C_R   0.605936 0.932021 0.557010 -0.162276
C15   C     C_R   0.564742 0.010440 0.499571 0.096502
C16   C     C_R   0.651781 0.124333 0.472547 0.041166
C17   C     C_R   0.440628 0.978789 0.466700 -0.002263
C18   C     C_R   0.407273 0.056803 0.401168 0.025742
C19   C     C_R   0.496393 0.164860 0.368235 0.393822
C20   C     C_R   0.617493 0.196539 0.402972 -0.281288
C21   C     C_R   0.348239 0.871737 0.497760 -0.272034
C22   C     C_R   0.196603 0.912912 0.392142 0.367088
C23   C     C_R   0.144965 0.713694 0.483661 0.775270
C24   C     C_R   0.772040 0.162695 0.514829 -0.082532
C25   C     C_R   0.371282 0.377270 0.663333 -0.176637
C26   C     C_R   0.754007 0.635617 0.375121 0.096200
C27   C     C_R   0.656729 0.664425 0.345892 -0.247263
C28   C     C_R   0.557539 0.616973 0.394281 -0.139776
C29   C     C_R   0.554869 0.540738 0.473810 -0.051718
C30   C     C_R   0.657142 0.513344 0.502308 0.199258
C31   C     C_R   0.453530 0.488957 0.525436 -0.107198
C32   C     C_R   0.466607 0.429409 0.610938 -0.019168
C33   C     C_R   0.571979 0.415656 0.642675 0.255277
C34   C     C_R   0.999999 0.500376 0.340049 0.792310
C35   C     C_R   0.653180 0.436856 0.583816 0.313318
C36   C     C_R   0.339616 0.493909 0.497197 0.002825
C37   C     C_R   0.260653 0.378014 0.631010 0.550869
C38   C     C_3   0.977027 0.392998 0.046130 -0.151516
C39   C     C_3   0.889870 0.421631 0.970429 -0.153871
C40   C     C_1   0.999784 0.498885 0.749921 -0.157924
C41   C     C_1   0.999145 0.499998 0.250099 -0.168813
C42   C     C_3   0.085850 0.469863 0.991496 -0.143855
Cu1   Cu    Cu3+1 0.098270 0.475420 0.519690 0.952162
Cu2   Cu    Cu3+1 0.901730 0.524580 0.480310 0.975320
H1    H     H_    0.800734 0.358368 0.944752 0.146939
H2    H     H_    0.367329 0.813075 0.551875 0.167533
H3    H     H_    0.900636 0.109937 0.604244 0.153004
H4    H     H_    0.547852 0.841584 0.574959 0.131616
H5    H     H_    0.756682 0.906847 0.635074 0.146663
H6    H     H_    0.685079 0.277142 0.372740 0.157575
H7    H     H_    0.379606 0.330301 0.728682 0.215249
H8    H     H_    0.323882 0.542044 0.434564 0.139050
H9    H     H_    0.829860 0.672714 0.336449 0.134328
H10   H     H_    0.959406 0.306183 0.085380 0.143531
H11   H     H_    0.485231 0.643209 0.369147 0.135245
H12   H     H_    0.658177 0.723832 0.285223 0.149568
H13   H     H_    0.839345 0.551354 0.016767 0.140036
H14   H     H_    0.037528 0.691319 0.914571 0.139213
H15   H     H_    0.196216 0.639216 0.055055 0.137475
H16   H     H_    0.157594 0.446151 0.983189 0.146859
H17   H     H_    0.258545 0.081904 0.316157 0.210376
N1    N     N_R   0.246280 0.438200 0.549540 -0.233273
N2    N     N_R   0.754330 0.561180 0.450980 -0.185495
O1    O     O_R   0.972510 0.318130 0.524770 -0.613270
O2    O     O_R   0.806530 0.359650 0.491510 -0.513452
O3    O     O_R   0.082970 0.479240 0.637550 -0.558259
O4    O     O_R   0.916990 0.520750 0.604290 -0.523403
O5    O     O_R   0.193470 0.640350 0.508490 -0.584001
O6    O     O_R   0.027490 0.681870 0.475230 -0.572393
O7    O     O_R   0.083010 0.479250 0.395710 -0.575685
O8    O     O_R   0.917030 0.520760 0.362450 -0.606027
O9    O     O_3   0.169668 0.320082 0.685410 -0.740306
H18   H     H_    0.091734 0.294938 0.648885 0.354753
O10   O     O_3   0.587471 0.367551 0.729459 -0.748794
H19   H     H_    0.674834 0.386056 0.745964 0.335561
O11   O     O_3   0.715277 0.370093 0.602842 -0.692446
H20   H     H_    0.670631 0.295983 0.641070 0.322946
O12   O     O_3   0.082788 0.882398 0.346839 -0.727530
H21   H     H_    0.052690 0.802471 0.336621 0.319135
O13   O     O_3   0.463547 0.238040 0.301676 -0.742459
H22   H     H_    0.536460 0.311118 0.287269 0.327648

loop_
_geom_bond_atom_site_label_1
_geom_bond_atom_site_label_2
_ccdc_geom_bond_type
C26   H9    S    
C3    C42   S    
C23   O6    A    
C11   H3    S    
C19   C20   A    
C4    C8    S    
C37   N1    A    
C10   C22   A    
C26   C27   A    
C5    H14   S    
C9    H17   S    
C28   C29   A    
C38   C42   S    
C5    C6    S    
C9    C22   A    
C15   C16   A    
C11   C24   A    
Cu2   O8    S    
C18   C19   A    
C20   H6    S    
C25   C37   A    
C2    C39   S    
O12   H21   S    
C2    C7    S    
Cu1   O5    S    
C1    O2    A    
C7    C40   T    
C34   O7    A    
C36   H8    S    
C39   H1    S    
C25   C32   A    
C16   C24   A    
C13   C14   A    
C6    H13   S    
Cu2   O2    S    
C34   C41   S    
C36   N1    A    
C28   H11   S    
Cu1   O1    S    
C10   C21   A    
C12   O4    A    
C35   O11   S    
O10   H19   S    
C8    C41   T    
C22   O12   S    
C4    C6    S    
C42   H16   S    
C27   H12   S    
O13   H22   S    
C14   H4    S    
C12   O3    A    
C17   C21   A    
C23   O5    A    
C12   C40   S    
C26   N2    A    
C25   H7    S    
C29   C30   A    
C9    C18   A    
C31   C32   A    
C38   H10   S    
C16   C20   A    
C14   C15   A    
C17   C18   A    
Cu2   O6    S    
O11   H20   S    
C13   H5    S    
C30   C35   A    
C4    C38   S    
Cu1   O7    S    
Cu1   Cu2   S    
C2    C5    S    
C3    C4    S    
C1    O1    A    
C21   H2    S    
C15   C17   A    
C31   C36   A    
O9    H18   S    
C3    C5    S    
C10   C23   S    
C32   C33   A    
C29   C31   A    
C11   C13   A    
C38   C39   S    
C2    C42   S    
Cu1   O3    S    
C33   C35   A    
C19   O13   S    
C33   O10   S    
C1    C24   S    
Cu2   N2    S    
C37   O9    S    
C27   C28   A    
C6    C39   S    
Cu2   O4    S    
C30   N2    A    
C34   O8    A    
Cu1   N1    S    
C3    H15   S    
