data_mof_unit_8749.cif
_audit_creation_date              2012-12-11T14:33:55-0500
_audit_creation_method            fapswitch 2.2
_symmetry_space_group_name_H-M    P1
_symmetry_Int_Tables_number       1
_space_group_crystal_system       triclinic
_cell_length_a                    14.067647
_cell_length_b                    14.06853
_cell_length_c                    27.426542
_cell_angle_alpha                 90.066827
_cell_angle_beta                  90.006487
_cell_angle_gamma                 119.953877
_cell_volume                      4702.97956096

loop_
_atom_site_label
_atom_site_type_symbol
_atom_type_description
_atom_site_fract_x
_atom_site_fract_y
_atom_site_fract_z
_atom_type_partial_charge
C1    C     C_R   0.234857 0.786974 0.569027 0.543056
C2    C     C_R   0.213128 0.447949 0.569048 0.543288
C3    C     C_R   0.552155 0.765226 0.569027 0.543184
C4    C     C_3   0.659820 0.735596 0.789651 -0.207256
C5    C     C_3   0.264344 0.924100 0.789809 -0.207438
C6    C     C_3   0.075875 0.340384 0.789735 -0.207578
C7    C     C_3   0.637510 0.722008 0.733960 0.262201
C8    C     C_3   0.278054 0.915481 0.734124 0.262296
C9    C     C_3   0.084676 0.362860 0.734073 0.262122
C10   C     C_1   0.713021 0.864494 0.859321 0.050508
C11   C     C_1   0.135333 0.848381 0.859300 0.050471
C12   C     C_1   0.151377 0.286777 0.859305 0.050669
C13   C     C_1   0.629798 0.815620 0.658585 0.047542
C14   C     C_1   0.184602 0.814391 0.658578 0.047600
C15   C     C_1   0.185935 0.370480 0.658606 0.047874
C16   C     C_1   0.601053 0.796842 0.616526 0.059863
C17   C     C_1   0.203375 0.804410 0.616523 0.059854
C18   C     C_1   0.195899 0.399190 0.616555 0.059922
C19   C     C_R   0.108052 0.222804 0.087486 0.572559
C20   C     C_R   0.778019 0.885946 0.087803 0.572452
C21   C     C_R   0.114591 0.892044 0.087563 0.570211
C22   C     C_R   0.106113 0.218680 0.950420 0.557575
C23   C     C_R   0.781228 0.887400 0.950439 0.557323
C24   C     C_R   0.112548 0.893816 0.950427 0.556802
C25   C     C_R   0.674051 0.889011 0.366469 -0.106269
C26   C     C_R   0.110725 0.784134 0.365889 -0.103737
C27   C     C_R   0.216078 0.326569 0.365821 -0.102995
C28   C     C_R   0.702005 0.910174 0.317003 0.032811
C29   C     C_R   0.090043 0.790953 0.316308 0.032627
C30   C     C_R   0.209306 0.299197 0.316199 0.034187
C31   C     C_R   0.733673 0.948590 0.215587 -0.020188
C32   C     C_R   0.053076 0.783189 0.214636 -0.020520
C33   C     C_R   0.217621 0.271070 0.214452 -0.019752
C34   C     C_R   0.237747 0.787902 0.430112 0.543795
C35   C     C_R   0.212026 0.449748 0.430105 0.544053
C36   C     C_R   0.550162 0.762137 0.430165 0.544362
C37   C     C_R   0.769995 0.036640 0.248857 -0.073424
C38   C     C_R   0.964701 0.730110 0.247497 -0.074926
C39   C     C_R   0.271175 0.236058 0.247236 -0.073498
C40   C     C_R   0.757288 0.018149 0.299052 0.082163
C41   C     C_R   0.982346 0.736861 0.297830 0.080944
C42   C     C_R   0.264043 0.246283 0.297606 0.080729
C43   C     C_R   0.746630 0.964527 0.164521 0.045845
C44   C     C_R   0.038144 0.779058 0.163450 0.042489
C45   C     C_R   0.221936 0.260768 0.163240 0.042142
C46   C     C_R   0.722046 0.873107 0.134144 -0.002384
C47   C     C_R   0.128968 0.849105 0.133644 -0.006973
C48   C     C_R   0.150972 0.280534 0.133525 -0.009723
C49   C     C_R   0.573074 0.692868 0.348992 0.076407
C50   C     C_R   0.307103 0.880086 0.349026 0.075508
C51   C     C_R   0.119046 0.426136 0.349074 0.075735
C52   C     C_R   0.615798 0.711971 0.301509 0.003935
C53   C     C_R   0.288380 0.904434 0.301594 0.002574
C54   C     C_R   0.094588 0.382850 0.301657 0.004498
C55   C     C_R   0.668794 0.821111 0.284267 0.040950
C56   C     C_R   0.179437 0.847923 0.283944 0.039333
C57   C     C_R   0.151858 0.331262 0.283898 0.040538
C58   C     C_R   0.596525 0.624880 0.268836 0.053601
C59   C     C_R   0.375766 0.973054 0.269283 0.054095
C60   C     C_R   0.024894 0.400476 0.269485 0.049929
C61   C     C_R   0.607382 0.644971 0.219189 -0.108528
C62   C     C_R   0.356012 0.965499 0.219607 -0.108142
C63   C     C_R   0.032335 0.388483 0.219781 -0.103973
C64   C     C_R   0.649015 0.750723 0.201725 0.007600
C65   C     C_R   0.250681 0.900732 0.201718 0.007562
C66   C     C_R   0.098248 0.349316 0.201756 0.007726
C67   C     C_3   0.572914 0.860140 0.737256 0.266605
C68   C     C_3   0.140007 0.712915 0.737127 0.266588
C69   C     C_3   0.287213 0.426999 0.737353 0.266717
C70   C     C_R   0.685048 0.840496 0.233934 0.036756
C71   C     C_R   0.160659 0.845023 0.233524 0.035694
C72   C     C_R   0.154926 0.315816 0.233451 0.033852
C73   C     C_R   0.664704 0.767632 0.152239 -0.109367
C74   C     C_R   0.234279 0.900083 0.152204 -0.107618
C75   C     C_R   0.098702 0.333606 0.152228 -0.095463
C76   C     C_R   0.601299 0.782855 0.381546 0.007536
C77   C     C_R   0.216929 0.818035 0.381356 0.007731
C78   C     C_R   0.181692 0.398531 0.381362 0.006595
C79   C     C_3   0.771940 0.923263 0.721770 -0.237221
C80   C     C_3   0.076786 0.848828 0.721693 -0.237145
C81   C     C_3   0.151272 0.228126 0.721606 -0.237267
C82   C     C_3   0.794237 0.936164 0.777615 0.166865
C83   C     C_3   0.063755 0.858097 0.777533 0.166938
C84   C     C_3   0.141824 0.205689 0.777423 0.166931
C85   C     C_1   0.738595 0.874117 0.901806 0.047076
C86   C     C_1   0.125705 0.864336 0.901789 0.047184
C87   C     C_1   0.135439 0.261207 0.901782 0.047686
C88   C     C_3   0.653092 0.830203 0.711415 -0.014107
C89   C     C_3   0.169926 0.823018 0.711402 -0.014110
C90   C     C_3   0.177173 0.347080 0.711428 -0.014076
C91   C     C_3   0.594332 0.872711 0.793263 0.320778
C92   C     C_3   0.127330 0.721654 0.793130 0.320899
C93   C     C_3   0.278296 0.405446 0.793334 0.320894
C94   C     C_3   0.690329 0.852803 0.806430 -0.009711
C95   C     C_3   0.147121 0.837466 0.806410 -0.009760
C96   C     C_3   0.162422 0.309586 0.806420 -0.009760
Cr1   Cr    Cr6+3 0.164410 0.584450 0.499910 1.101153
Cr2   Cr    Cr6+3 0.415550 0.579960 0.499910 1.100878
Cr3   Cr    Cr6+3 0.420040 0.835590 0.499910 1.101135
Cr4   Cr    Cr6+3 0.155170 0.075460 0.019960 1.103150
Cr5   Cr    Cr6+3 0.924540 0.079710 0.019960 1.093229
Cr6   Cr    Cr6+3 0.920290 0.844830 0.019960 1.104726
H1    H     H_    0.615555 0.957086 0.804490 0.153188
H2    H     H_    0.042951 0.658550 0.804230 0.153452
H3    H     H_    0.341348 0.384025 0.804486 0.153579
H4    H     H_    0.727592 0.719518 0.798848 0.206458
H5    H     H_    0.280337 0.007884 0.799086 0.206346
H6    H     H_    0.992045 0.272707 0.798856 0.206168
H7    H     H_    0.700596 0.954941 0.392709 0.125329
H8    H     H_    0.044449 0.744125 0.391848 0.124268
H9    H     H_    0.256532 0.300620 0.391728 0.124001
H10   H     H_    0.808611 0.120756 0.236736 0.178928
H11   H     H_    0.881006 0.683504 0.234955 0.186904
H12   H     H_    0.318343 0.199597 0.234605 0.187084
H13   H     H_    0.641726 0.698533 0.127917 0.135050
H14   H     H_    0.303333 0.947996 0.128201 0.135602
H15   H     H_    0.048716 0.352683 0.128451 0.158014
H16   H     H_    0.589078 0.578415 0.193960 0.154236
H17   H     H_    0.422702 0.014726 0.194679 0.152654
H18   H     H_    0.982160 0.404946 0.194937 0.164935
H19   H     H_    0.585255 0.939128 0.722409 0.105566
H20   H     H_    0.061056 0.646377 0.722153 0.105658
H21   H     H_    0.353773 0.414496 0.722445 0.105582
H22   H     H_    0.831766 0.904868 0.703682 0.165174
H23   H     H_    0.095169 0.927047 0.703691 0.165244
H24   H     H_    0.073093 0.168467 0.703465 0.165088
H25   H     H_    0.784673 0.001743 0.706129 0.183096
H26   H     H_    0.998352 0.783194 0.705918 0.183213
H27   H     H_    0.216929 0.215235 0.705899 0.183268
H28   H     H_    0.863326 0.921538 0.785954 0.186928
H29   H     H_    0.078289 0.941743 0.785959 0.186831
H30   H     H_    0.058132 0.136700 0.785694 0.186746
H31   H     H_    0.551989 0.654507 0.727544 0.231124
H32   H     H_    0.345608 0.897438 0.727760 0.231120
H33   H     H_    0.102785 0.448459 0.727805 0.231303
H34   H     H_    0.585673 0.673428 0.809485 0.190026
H35   H     H_    0.326518 0.912066 0.809694 0.189789
H36   H     H_    0.087877 0.414527 0.809697 0.189845
O1    O     O_R   0.137150 0.468200 0.553200 -0.486294
O2    O     O_R   0.531800 0.668950 0.553200 -0.486538
O3    O     O_R   0.331050 0.862850 0.553200 -0.486445
O4    O     O_R   0.179100 0.982980 0.967000 -0.504965
O5    O     O_R   0.017020 0.196120 0.967000 -0.506628
O6    O     O_R   0.803880 0.820900 0.967000 -0.503569
O7    O     O_R   0.173970 0.688730 0.549930 -0.496677
O8    O     O_R   0.311270 0.485240 0.549930 -0.496835
O9    O     O_R   0.514760 0.826030 0.549930 -0.496654
O10   O     O_R   0.140110 0.470540 0.446010 -0.477188
O11   O     O_R   0.529460 0.669570 0.446010 -0.477588
O12   O     O_R   0.330430 0.859890 0.446010 -0.477152
O13   O     O_R   0.176710 0.690910 0.450560 -0.490740
O14   O     O_R   0.309090 0.485800 0.450560 -0.490521
O15   O     O_R   0.514200 0.823290 0.450560 -0.490835
O16   O     O_3   0.333333 0.666667 0.499990 -0.302531
O17   O     O_R   0.176750 0.985260 0.074180 -0.492681
O18   O     O_R   0.014740 0.191490 0.074180 -0.485908
O19   O     O_R   0.808510 0.823250 0.074180 -0.492043
O20   O     O_R   0.146100 0.172630 0.068980 -0.473550
O21   O     O_R   0.827370 0.973470 0.068980 -0.472865
O22   O     O_R   0.026530 0.853900 0.068980 -0.472888
O23   O     O_3   1.000000 1.000000 0.020040 -0.257527
O24   O     O_R   0.148270 0.170520 0.969620 -0.491650
O25   O     O_R   0.829480 0.977750 0.969620 -0.493677
O26   O     O_R   0.022250 0.851730 0.969620 -0.491806
F1    F     F_    0.465004 0.780781 0.727785 -0.496259
F2    F     F_    0.219429 0.684337 0.727703 -0.496156
F3    F     F_    0.315876 0.534993 0.728052 -0.495809
F4    F     F_    0.500244 0.799953 0.818454 -0.511594
F5    F     F_    0.200105 0.700258 0.818368 -0.511497
F6    F     F_    0.299674 0.499536 0.818673 -0.511710
C97   C     C_2   0.782053 0.073389 0.142408 0.599578
O27   O     O_2   0.867668 0.153762 0.155047 -0.546084
O28   O     O_R   0.718042 0.082598 0.105771 -0.677300
H37   H     H_    0.750908 0.160241 0.092909 0.342025
C98   C     C_2   0.932733 0.698167 0.140431 0.600355
O29   O     O_2   0.932771 0.636663 0.108886 -0.498071
O30   O     O_R   0.834601 0.693189 0.153592 -0.714564
H38   H     H_    0.769196 0.632205 0.135949 0.340271
C99   C     C_2   0.303594 0.237485 0.140090 0.600353
O31   O     O_2   0.364415 0.299388 0.108565 -0.500170
O32   O     O_R   0.309955 0.144996 0.153041 -0.714720
H39   H     H_    0.371262 0.141372 0.135288 0.338536
C100  C     C_2   0.800303 0.113062 0.332173 0.587267
O33   O     O_2   0.739488 0.145143 0.347202 -0.475695
O34   O     O_R   0.908911 0.161925 0.348088 -0.691499
H40   H     H_    0.927161 0.221963 0.372966 0.363190
C101  C     C_2   0.886907 0.684307 0.330538 0.586905
O35   O     O_2   0.853078 0.590224 0.344194 -0.472462
O36   O     O_R   0.839389 0.744569 0.347575 -0.691667
H41   H     H_    0.778370 0.701873 0.371851 0.363802
C102  C     C_2   0.317152 0.203752 0.330223 0.584696
O37   O     O_2   0.412262 0.263405 0.342773 -0.471529
O38   O     O_R   0.256448 0.097151 0.348412 -0.691292
H42   H     H_    0.299989 0.078918 0.372296 0.364167
C103  C     C_2   0.575843 0.515114 0.284372 0.610594
O39   O     O_2   0.512186 0.433322 0.261303 -0.499438
O40   O     O_R   0.634149 0.505949 0.323489 -0.621228
H43   H     H_    0.617144 0.427809 0.329092 0.387003
C104  C     C_2   0.486066 0.060504 0.285210 0.609635
O41   O     O_2   0.567679 0.076676 0.262549 -0.500215
O42   O     O_R   0.496167 0.128366 0.324345 -0.621064
H44   H     H_    0.574839 0.187836 0.330390 0.385895
C105  C     C_2   0.936296 0.421484 0.285621 0.610527
O43   O     O_2   0.917745 0.485154 0.262832 -0.497330
O44   O     O_R   0.869948 0.363785 0.325064 -0.620495
H45   H     H_    0.809431 0.381507 0.331222 0.385295
C106  C     C_2   0.481522 0.581605 0.359858 0.618495
O45   O     O_2   0.393249 0.549780 0.339821 -0.521371
O46   O     O_R   0.499037 0.511896 0.390180 -0.615844
H46   H     H_    0.432875 0.436205 0.393001 0.349461
C107  C     C_2   0.418158 0.899018 0.359959 0.618222
O47   O     O_2   0.449572 0.842238 0.339864 -0.520312
O48   O     O_R   0.488164 0.985891 0.390420 -0.615596
H47   H     H_    0.563577 0.994686 0.393382 0.351732
C108  C     C_2   0.099569 0.517983 0.359955 0.618526
O49   O     O_2   0.155721 0.605931 0.339718 -0.521021
O50   O     O_R   0.012898 0.501129 0.390512 -0.615344
H48   H     H_    0.003631 0.567502 0.393375 0.350320
F7    F     F_    0.826148 0.042677 0.791738 -0.659042
F8    F     F_    0.957230 0.783539 0.791490 -0.658777
F9    F     F_    0.216300 0.173529 0.791438 -0.658663
F10   F     F_    0.707454 0.692164 0.711838 -0.619043
F11   F     F_    0.307882 0.015250 0.712109 -0.618947
F12   F     F_    0.984953 0.293162 0.711884 -0.619277

loop_
_geom_bond_atom_site_label_1
_geom_bond_atom_site_label_2
_ccdc_geom_bond_type
C15   C18   T    
C97   O27   D    
Cr2   O16   S    
C10   C85   T    
C3    O9    A    
C82   C94   S    
C81   H24   S    
C2    C18   S    
C33   C45   A    
O42   H44   S    
C1    O7    A    
C75   H15   S    
C44   C98   S    
C105  O43   D    
C27   C78   A    
C54   C57   A    
C6    C9    S    
C102  O38   S    
C53   C59   A    
C98   O30   S    
Cr2   O14   S    
O44   H45   S    
C25   C28   A    
C97   O28   S    
C67   C88   S    
C33   C39   A    
C31   C43   A    
C60   C63   A    
C2    O1    A    
C7    H31   S    
C37   C40   A    
C69   C93   S    
C84   F9    S    
C100  O34   S    
C34   C77   S    
C91   C94   S    
C22   O24   A    
C64   C70   A    
C36   O11   A    
C45   C48   A    
C80   H23   S    
C69   H21   S    
C11   C86   T    
C11   C95   S    
Cr3   O16   S    
C58   C103  S    
C41   C101  S    
C48   C75   A    
C84   C96   S    
C83   F8    S    
C80   C89   S    
C7    C88   S    
Cr6   O22   S    
C37   H10   S    
C79   H25   S    
C36   C76   S    
C33   C72   A    
C93   H3    S    
C42   C102  S    
C31   C70   A    
C66   C72   A    
C82   F7    S    
C49   C106  S    
C24   O4    A    
C20   O21   A    
C22   O5    A    
C64   C73   A    
Cr4   O23   S    
C32   C38   A    
C39   C42   A    
C26   H8    S    
C12   C87   T    
C44   C47   A    
C25   H7    S    
C4    H34   S    
C40   C100  S    
C49   C52   A    
C58   C61   A    
C63   C66   A    
C27   H9    S    
C104  O41   D    
O28   H37   S    
C99   O32   S    
C27   C30   A    
C19   O18   A    
C14   C17   T    
C24   O26   A    
Cr6   O6    S    
C80   C83   S    
C67   H19   S    
Cr6   O19   S    
C79   C88   S    
C5    C95   S    
C28   C55   A    
C68   C92   S    
C36   O15   A    
C68   C89   S    
C32   C71   A    
C23   O25   A    
Cr1   O13   S    
Cr3   O12   S    
C93   F6    S    
C26   C77   A    
C28   C40   A    
C8    H32   S    
C106  O45   D    
C50   C53   A    
C91   F4    S    
Cr5   O25   S    
C38   C41   A    
C59   C104  S    
C7    F10   S    
C43   C97   S    
C19   C48   S    
C54   C60   A    
C45   C99   S    
Cr2   O8    S    
Cr5   O18   S    
C4    C7    S    
O50   H48   S    
O32   H39   S    
C4    H4    S    
C84   H30   S    
C92   C95   S    
C65   C74   A    
C102  O37   D    
Cr2   O2    S    
C30   C57   A    
C6    H36   S    
C61   C64   A    
C100  O33   D    
C69   F3    S    
C14   C89   S    
C83   H29   S    
Cr4   O20   S    
C5    C8    S    
C105  O44   S    
C60   C105  S    
C81   H27   S    
C98   O29   D    
O48   H47   S    
C92   F5    S    
C39   H12   S    
C74   H14   S    
C67   C91   S    
O46   H46   S    
C21   O17   A    
C49   C76   A    
Cr1   O16   S    
Cr5   O21   S    
C62   H17   S    
C8    F11   S    
C52   C58   A    
C4    C94   S    
C81   C90   S    
C9    H33   S    
Cr4   O17   S    
C107  O48   S    
C50   C107  S    
O38   H42   S    
C93   C96   S    
C6    C96   S    
C20   O19   A    
Cr1   O10   S    
C23   O6    A    
C82   H28   S    
C35   O14   A    
C68   H20   S    
C69   C90   S    
C50   C77   A    
C81   C84   S    
C104  O42   S    
C5    H5    S    
C53   C56   A    
C51   C108  S    
O36   H41   S    
C38   H11   S    
Cr3   O9    S    
C59   C62   A    
C6    H6    S    
C62   C65   A    
C29   C41   A    
C61   H16   S    
C19   O20   A    
Cr1   O7    S    
Cr3   O3    S    
C30   C42   A    
C47   C74   A    
C91   H1    S    
C22   C87   S    
C9    C90   S    
C79   C82   S    
C34   O13   A    
C52   C55   A    
C5    H35   S    
C8    C89   S    
C29   C56   A    
C99   O31   D    
C2    O8    A    
C80   H26   S    
C79   H22   S    
C35   C78   S    
C1    C17   S    
C73   H13   S    
C25   C76   A    
C51   C54   A    
C108  O50   S    
C51   C78   A    
C101  O35   D    
Cr4   O4    S    
C83   C95   S    
C15   C90   S    
C63   H18   S    
Cr5   O5    S    
C9    F12   S    
C67   F1    S    
O34   H40   S    
Cr6   O23   S    
C66   C75   A    
Cr3   O15   S    
C13   C88   S    
Cr5   O23   S    
C108  O49   D    
C21   O22   A    
C35   O10   A    
C34   O12   A    
C57   C72   A    
O40   H43   S    
C43   C46   A    
C101  O36   S    
C55   C70   A    
C1    O3    A    
C92   H2    S    
C103  O39   D    
C31   C37   A    
C65   C71   A    
C32   C44   A    
C26   C29   A    
Cr6   O26   S    
O30   H38   S    
C23   C85   S    
C13   C16   T    
C106  O46   S    
C10   C94   S    
C12   C96   S    
Cr4   O24   S    
C3    O2    A    
C107  O47   D    
C21   C47   S    
C24   C86   S    
Cr1   O1    S    
C46   C73   A    
C20   C46   S    
C3    C16   S    
C56   C71   A    
C103  O40   S    
Cr2   O11   S    
C68   F2    S    
