data_mof_unit_25157.cif
_audit_creation_date              2012-12-10T20:27:15-0500
_audit_creation_method            fapswitch 2.2
_symmetry_space_group_name_H-M    P1
_symmetry_Int_Tables_number       1
_space_group_crystal_system       triclinic
_cell_length_a                    10.671903
_cell_length_b                    10.711581
_cell_length_c                    10.107397
_cell_angle_alpha                 93.49239
_cell_angle_beta                  102.55625
_cell_angle_gamma                 92.216795
_cell_volume                      1124.07841354

loop_
_atom_site_label
_atom_site_type_symbol
_atom_type_description
_atom_site_fract_x
_atom_site_fract_y
_atom_site_fract_z
_atom_type_partial_charge
C1    C     C_R   0.501391 0.261241 0.496645 0.872695
C2    C     C_R   0.589019 0.571370 0.097977 0.199690
C3    C     C_R   0.590570 0.569991 0.954868 0.155451
C4    C     C_R   0.258644 0.497066 0.443406 0.870692
C5    C     C_R   0.402236 0.444040 0.905330 0.073406
C6    C     C_3   0.320206 0.324382 0.870209 -0.051771
C7    C     C_3   0.314126 0.328454 0.023220 0.290132
C8    C     C_R   0.499982 0.739486 0.503067 0.881759
C9    C     C_R   0.740944 0.489808 0.553600 0.861038
C10   C     C_2   0.117992 0.488605 0.412795 -0.022389
C11   C     C_2   0.055742 0.395202 0.462330 0.213163
C12   C     C_R   0.504390 0.129362 0.487223 -0.153793
C13   C     C_2   0.877926 0.458627 0.569117 -0.049956
C14   C     C_2   0.918030 0.399688 0.461862 0.227731
C15   C     C_R   0.614133 0.071991 0.549108 0.014185
C16   C     C_3   0.828167 0.327001 0.342733 -0.895265
C17   C     C_3   0.834378 0.150059 0.678307 -0.947338
C18   C     C_3   0.688429 0.652546 0.198632 -0.820360
C19   C     C_3   0.687932 0.655705 0.912914 -0.339111
C20   C     C_3   0.826853 0.619876 0.958535 -0.912420
C21   C     C_3   0.383674 0.211903 0.817063 -0.837964
C22   C     C_3   0.177656 0.357388 0.040254 -1.018568
C23   C     C_R   0.395521 0.057798 0.416883 -0.231525
C24   C     C_3   0.363774 0.214957 0.105079 -0.274912
C25   C     C_3   0.506850 0.187304 0.122307 -0.819236
C26   C     C_3   0.119374 0.275603 0.500892 -1.012719
C27   C     C_3   0.968762 0.477822 0.706982 -0.457769
C28   C     C_3   0.046740 0.602602 0.727866 -0.875113
C29   C     C_3   0.048091 0.581432 0.319839 -0.451408
C30   C     C_3   0.996324 0.688453 0.396262 -0.897604
C31   C     C_3   0.276113 0.851509 0.341286 -0.905784
C32   C     C_3   0.599248 0.941673 0.811485 -0.967343
C33   C     C_3   0.803803 0.883845 0.727600 -0.880443
C34   C     C_R   0.391885 0.928008 0.420780 0.205934
C35   C     C_R   0.495032 0.872668 0.505205 -0.108248
C36   C     C_R   0.606652 0.945226 0.563478 0.002171
C37   C     C_3   0.683045 0.960833 0.707354 0.397372
C38   C     C_3   0.700244 0.100758 0.686526 -0.009712
C39   C     C_R   0.400289 0.446500 0.042576 0.111158
H1    H     H_    0.227019 0.340140 0.802680 0.162776
H2    H     H_    0.671268 0.665478 0.299533 0.290063
H3    H     H_    0.780130 0.607692 0.210472 0.235534
H4    H     H_    0.696137 0.749557 0.168363 0.205716
H5    H     H_    0.832930 0.517516 0.968587 0.263844
H6    H     H_    0.881256 0.651850 0.884876 0.270031
H7    H     H_    0.875102 0.671497 0.055555 0.253564
H8    H     H_    0.663908 0.661452 0.803865 0.269079
H9    H     H_    0.681731 0.751797 0.954977 0.190503
H10   H     H_    0.348139 0.123693 0.851246 0.227438
H11   H     H_    0.355085 0.198178 0.705726 0.251260
H12   H     H_    0.311921 0.102826 0.364537 0.131016
H13   H     H_    0.489734 0.223940 0.848254 0.254360
H14   H     H_    0.173982 0.368298 0.149007 0.266018
H15   H     H_    0.145210 0.444876 0.992903 0.245892
H16   H     H_    0.108545 0.279163 0.991219 0.239413
H17   H     H_    0.522620 0.121986 0.039183 0.232429
H18   H     H_    0.569551 0.273182 0.129188 0.260699
H19   H     H_    0.538881 0.138176 0.216201 0.255848
H20   H     H_    0.341900 0.230599 0.205974 0.216115
H21   H     H_    0.304383 0.129010 0.060247 0.177297
H22   H     H_    0.055432 0.211068 0.541368 0.257521
H23   H     H_    0.657872 0.164107 0.754071 0.172585
H24   H     H_    0.143487 0.227898 0.409849 0.229921
H25   H     H_    0.207798 0.296095 0.578768 0.261668
H26   H     H_    0.122373 0.600181 0.668445 0.286079
H27   H     H_    0.983693 0.680613 0.697468 0.257027
H28   H     H_    0.095353 0.620184 0.836612 0.244934
H29   H     H_    0.914012 0.468189 0.786512 0.225874
H30   H     H_    0.034643 0.400450 0.721649 0.222873
H31   H     H_    0.911192 0.656421 0.433059 0.274230
H32   H     H_    0.070241 0.728992 0.484445 0.260367
H33   H     H_    0.966975 0.763672 0.326808 0.253320
H34   H     H_    0.881683 0.260763 0.289760 0.231285
H35   H     H_    0.114011 0.623036 0.261280 0.224247
H36   H     H_    0.970439 0.530618 0.242599 0.215864
H37   H     H_    0.243556 0.786949 0.409430 0.239615
H38   H     H_    0.195691 0.910794 0.299734 0.231820
H39   H     H_    0.301682 0.796330 0.255329 0.258981
H40   H     H_    0.553864 0.846491 0.799160 0.261478
H41   H     H_    0.657198 0.962597 0.916413 0.238244
H42   H     H_    0.517959 0.004095 0.795542 0.232729
H43   H     H_    0.775749 0.783312 0.704257 0.224181
H44   H     H_    0.866005 0.906776 0.656779 0.233391
H45   H     H_    0.754459 0.270367 0.378642 0.249545
H46   H     H_    0.860594 0.899515 0.833675 0.247430
H47   H     H_    0.781932 0.390598 0.266434 0.255580
H48   H     H_    0.866220 0.105629 0.589883 0.254361
H49   H     H_    0.830713 0.251238 0.666961 0.244773
H50   H     H_    0.904817 0.135759 0.773852 0.255123
N1    N     N_R   0.499160 0.499140 0.142600 -0.135676
N2    N     N_R   0.499160 0.499180 0.856960 -0.139359
O1    O     O_R   0.500020 0.316790 0.614700 -0.616470
O2    O     O_R   0.500000 0.316760 0.385350 -0.614726
O3    O     O_R   0.317820 0.500020 0.571850 -0.605899
O4    O     O_R   0.317800 0.499980 0.342510 -0.612564
O5    O     O_R   0.500000 0.683240 0.614650 -0.643223
O6    O     O_R   0.499980 0.683210 0.385300 -0.616484
O7    O     O_R   0.682200 0.500020 0.657490 -0.613232
O8    O     O_R   0.682180 0.499980 0.428150 -0.620643
Zn1   Zn    Zn3+2 0.500010 0.500020 0.653140 0.919781
Zn2   Zn    Zn3+2 0.499990 0.499980 0.346860 0.918728

loop_
_geom_bond_atom_site_label_1
_geom_bond_atom_site_label_2
_ccdc_geom_bond_type
C9    O7    A    
C2    C18   S    
C17   H49   S    
C6    C7    S    
C19   C20   S    
C8    O5    A    
C25   H17   S    
C26   H24   S    
C21   H10   S    
C30   H32   S    
C22   H15   S    
C32   H42   S    
C12   C23   A    
C29   C30   S    
N1    Zn2   S    
C36   C37   S    
C26   H22   S    
C18   H3    S    
C5    C6    S    
C11   C14   S    
C19   H8    S    
C7    C24   S    
C16   H45   S    
C9    C13   S    
C3    N2    A    
C34   C35   A    
C2    N1    A    
C33   H46   S    
C26   H25   S    
C27   H29   S    
C20   H5    S    
C35   C36   A    
C3    C19   S    
N2    Zn1   S    
C33   H43   S    
C39   N1    A    
C20   H6    S    
C27   H30   S    
C9    O8    A    
C13   C14   D    
C16   H47   S    
C1    C12   S    
C25   H18   S    
C21   H11   S    
C30   H31   S    
C31   H38   S    
C22   H14   S    
C16   H34   S    
C28   H28   S    
C17   H50   S    
C24   C25   S    
C18   H2    S    
O2    Zn2   S    
C19   H9    S    
C29   H35   S    
C11   C26   S    
C6    C21   S    
C33   C37   S    
C8    C35   S    
C28   H27   S    
C8    O6    A    
C15   C38   S    
C37   C38   S    
C32   H41   S    
C4    O4    A    
C23   H12   S    
C12   C15   A    
O3    Zn1   S    
C24   H21   S    
C23   C34   A    
C31   C34   S    
C32   C37   S    
C33   H44   S    
C5    N2    A    
C4    O3    A    
O8    Zn2   S    
C1    O1    A    
O7    Zn1   S    
C5    C39   A    
C14   C16   S    
C25   H19   S    
C4    C10   S    
C15   C36   A    
O1    Zn1   S    
C31   H39   S    
C17   H48   S    
C30   H33   S    
C22   H16   S    
C29   H36   S    
C7    C22   S    
C28   H26   S    
C18   H4    S    
C32   H40   S    
C10   C29   S    
C31   H37   S    
C24   H20   S    
O5    Zn1   S    
C2    C3    A    
C6    H1    S    
C17   C38   S    
C20   H7    S    
C10   C11   D    
C1    O2    A    
C27   C28   S    
C7    C39   S    
C13   C27   S    
C21   H13   S    
O6    Zn2   S    
O4    Zn2   S    
C38   H23   S    
