data_mof_unit_42490.cif
_audit_creation_date              2013-03-05T16:53:11-0500
_audit_creation_method            fapswitch 2.2
_symmetry_space_group_name_H-M    P1
_symmetry_Int_Tables_number       1
_space_group_crystal_system       triclinic
_cell_length_a                    10.671148
_cell_length_b                    15.844961
_cell_length_c                    15.087426
_cell_angle_alpha                 90.348049
_cell_angle_beta                  90.527764
_cell_angle_gamma                 90.34183
_cell_volume                      2550.8396421

loop_
_atom_site_label
_atom_site_type_symbol
_atom_site_description
_atom_site_fract_x
_atom_site_fract_y
_atom_site_fract_z
_atom_type_partial_charge
O1    O     O_R   0.500000 0.378020 0.573650 -0.589532
O2    O     O_R   0.500000 0.621980 0.426350 -0.586850
O3    O     O_R   0.500060 0.378020 0.426320 -0.608582
O4    O     O_R   0.499940 0.621980 0.573680 -0.610429
C1    C     C_R   0.500465 0.338931 0.499760 0.927246
C2    C     C_R   0.499897 0.661026 0.500241 0.928402
O5    O     O_R   0.316730 0.500010 0.573660 -0.586344
O6    O     O_R   0.683270 0.499990 0.426340 -0.586523
O7    O     O_R   0.316790 0.500010 0.426330 -0.626613
O8    O     O_R   0.683210 0.499990 0.573670 -0.627526
C3    C     C_R   0.259894 0.500967 0.499422 0.954038
C4    C     C_R   0.740098 0.499592 0.500560 0.953601
Zn1   Zn    Zn3+2 0.499960 0.500000 0.598370 1.077270
Zn2   Zn    Zn3+2 0.500040 0.500000 0.401630 1.079515
C5    C     C_R   0.203048 0.781685 0.415471 -0.282009
C6    C     C_R   0.794373 0.218875 0.579657 -0.284256
H1    H     H_    0.210635 0.840829 0.451461 0.211440
H2    H     H_    0.785781 0.160467 0.542436 0.212803
C7    C     C_R   0.141799 0.714208 0.455576 -0.181115
C8    C     C_R   0.857548 0.286515 0.541381 -0.174418
H3    H     H_    0.102589 0.722468 0.521005 0.191829
H4    H     H_    0.897376 0.279140 0.476029 0.193068
C9    C     C_R   0.131321 0.636495 0.411842 0.103271
C10   C     C_R   0.868495 0.363435 0.586622 0.103511
C11   C     C_R   0.181472 0.627028 0.326922 -0.234170
C12   C     C_R   0.817626 0.371749 0.671468 -0.236848
H5    H     H_    0.173406 0.566153 0.294430 0.171472
H6    H     H_    0.826485 0.432024 0.705075 0.170319
C13   C     C_R   0.243068 0.695007 0.284913 0.439795
C14   C     C_R   0.753983 0.303523 0.711653 0.444092
C15   C     C_R   0.255813 0.772991 0.330771 0.306117
C16   C     C_R   0.739924 0.226754 0.663847 0.299124
C17   C     C_R   0.934081 0.565945 0.457242 0.278267
C18   C     C_R   0.065827 0.434639 0.542453 0.275659
C19   C     C_R   0.872276 0.500814 0.502256 -0.235049
C20   C     C_R   0.127676 0.499868 0.497658 -0.235569
C21   C     C_R   0.936184 0.435193 0.545363 -0.111981
C22   C     C_R   0.063765 0.565345 0.454305 -0.112208
C23   C     C_R   0.421780 0.953609 0.555740 -0.250735
C24   C     C_R   0.570392 0.046138 0.439526 -0.248675
H7    H     H_    0.364424 0.916691 0.600290 0.195928
H8    H     H_    0.627871 0.083148 0.395150 0.197897
C25   C     C_R   0.501194 0.912848 0.496527 -0.016814
C26   C     C_R   0.490248 0.086881 0.498317 -0.012672
C27   C     C_R   0.576682 0.958393 0.437196 0.371442
C28   C     C_R   0.414604 0.041251 0.557396 0.369809
C29   C     C_1   0.502917 0.824025 0.499060 0.067125
C30   C     C_1   0.492884 0.175834 0.499044 0.073311
C31   C     C_1   0.496592 0.250634 0.499265 -0.061960
C32   C     C_1   0.501902 0.749262 0.500452 -0.059099
C33   C     C_R   0.407059 0.454902 0.951728 0.191553
C34   C     C_R   0.592789 0.545005 0.048257 0.193894
C35   C     C_R   0.497364 0.502586 0.905069 -0.283132
C36   C     C_R   0.502445 0.497363 0.094928 -0.281343
C37   C     C_R   0.590417 0.547574 0.953853 0.166522
C38   C     C_R   0.409457 0.452289 0.046143 0.165192
C39   C     C_1   0.499090 0.500990 0.807015 0.344964
C40   C     C_1   0.500788 0.498988 0.192983 0.349514
N1    N     N_1   0.499960 0.500020 0.270550 -0.069486
N2    N     N_1   0.500040 0.499980 0.729450 -0.069772
N3    N     N_R   0.319539 0.844131 0.291850 0.235873
O9    O     O_R   0.306584 0.919451 0.325323 -0.366278
O10   O     O_R   0.393063 0.834586 0.224249 -0.230298
N4    N     N_R   0.672250 0.156124 0.700207 0.228486
O11   O     O_R   0.689131 0.080369 0.668848 -0.364468
O12   O     O_R   0.588655 0.167059 0.761402 -0.238465
N5    N     N_R   0.315441 0.405870 0.903197 0.257461
O13   O     O_R   0.299702 0.326188 0.920564 -0.244311
O14   O     O_R   0.248935 0.440224 0.840498 -0.333518
N6    N     N_R   0.684594 0.593915 0.096752 0.257650
O15   O     O_R   0.700882 0.673504 0.079173 -0.242495
O16   O     O_R   0.750986 0.559482 0.159463 -0.333345
O17   O     O_3   0.298432 0.685833 0.202312 -0.575313
C41   C     C_3   0.218811 0.643165 0.141239 0.089790
H9    H     H_    0.118698 0.661608 0.148791 0.194705
H10   H     H_    0.228167 0.573896 0.149522 0.165495
C42   C     C_3   0.258372 0.665022 0.047492 -0.620022
H11   H     H_    0.358407 0.648968 0.037691 0.245656
H12   H     H_    0.200384 0.628806 0.998829 0.228788
H13   H     H_    0.245574 0.733563 0.035726 0.281046
O18   O     O_3   0.698151 0.310901 0.794367 -0.574046
C43   C     C_3   0.774704 0.355465 0.855912 0.090222
H14   H     H_    0.761764 0.424451 0.847508 0.161449
H15   H     H_    0.875796 0.339362 0.849000 0.194492
C44   C     C_3   0.735117 0.332732 0.949414 -0.623547
H16   H     H_    0.752023 0.264659 0.961529 0.280489
H17   H     H_    0.790105 0.370664 0.998388 0.226972
H18   H     H_    0.634001 0.345973 0.958404 0.248528
N7    N     N_R   0.865061 0.633570 0.416850 0.227682
O19   O     O_R   0.791023 0.679972 0.464451 -0.374964
O20   O     O_R   0.880344 0.651277 0.333533 -0.284923
N8    N     N_R   0.134794 0.366463 0.581744 0.229777
O21   O     O_R   0.209728 0.321399 0.533477 -0.359574
O22   O     O_R   0.118951 0.347077 0.664584 -0.282026
N9    N     N_R   0.332470 0.081985 0.619618 0.236380
O23   O     O_R   0.281037 0.154125 0.601433 -0.277210
O24   O     O_R   0.299857 0.043426 0.691837 -0.290548
N10   N     N_R   0.659972 0.917668 0.375585 0.241170
O25   O     O_R   0.636584 0.842058 0.345375 -0.267309
O26   O     O_R   0.755240 0.958873 0.343820 -0.315602
N11   N     N_R   0.314098 0.405984 0.092326 0.234420
O27   O     O_R   0.344044 0.355593 0.156821 -0.339919
O28   O     O_R   0.196618 0.414467 0.070438 -0.328355
N12   N     N_R   0.686017 0.593631 0.907671 0.234371
O29   O     O_R   0.803493 0.584450 0.929223 -0.329491
O30   O     O_R   0.656323 0.644278 0.843342 -0.339158

loop_
_geom_bond_atom_site_label_1
_geom_bond_atom_site_label_2
_geom_bond_distance
_ccdc_geom_bond_type
N11   O27   1.301247 A    
C18   C21   1.384621 A    
O17   C41   1.413922 S    
C15   N3    1.443656 S    
N9    O23   1.300610 A    
N12   O30   1.301244 A    
O18   C43   1.413979 S    
C23   H7    1.084747 S    
Zn1   N2    1.977656 S    
C44   H16   1.110610 S    
C5    C7    1.393995 A    
Zn2   N1    1.977656 S    
C41   H10   1.110394 S    
O1    C1    1.272082 A    
C3    C20   1.410922 S    
C19   C21   1.406297 A    
C10   C12   1.400825 A    
C38   N11   1.438629 S    
C27   N10   1.444029 S    
C44   H18   1.109857 S    
C13   O17   1.391275 S    
C33   C38   1.425334 A    
O4    Zn1   1.970560 S    
N3    O10   1.301141 A    
C28   N9    1.442430 S    
C8    C10   1.397044 A    
C26   C28   1.408166 A    
C41   C42   1.521142 S    
N6    O15   1.301237 A    
N7    O20   1.301136 A    
C34   C37   1.425129 A    
O6    C4    1.268590 A    
C35   C37   1.416897 A    
N11   O28   1.301410 A    
C1    C31   1.399400 S    
O2    C2    1.271717 A    
N12   O29   1.301404 A    
C34   C36   1.416118 A    
O5    C3    1.269025 A    
C29   C32   1.184922 T    
C42   H12   1.110644 S    
C11   C13   1.414737 A    
C24   C27   1.392569 A    
C36   C38   1.417105 A    
C41   H9    1.115915 S    
C44   H17   1.110822 S    
N5    O13   1.301235 A    
C16   N4    1.442217 S    
O4    C2    1.272303 A    
C35   C39   1.479727 S    
C39   N2    1.170404 T    
C23   C25   1.395296 A    
C40   N1    1.170418 T    
C42   H11   1.109855 S    
C37   N12   1.438466 S    
C33   C35   1.416108 A    
N4    O12   1.301266 A    
C7    C9    1.396882 A    
O7    Zn2   1.994050 S    
C17   N7    1.439120 S    
O7    C3    1.263799 A    
C24   C26   1.395914 A    
C6    C8    1.393810 A    
N8    O22   1.301154 A    
C10   C21   1.486300 S    
C33   N5    1.437491 S    
C2    C32   1.398114 S    
C4    C19   1.410497 S    
C25   C27   1.408970 A    
O3    Zn2   1.970561 S    
O8    C4    1.263954 A    
C23   C28   1.391334 A    
C30   C31   1.185608 T    
C8    H4    1.083228 S    
N10   O25   1.301162 A    
C43   H15   1.115680 S    
C11   H5    1.081940 S    
O1    Zn1   1.966203 S    
C9    C22   1.486168 S    
C36   C40   1.479729 S    
C42   H13   1.110544 S    
C5    H1    1.082465 S    
O6    Zn2   1.987125 S    
C7    H3    1.083223 S    
O3    C1    1.272646 A    
O8    Zn1   1.994051 S    
N9    O24   1.301612 A    
C5    C15   1.407511 A    
C6    C16   1.406825 A    
C43   C44   1.521064 S    
C12   H6    1.081815 S    
C17   C22   1.385074 A    
N4    O11   1.301674 A    
C14   O18   1.392391 S    
C20   C22   1.406337 A    
C13   C15   1.417714 A    
C14   C16   1.416874 A    
C24   H8    1.084635 S    
N8    O21   1.300307 A    
C17   C19   1.403538 A    
C18   C20   1.403258 A    
C9    C11   1.400606 A    
N3    O9    1.301692 A    
O2    Zn2   1.966202 S    
N10   O26   1.301661 A    
C18   N8    1.438479 S    
C34   N6    1.437542 S    
O5    Zn1   1.987124 S    
C6    H2    1.082587 S    
C43   H14   1.110466 S    
N6    O16   1.301281 A    
N5    O14   1.301287 A    
N7    O19   1.300598 A    
C25   C29   1.408376 S    
C26   C30   1.409536 S    
C12   C14   1.415721 A    
