data_mof_unit_47060.cif
_audit_creation_date              2012-12-11T14:56:32-0500
_audit_creation_method            fapswitch 2.2
_symmetry_space_group_name_H-M    P1
_symmetry_Int_Tables_number       1
_space_group_crystal_system       triclinic
_cell_length_a                    10.523879
_cell_length_b                    10.676155
_cell_length_c                    17.061883
_cell_angle_alpha                 80.257531
_cell_angle_beta                  89.904495
_cell_angle_gamma                 119.276568
_cell_volume                      1640.04340751

loop_
_atom_site_label
_atom_site_type_symbol
_atom_type_description
_atom_site_fract_x
_atom_site_fract_y
_atom_site_fract_z
_atom_type_partial_charge
C1    C     C_R   0.278609 0.888520 0.132793 0.558736
C2    C     C_1   0.684526 0.401924 0.709916 -0.048612
C3    C     C_R   0.624358 0.712823 0.805037 -0.137815
C4    C     C_R   0.633828 0.271393 0.090067 0.537743
C5    C     C_R   0.610375 0.697748 0.726687 -0.137530
C6    C     C_R   0.670027 0.822254 0.665517 0.031505
C7    C     C_R   0.749800 0.962237 0.683012 -0.142920
C8    C     C_R   0.760120 0.977710 0.762082 -0.140160
C9    C     C_R   0.691183 0.852686 0.823116 0.022301
C10   C     C_R   0.082611 0.883435 0.790296 -0.135085
C11   C     C_R   0.066453 0.880223 0.710719 -0.124504
C12   C     C_R   0.710397 0.256944 0.301623 -0.128503
C13   C     C_R   0.113946 0.801828 0.672192 0.031655
C14   C     C_R   0.164761 0.715184 0.715514 -0.137379
C15   C     C_R   0.182644 0.719644 0.795546 -0.123835
C16   C     C_R   0.643570 0.855754 0.124247 0.541110
C17   C     C_R   0.149354 0.810889 0.831557 0.026523
C18   C     C_R   0.711338 0.772429 0.353568 0.562509
C19   C     C_R   0.681913 0.385639 0.399018 0.551862
C20   C     C_R   0.108254 0.812555 0.359939 0.551022
C21   C     C_R   0.677567 0.800168 0.585480 0.542894
C22   C     C_R   0.717379 0.446168 0.625993 0.561656
C23   C     C_R   0.712100 0.245233 0.222741 -0.125311
C24   C     C_R   0.089742 0.798524 0.589522 0.543930
C25   C     C_R   0.216054 0.857922 0.902537 0.559214
C26   C     C_R   0.640260 0.290740 0.861907 0.552855
C27   C     C_R   0.647888 0.866763 0.899690 0.546765
C28   C     C_R   0.554300 0.351801 0.198127 -0.136386
C29   C     C_R   0.554292 0.365647 0.277385 -0.130786
C30   C     C_R   0.638529 0.324671 0.328090 0.027013
C31   C     C_R   0.638868 0.297840 0.170082 0.032026
C32   C     C_1   0.685228 0.831684 0.201727 -0.042982
C33   C     C_1   0.703541 0.807247 0.270472 -0.044089
C34   C     C_1   0.227484 0.853886 0.215544 -0.031184
C35   C     C_1   0.178885 0.834596 0.283126 -0.031828
C36   C     C_1   0.661737 0.357893 0.780480 -0.046976
Cr1   Cr    Cr6+3 0.402240 0.783890 0.019450 1.025834
Cr2   Cr    Cr6+3 0.382360 0.097900 0.991800 1.024168
Cr3   Cr    Cr6+3 0.715380 0.118170 0.988700 1.021646
Cr4   Cr    Cr6+3 0.936650 0.882420 0.465510 1.019699
Cr5   Cr    Cr6+3 0.605770 0.565620 0.493360 1.021252
Cr6   Cr    Cr6+3 0.921340 0.550490 0.496380 1.021060
H1    H     H_    0.492262 0.386506 0.158495 0.132111
H2    H     H_    0.802200 0.058504 0.635757 0.134940
H3    H     H_    0.812156 0.086943 0.775170 0.146632
H4    H     H_    0.053130 0.951304 0.817755 0.134733
H5    H     H_    0.018324 0.941048 0.679122 0.148980
H6    H     H_    0.195326 0.649197 0.686979 0.129908
H7    H     H_    0.233020 0.661060 0.827118 0.143324
H8    H     H_    0.497430 0.417950 0.297156 0.143134
H9    H     H_    0.773578 0.222410 0.340431 0.143198
H10   H     H_    0.770847 0.194585 0.203079 0.147305
H11   H     H_    0.572238 0.615359 0.851611 0.130974
H12   H     H_    0.554971 0.588222 0.714016 0.134990
O1    O     O_R   0.521780 0.757110 0.108900 -0.517360
O2    O     O_R   0.805020 0.410040 0.421340 -0.512472
O3    O     O_R   0.049240 0.685450 0.403290 -0.491130
O4    O     O_R   0.275160 0.783810 0.101120 -0.487228
O5    O     O_R   0.077520 0.903010 0.551800 -0.518422
O6    O     O_R   0.802980 0.872780 0.546830 -0.506953
O7    O     O_R   0.578090 0.681300 0.569920 -0.521644
O8    O     O_R   0.608530 0.436370 0.586530 -0.492915
O9    O     O_R   0.798770 0.401880 0.597100 -0.506771
O10   O     O_R   0.043450 0.677890 0.566230 -0.516543
O11   O     O_3   0.821250 0.666180 0.485090 -0.295607
O12   O     O_R   0.513330 0.228330 0.898660 -0.495006
O13   O     O_R   0.237900 0.972600 0.090980 -0.505077
O14   O     O_R   0.511190 0.220540 0.061620 -0.518771
O15   O     O_R   0.736920 0.257720 0.063840 -0.518605
O16   O     O_R   0.710450 0.984050 0.081720 -0.502071
O17   O     O_R   0.524090 0.765520 0.933110 -0.520781
O18   O     O_R   0.277300 0.791600 0.938160 -0.500646
O19   O     O_R   0.240210 0.981010 0.915190 -0.512888
O20   O     O_R   0.739230 0.266130 0.888050 -0.508466
O21   O     O_R   0.712580 0.991850 0.918770 -0.503893
O22   O     O_3   0.499990 0.999980 0.999980 -0.267428
O23   O     O_R   0.083770 0.911170 0.376030 -0.507103
O24   O     O_R   0.808770 0.880340 0.383890 -0.491301
O25   O     O_R   0.584340 0.689460 0.394160 -0.504136
O26   O     O_R   0.614320 0.443940 0.423590 -0.516108

loop_
_geom_bond_atom_site_label_1
_geom_bond_atom_site_label_2
_ccdc_geom_bond_type
C19   O2    A    
Cr4   O6    S    
C11   C13   A    
C11   H5    S    
Cr5   O7    S    
Cr5   O26   S    
C7    C8    A    
Cr2   O22   S    
C12   C23   A    
C20   O23   A    
C28   C29   A    
C5    C6    A    
C10   C17   A    
C34   C35   T    
Cr3   O20   S    
C8    H3    S    
Cr6   O2    S    
C22   O9    A    
C20   C35   S    
Cr2   O12   S    
C18   O25   A    
C10   H4    S    
Cr6   O11   S    
Cr3   O21   S    
C21   O7    A    
Cr1   O4    S    
C24   O10   A    
Cr4   O5    S    
C13   C14   A    
Cr5   O8    S    
C27   O21   A    
Cr6   O3    S    
C4    O15   A    
C1    C34   S    
C29   H8    S    
C26   O12   A    
C5    H12   S    
C16   O16   A    
C21   O6    A    
C4    O14   A    
C8    C9    A    
Cr5   O11   S    
C7    H2    S    
C6    C21   S    
C13   C24   S    
C23   C31   A    
C2    C22   S    
C29   C30   A    
C3    C9    A    
C22   O8    A    
C18   O24   A    
Cr3   O15   S    
C25   O18   A    
Cr3   O22   S    
C26   C36   S    
Cr1   O22   S    
Cr2   O14   S    
Cr4   O11   S    
Cr1   O17   S    
Cr4   O24   S    
Cr6   O10   S    
C12   H9    S    
C27   O17   A    
C9    C27   S    
C2    C36   T    
C15   C17   A    
C12   C30   A    
C14   C15   A    
C28   C31   A    
C3    C5    A    
Cr5   O25   S    
C14   H6    S    
C6    C7    A    
C1    O13   A    
C16   C32   S    
C28   H1    S    
C17   C25   S    
C32   C33   T    
C16   O1    A    
C1    O4    A    
C3    H11   S    
C23   H10   S    
C24   O5    A    
C26   O20   A    
Cr3   O16   S    
C25   O19   A    
C15   H7    S    
C19   O26   A    
C18   C33   S    
C4    C31   S    
C10   C11   A    
Cr1   O1    S    
Cr2   O13   S    
Cr1   O18   S    
Cr4   O23   S    
C20   O3    A    
C19   C30   S    
Cr6   O9    S    
Cr2   O19   S    
