data_mof_unit_21298.cif
_audit_creation_date              2012-12-10T17:10:23-0500
_audit_creation_method            fapswitch 2.2
_symmetry_space_group_name_H-M    P1
_symmetry_Int_Tables_number       1
_space_group_crystal_system       triclinic
_cell_length_a                    10.82477
_cell_length_b                    13.078664
_cell_length_c                    11.684571
_cell_angle_alpha                 99.866934
_cell_angle_beta                  95.005252
_cell_angle_gamma                 90.71559
_cell_volume                      1622.90787759

loop_
_atom_site_label
_atom_site_type_symbol
_atom_type_description
_atom_site_fract_x
_atom_site_fract_y
_atom_site_fract_z
_atom_type_partial_charge
C1    C     C_R   0.501263 0.299385 0.478922 0.810678
C2    C     C_R   0.498737 0.700615 0.521078 0.810677
C3    C     C_R   0.500525 0.813698 0.532357 -0.099070
C4    C     C_R   0.499475 0.186302 0.467643 -0.099070
C5    C     C_R   0.421679 0.021263 0.358144 -0.187908
C6    C     C_R   0.578321 0.978737 0.641856 -0.187908
C7    C     C_R   0.438147 0.127391 0.367269 -0.186287
C8    C     C_R   0.561854 0.872609 0.632731 -0.186287
C9    C     C_R   0.552188 0.136964 0.558030 -0.084220
C10   C     C_R   0.447812 0.863036 0.441970 -0.084220
C11   C     C_R   0.533350 0.029211 0.550360 0.113087
C12   C     C_R   0.466651 0.970789 0.449640 0.113087
C13   C     C_R   0.373800 0.408905 0.019227 -0.148113
C14   C     C_R   0.626200 0.591095 0.980773 -0.148113
C15   C     C_R   0.388049 0.415744 0.142044 0.114416
C16   C     C_R   0.611951 0.584256 0.857956 0.114416
C17   C     C_R   0.554527 0.538148 0.158490 0.035751
C18   C     C_R   0.445473 0.461852 0.841510 0.035751
C19   C     C_R   0.545915 0.532707 0.035257 0.015141
C20   C     C_R   0.454084 0.467293 0.964742 0.015141
C21   C     C_R   0.262604 0.512857 0.500550 0.814460
C22   C     C_R   0.737396 0.487143 0.499449 0.814460
C23   C     C_R   0.134901 0.579145 0.715345 -0.165596
C24   C     C_R   0.865099 0.420856 0.284655 -0.165596
C25   C     C_R   0.088594 0.568304 0.820467 0.030078
C26   C     C_R   0.911407 0.431697 0.179533 0.030078
C27   C     C_R   0.978022 0.512583 0.819077 -0.156413
C28   C     C_R   0.021980 0.487417 0.180923 -0.156413
C29   C     C_R   0.909166 0.475588 0.713290 -0.121349
C30   C     C_R   0.090834 0.524413 0.286710 -0.121349
C31   C     C_R   0.949721 0.494199 0.606458 0.082607
C32   C     C_R   0.050279 0.505802 0.393542 0.082607
C33   C     C_R   0.071600 0.533272 0.607123 0.067466
C34   C     C_R   0.928400 0.466729 0.392877 0.067466
C35   C     C_R   0.873372 0.473999 0.499598 -0.213002
C36   C     C_R   0.126628 0.526002 0.500402 -0.213003
Cu1   Cu    Cu3+1 0.509250 0.507730 0.615930 0.961396
Cu2   Cu    Cu3+1 0.490750 0.492270 0.384070 0.961396
H1    H     H_    0.825807 0.430295 0.716425 0.180712
H2    H     H_    0.174193 0.569706 0.283576 0.180712
N1    N     N_R   0.523180 0.519350 0.790130 -0.214728
N2    N     N_R   0.476820 0.480650 0.209870 -0.214728
O1    O     O_R   0.506570 0.354460 0.582000 -0.577156
O2    O     O_R   0.493430 0.645540 0.418000 -0.577156
O3    O     O_R   0.490940 0.341410 0.386200 -0.591404
O4    O     O_R   0.509060 0.658590 0.613800 -0.591404
O5    O     O_R   0.327470 0.506520 0.597900 -0.591603
O6    O     O_R   0.672530 0.493480 0.402100 -0.591604
O7    O     O_R   0.311840 0.493460 0.402100 -0.584073
O8    O     O_R   0.688160 0.506540 0.597900 -0.584073
H3    H     H_    0.056614 0.500182 0.100257 0.145349
H4    H     H_    0.943388 0.499818 0.899743 0.145350
C37   C     C_1   0.275627 0.343051 0.950400 0.194259
N3    N     N_1   0.197164 0.290771 0.895598 -0.254619
C38   C     C_1   0.724373 0.656950 0.049600 0.194260
N4    N     N_1   0.802836 0.709229 0.104402 -0.254619
H5    H     H_    0.219325 0.625319 0.718982 0.156037
H6    H     H_    0.780675 0.374682 0.281017 0.156038
C39   C     C_1   0.156917 0.611861 0.929500 0.210058
N5    N     N_1   0.212145 0.646863 0.016995 -0.257767
C40   C     C_1   0.843084 0.388139 0.070499 0.210058
N6    N     N_1   0.787857 0.353138 0.983004 -0.257767
C41   C     C_1   0.370942 0.804174 0.344010 0.241476
N7    N     N_1   0.309581 0.757385 0.266043 -0.256338
C42   C     C_1   0.629058 0.195826 0.655990 0.241477
N8    N     N_1   0.690418 0.242616 0.733957 -0.256337
H7    H     H_    0.600069 0.836292 0.703907 0.181619
H8    H     H_    0.399931 0.163708 0.296093 0.181619
H9    H     H_    0.372417 0.979515 0.278984 0.162964
H10   H     H_    0.627583 0.020485 0.721016 0.162964
H11   H     H_    0.376744 0.411494 0.785643 0.150305
H12   H     H_    0.623256 0.588506 0.214357 0.150305
C43   C     C_1   0.692826 0.647013 0.804450 0.312466
N9    N     N_1   0.758888 0.697557 0.763070 -0.290681
C44   C     C_1   0.307174 0.352987 0.195550 0.312466
N10   N     N_1   0.241112 0.302443 0.236930 -0.290681

loop_
_geom_bond_atom_site_label_1
_geom_bond_atom_site_label_2
_ccdc_geom_bond_type
C15   C44   S    
C38   N4    T    
C27   C29   A    
C43   N9    T    
C22   O6    A    
C10   C41   S    
C21   O7    A    
C21   C36   S    
C37   N3    T    
C2    O4    A    
C22   C35   S    
C32   C36   A    
C26   C40   S    
C24   C26   A    
Cu2   N2    S    
C28   H3    S    
C33   C36   A    
C6    H10   S    
C34   C35   A    
C17   N2    A    
Cu2   O3    S    
C5    H9    S    
C7    H8    S    
C1    O1    A    
C19   C20   A    
C2    O2    A    
C23   C33   A    
C31   C33   A    
C14   C16   A    
Cu1   O5    S    
Cu2   O6    S    
C22   O8    A    
C14   C38   S    
C39   N5    T    
C4    C7    A    
C13   C37   S    
C16   C43   S    
C5    C12   A    
C3    C8    A    
C18   N1    A    
C6    C11   A    
Cu2   O7    S    
C6    C8    A    
C24   C34   A    
C32   C34   A    
Cu1   O1    S    
C44   N10   T    
Cu2   O2    S    
Cu1   Cu2   S    
C29   H1    S    
C30   H2    S    
C9    C11   A    
C10   C12   A    
C17   H12   S    
C13   C15   A    
C31   C35   A    
C27   H4    S    
C5    C7    A    
C18   H11   S    
C23   H5    S    
C13   C20   A    
C14   C19   A    
C15   N2    A    
C11   C12   A    
C25   C27   A    
C26   C28   A    
C1    C4    S    
C28   C30   A    
C2    C3    S    
C4    C9    A    
C29   C31   A    
C3    C10   A    
C30   C32   A    
Cu1   O8    S    
C1    O3    A    
C17   C19   A    
C18   C20   A    
C23   C25   A    
Cu1   N1    S    
C40   N6    T    
C9    C42   S    
C41   N7    T    
C8    H7    S    
C24   H6    S    
C42   N8    T    
C25   C39   S    
Cu1   O4    S    
C16   N1    A    
C21   O5    A    
