data_mof_unit_26595.cif
_audit_creation_date              2012-12-10T16:50:10-0500
_audit_creation_method            fapswitch 2.2
_symmetry_space_group_name_H-M    P1
_symmetry_Int_Tables_number       1
_space_group_crystal_system       triclinic
_cell_length_a                    23.555305
_cell_length_b                    8.718261
_cell_length_c                    7.464194
_cell_angle_alpha                 103.228044
_cell_angle_beta                  94.740728
_cell_angle_gamma                 93.196631
_cell_volume                      1482.66842985

loop_
_atom_site_label
_atom_site_type_symbol
_atom_type_description
_atom_site_fract_x
_atom_site_fract_y
_atom_site_fract_z
_atom_type_partial_charge
C1    C     C_R   0.498152 0.199962 0.453313 0.770171
C2    C     C_R   0.501811 0.800034 0.546691 0.778483
C3    C     C_R   0.237538 0.560864 0.366510 0.344950
C4    C     C_R   0.755183 0.475400 0.319118 0.343984
C5    C     C_R   0.296797 0.559206 0.370487 0.612852
C6    C     C_R   0.696075 0.470975 0.325978 0.607796
C7    C     C_R   0.328381 0.496307 0.501829 -0.465226
C8    C     C_R   0.672205 0.515006 0.496212 -0.473532
C9    C     C_R   0.299320 0.433893 0.631509 0.261357
C10   C     C_R   0.709478 0.566139 0.661634 0.265824
C11   C     C_R   0.240553 0.444598 0.634459 0.715819
C12   C     C_R   0.768233 0.559676 0.655204 0.690269
C13   C     C_R   0.209307 0.505146 0.501935 -0.128636
C14   C     C_R   0.791533 0.516697 0.486010 -0.126725
C15   C     C_2   0.496803 0.032520 0.427006 0.323953
C16   C     C_2   0.503109 0.967466 0.573003 0.313994
C17   C     C_R   0.391001 0.497768 0.500986 0.868008
C18   C     C_R   0.609219 0.505250 0.499167 0.873759
C19   C     C_R   0.885289 0.655336 0.536130 0.735827
C20   C     C_R   0.115572 0.366838 0.445024 0.726008
C21   C     C_R   0.876124 0.373702 0.440971 0.662011
C22   C     C_R   0.125118 0.646628 0.562871 0.669534
C23   C     C_R   0.935657 0.368701 0.440341 -0.159173
C24   C     C_R   0.065508 0.651936 0.559518 -0.165155
C25   C     C_R   0.970548 0.511816 0.495637 -0.166193
C26   C     C_R   0.030544 0.509178 0.499616 -0.167210
C27   C     C_R   0.945407 0.657428 0.546763 -0.115056
C28   C     C_R   0.055600 0.363958 0.443506 -0.115415
C29   C     C_R   0.960786 0.224530 0.386275 0.555177
C30   C     C_R   0.040359 0.796044 0.613901 0.555519
C31   C     C_R   0.020435 0.220941 0.386594 0.351993
C32   C     C_R   0.980605 0.800149 0.607116 0.350387
Cu1   Cu    Cu3+1 0.506340 0.517380 0.684380 1.154132
Cu2   Cu    Cu3+1 0.493660 0.482620 0.315620 1.187627
N1    N     N_R   0.852472 0.515231 0.486121 -0.470686
N2    N     N_R   0.148473 0.506289 0.503832 -0.470143
N3    N     N_2   0.484110 0.456420 0.038520 0.175671
N4    N     N_2   0.515890 0.543580 0.961480 0.176098
O1    O     O_R   0.504120 0.286130 0.619770 -0.521220
O2    O     O_R   0.495880 0.713870 0.380230 -0.516844
O3    O     O_R   0.493410 0.256770 0.308360 -0.554432
O4    O     O_R   0.506590 0.743230 0.691640 -0.562411
O5    O     O_R   0.423230 0.514630 0.655730 -0.543974
O6    O     O_R   0.576770 0.485370 0.344270 -0.493539
O7    O     O_R   0.412530 0.485280 0.344320 -0.544487
O8    O     O_R   0.587470 0.514720 0.655680 -0.587900
O9    O     O_2   0.859375 0.791643 0.574621 -0.372285
O10   O     O_2   0.141232 0.232149 0.387151 -0.375129
O11   O     O_2   0.841773 0.238674 0.397252 -0.378116
O12   O     O_2   0.159839 0.780214 0.623367 -0.368599
F1    F     F_    0.927476 0.086473 0.330409 -0.577558
F2    F     F_    0.073687 0.933841 0.673005 -0.573542
O13   O     O_3   0.045088 0.079254 0.332400 -0.605967
H1    H     H_    0.015314 0.990112 0.297733 0.372886
O14   O     O_3   0.955908 0.941788 0.661081 -0.602959
H2    H     H_    0.985725 0.030680 0.698966 0.374578
O15   O     O_3   0.209141 0.617427 0.228320 -0.570355
H3    H     H_    0.167421 0.596895 0.228236 0.344741
O16   O     O_3   0.775418 0.438050 0.147074 -0.557734
H4    H     H_    0.817152 0.464708 0.159544 0.359023
F3    F     F_    0.323465 0.620194 0.244695 -0.546242
F4    F     F_    0.662237 0.423619 0.163781 -0.538080
O17   O     O_3   0.326177 0.356966 0.752657 -0.581173
H5    H     H_    0.356983 0.299909 0.690446 0.346543
O18   O     O_3   0.690397 0.625355 0.831444 -0.563739
H6    H     H_    0.661916 0.701408 0.813931 0.333206
F5    F     F_    0.213064 0.389227 0.762550 -0.539426
F6    F     F_    0.803322 0.601080 0.815163 -0.562284
F7    F     F_    0.488705 0.944692 0.249273 -0.594532
F8    F     F_    0.511207 0.055281 0.750735 -0.597011
O19   O     O_3   0.447413 0.348603 0.923298 -0.546894
H7    H     H_    0.427618 0.292569 0.004450 0.367525
O20   O     O_3   0.553674 0.648493 0.076648 -0.525765
H8    H     H_    0.573442 0.704869 0.995816 0.355638

loop_
_geom_bond_atom_site_label_1
_geom_bond_atom_site_label_2
_ccdc_geom_bond_type
O14   H2    S    
Cu2   N3    S    
O20   H8    S    
C21   O11   S    
O13   H1    S    
C12   F6    S    
Cu1   O1    S    
Cu2   O2    S    
Cu1   O4    S    
C23   C29   A    
C24   C26   A    
C19   O9    S    
C15   C16   D    
C7    C17   S    
C1    C15   S    
C2    C16   S    
C32   O14   S    
C3    C13   A    
C22   O12   S    
O16   H4    S    
Cu1   O8    S    
Cu2   O3    S    
C18   O8    A    
C11   F5    S    
C15   F7    S    
Cu1   O5    S    
C16   F8    S    
C13   N2    S    
C4    C6    A    
C14   N1    S    
C5    C7    A    
C6    C8    A    
C20   C28   A    
C25   C26   A    
C8    C18   S    
C17   O5    A    
N3    N4    D    
C18   O6    A    
Cu1   Cu2   S    
C5    F3    S    
Cu2   O7    S    
C31   O13   S    
C9    C11   A    
C20   O10   S    
C10   C12   A    
C3    O15   S    
C1    O3    A    
C12   C14   A    
C21   C23   A    
C22   C24   A    
C19   C27   A    
C29   F1    S    
C10   O18   S    
C7    C9    A    
Cu2   O6    S    
C30   F2    S    
C27   C32   A    
C9    O17   S    
C28   C31   A    
C17   O7    A    
C3    C5    A    
C21   N1    A    
C25   C27   A    
C22   N2    A    
C26   C28   A    
Cu1   N4    S    
C6    F4    S    
N3    O19   S    
O19   H7    S    
C29   C31   A    
C19   N1    A    
C30   C32   A    
C11   C13   A    
O15   H3    S    
C2    O4    A    
C4    O16   S    
C23   C25   A    
C4    C14   A    
C24   C30   A    
C1    O1    A    
O17   H5    S    
C20   N2    A    
C2    O2    A    
C8    C10   A    
O18   H6    S    
N4    O20   S    
