data_mof_unit_39337.cif
_audit_creation_date              2012-12-10T20:32:00-0500
_audit_creation_method            fapswitch 2.2
_symmetry_space_group_name_H-M    P1
_symmetry_Int_Tables_number       1
_space_group_crystal_system       triclinic
_cell_length_a                    9.924064
_cell_length_b                    10.657045
_cell_length_c                    15.444626
_cell_angle_alpha                 91.212104
_cell_angle_beta                  67.876272
_cell_angle_gamma                 89.474174
_cell_volume                      1512.57847072

loop_
_atom_site_label
_atom_site_type_symbol
_atom_type_description
_atom_site_fract_x
_atom_site_fract_y
_atom_site_fract_z
_atom_type_partial_charge
C1    C     C_R   0.503845 0.739377 0.492704 0.891705
C2    C     C_R   0.395256 0.428322 0.921196 -0.043622
C3    C     C_R   0.251148 0.468543 0.975417 -0.052740
C4    C     C_R   0.487648 0.388487 0.966904 -0.027963
C5    C     C_R   0.454976 0.430945 0.059386 -0.046809
C6    C     C_R   0.311968 0.474606 0.112769 -0.255613
C7    C     C_R   0.208181 0.488446 0.072202 0.472879
C8    C     C_R   0.607933 0.304914 0.924355 0.341915
C9    C     C_R   0.716228 0.293396 0.963127 0.291143
C10   C     C_R   0.694515 0.353926 0.049133 0.054970
C11   C     C_R   0.564659 0.424453 0.096492 0.029040
C12   C     C_R   0.408550 0.492936 0.676524 0.936343
C13   C     C_R   0.798810 0.342865 0.090432 -0.086367
C14   C     C_R   0.771619 0.396335 0.178851 -0.167859
C15   C     C_R   0.549043 0.489427 0.179196 -0.189934
C16   C     C_R   0.387217 0.936793 0.482880 0.101228
C17   C     C_R   0.514409 0.869602 0.470679 -0.255108
C18   C     C_R   0.648798 0.933204 0.439748 0.426604
C19   C     C_R   0.645207 0.063440 0.447934 -0.195740
C20   C     C_R   0.510976 0.127900 0.480006 -0.216678
C21   C     C_R   0.385848 0.064587 0.486970 0.176612
C22   C     C_3   0.236762 0.072727 0.561343 -0.422326
C23   C     C_R   0.502263 0.259885 0.496879 0.904832
C24   C     C_3   0.237815 0.930655 0.556655 -0.470334
C25   C     C_R   0.908719 0.602255 0.532964 0.162855
C26   C     C_R   0.955410 0.406740 0.455304 0.428993
C27   C     C_R   0.097757 0.406029 0.455835 0.409064
C28   C     C_R   0.049687 0.601223 0.534576 0.106786
C29   C     C_3   0.993898 0.653867 0.632260 -0.454339
C30   C     C_3   0.843784 0.660926 0.628093 -0.444118
C31   C     C_R   0.591103 0.496995 0.323991 0.840459
C32   C     C_R   0.350122 0.471623 0.778977 -0.280001
C33   C     C_R   0.644923 0.468388 0.223840 -0.060502
C34   C     C_R   0.153277 0.490143 0.931445 -0.131929
C35   C     C_R   0.199349 0.483120 0.834494 0.348701
C36   C     C_R   0.447779 0.443094 0.823260 0.439628
H1    H     H_    0.235889 0.111983 0.628873 0.195284
H2    H     H_    0.001062 0.584806 0.682956 0.256240
H3    H     H_    0.458647 0.553771 0.212679 0.153339
H4    H     H_    0.764126 0.600638 0.678833 0.244917
H5    H     H_    0.804874 0.758658 0.626389 0.217848
H6    H     H_    0.845682 0.376513 0.213604 0.175830
N1    N     N_R   0.856900 0.500860 0.500610 -0.189789
N2    N     N_R   0.142540 0.500820 0.500610 -0.192648
O1    O     O_R   0.385310 0.683210 0.499990 -0.598377
O2    O     O_R   0.614650 0.683240 0.500000 -0.600133
O3    O     O_R   0.319830 0.499970 0.632240 -0.608308
O4    O     O_R   0.549170 0.500000 0.632250 -0.540462
O5    O     O_R   0.385350 0.316760 0.500000 -0.616381
O6    O     O_R   0.614690 0.316790 0.500010 -0.606331
O7    O     O_R   0.450830 0.500000 0.367750 -0.643000
O8    O     O_R   0.680170 0.500030 0.367760 -0.650226
Zn1   Zn    Zn3+2 0.346870 0.499980 0.499990 0.946431
Zn2   Zn    Zn3+2 0.653130 0.500020 0.500010 0.978508
O9    O     O_3   0.067939 0.529693 0.124584 -0.789980
H7    H     H_    0.056174 0.540301 0.191011 0.331735
H8    H     H_    0.897984 0.287876 0.056900 0.200742
O10   O     O_3   0.782757 0.872945 0.406425 -0.736166
H9    H     H_    0.774459 0.795350 0.372441 0.344309
H10   H     H_    0.746207 0.112890 0.431777 0.232246
H11   H     H_    0.156309 0.116147 0.536272 0.253202
H12   H     H_    0.236771 0.887202 0.621748 0.205831
H13   H     H_    0.158807 0.892893 0.527878 0.222863
O11   O     O_3   0.921492 0.312414 0.405421 -0.727347
H14   H     H_    0.847506 0.346329 0.383620 0.354307
O12   O     O_3   0.188590 0.307961 0.408946 -0.722682
H15   H     H_    0.288377 0.339160 0.383957 0.372582
H16   H     H_    0.037142 0.747291 0.638809 0.205797
O13   O     O_3   0.844564 0.226588 0.917658 -0.773077
H17   H     H_    0.867036 0.226736 0.849488 0.349268
H18   H     H_    0.039545 0.511184 0.972138 0.223849
O14   O     O_3   0.094408 0.492667 0.797054 -0.763420
H19   H     H_    0.112415 0.422160 0.750971 0.346469
O15   O     O_3   0.595219 0.439669 0.770849 -0.706501
H20   H     H_    0.645655 0.480562 0.808149 0.319923
H21   H     H_    0.276580 0.492674 0.187139 0.140228
O16   O     O_3   0.610417 0.229393 0.849810 -0.714168
H22   H     H_    0.667451 0.151741 0.847422 0.345471

loop_
_geom_bond_atom_site_label_1
_geom_bond_atom_site_label_2
_ccdc_geom_bond_type
C8    C9    A    
O9    H7    S    
C16   C21   A    
C19   C20   A    
C7    O9    S    
C31   O8    A    
C12   O4    A    
C25   N1    A    
C14   C33   A    
O16   H22   S    
C25   C28   A    
O4    Zn2   S    
C26   C27   A    
O6    Zn2   S    
C32   C36   A    
C28   C29   S    
C9    O13   S    
C5    C11   A    
C3    C7    A    
C5    C6    A    
C1    O2    A    
C23   O5    A    
C13   H8    S    
C18   C19   A    
C34   C35   A    
C26   O11   S    
C11   C15   A    
C27   N2    A    
C18   O10   S    
C16   C17   A    
C29   H2    S    
C31   C33   S    
C30   H5    S    
C9    C10   A    
C4    C8    A    
C14   H6    S    
O12   H15   S    
O1    Zn1   S    
C16   C24   S    
C13   C14   A    
C12   C32   S    
C12   O3    A    
N2    Zn1   S    
O8    Zn2   S    
C26   N1    A    
O15   H20   S    
C32   C35   A    
O14   H19   S    
C23   O6    A    
C3    C34   A    
O10   H9    S    
C22   H1    S    
C28   N2    A    
O7    Zn1   S    
C2    C4    A    
C29   C30   S    
C29   H16   S    
N1    Zn2   S    
C20   C23   S    
O2    Zn2   S    
C17   C18   A    
C30   H4    S    
C15   H3    S    
C36   O15   S    
C35   O14   S    
C24   H13   S    
C8    O16   S    
C22   C24   S    
C2    C36   A    
C25   C30   S    
C24   H12   S    
C31   O7    A    
C4    C5    A    
C10   C13   A    
C6    H21   S    
C6    C7    A    
C19   H10   S    
C1    C17   S    
O3    Zn1   S    
O11   H14   S    
C2    C3    A    
C27   O12   S    
C22   H11   S    
C1    O1    A    
O5    Zn1   S    
O13   H17   S    
C10   C11   A    
C20   C21   A    
C21   C22   S    
C34   H18   S    
C15   C33   A    
