data_mof_unit_11399.cif
_audit_creation_date              2012-12-11T14:52:30-0500
_audit_creation_method            fapswitch 2.2
_symmetry_space_group_name_H-M    P1
_symmetry_Int_Tables_number       1
_space_group_crystal_system       triclinic
_cell_length_a                    18.818868
_cell_length_b                    10.944678
_cell_length_c                    18.812695
_cell_angle_alpha                 90.120323
_cell_angle_beta                  91.137712
_cell_angle_gamma                 90.146936
_cell_volume                      3873.99843492

loop_
_atom_site_label
_atom_site_type_symbol
_atom_type_description
_atom_site_fract_x
_atom_site_fract_y
_atom_site_fract_z
_atom_type_partial_charge
C1    C     C_R   0.272787 0.039627 0.855031 0.559907
C2    C     C_R   0.727885 0.041724 0.145852 0.553709
C3    C     C_R   0.772787 0.539627 0.855030 0.559885
C4    C     C_R   0.227888 0.541728 0.145854 0.553691
C5    C     C_3   0.565188 0.758838 0.956589 -0.113299
C6    C     C_3   0.518587 0.711589 0.017261 -0.066455
C7    C     C_3   0.065209 0.258906 0.956585 -0.113331
C8    C     C_3   0.018628 0.211581 0.017251 -0.066464
C9    C     C_R   0.307624 0.530170 0.962888 0.075341
C10   C     C_R   0.696316 0.519093 0.039964 0.081332
C11   C     C_R   0.807621 0.030161 0.962885 0.075316
C12   C     C_R   0.196314 0.019101 0.039963 0.081312
C13   C     C_R   0.305600 0.528020 0.037857 0.077831
C14   C     C_R   0.698056 0.514409 0.965037 0.069880
C15   C     C_R   0.805595 0.028019 0.037853 0.077817
C16   C     C_R   0.198053 0.014426 0.965036 0.069875
C17   C     C_R   0.244618 0.573125 0.072322 0.003682
C18   C     C_R   0.757479 0.565184 0.929687 -0.000027
C19   C     C_R   0.744607 0.073104 0.072316 0.003694
C20   C     C_R   0.257482 0.065184 0.929688 -0.000026
C21   C     C_R   0.189244 0.624881 0.031910 -0.159260
C22   C     C_R   0.812706 0.619267 0.969554 -0.155611
C23   C     C_R   0.689223 0.124823 0.031898 -0.159233
C24   C     C_R   0.312714 0.119248 0.969557 -0.155600
C25   C     C_R   0.192266 0.630190 0.959405 -0.162733
C26   C     C_R   0.809574 0.627120 0.041955 -0.162977
C27   C     C_R   0.692248 0.130130 0.959393 -0.162719
C28   C     C_R   0.309579 0.127100 0.041959 -0.162964
C29   C     C_R   0.252000 0.588656 0.923995 -0.002400
C30   C     C_R   0.750243 0.583863 0.077724 0.005031
C31   C     C_R   0.751993 0.088629 0.923988 -0.002393
C32   C     C_R   0.250244 0.083858 0.077725 0.005048
C33   C     C_R   0.453399 0.741481 0.526051 -0.118691
C34   C     C_R   0.464527 0.745038 0.453880 -0.128482
C35   C     C_R   0.953030 0.241971 0.525987 -0.118636
C36   C     C_R   0.964231 0.245472 0.453819 -0.128280
C37   C     C_R   0.508852 0.834560 0.426489 0.042936
C38   C     C_R   0.485815 0.827841 0.571647 0.025649
C39   C     C_R   0.008899 0.334585 0.426506 0.043131
C40   C     C_R   0.985777 0.327898 0.571646 0.025745
C41   C     C_R   0.541354 0.921773 0.471888 -0.099840
C42   C     C_R   0.528734 0.919650 0.544457 -0.132004
C43   C     C_R   0.041654 0.421443 0.471959 -0.099654
C44   C     C_R   0.029023 0.419314 0.544527 -0.131798
C45   C     C_R   0.471714 0.822162 0.854891 0.548286
C46   C     C_R   0.560767 0.817060 0.137658 0.556649
C47   C     C_R   0.971710 0.322161 0.854894 0.548289
C48   C     C_R   0.060765 0.317061 0.137658 0.556655
C49   C     C_R   0.195996 0.665636 0.528039 0.076961
C50   C     C_R   0.819850 0.584274 0.456023 0.072173
C51   C     C_R   0.696038 0.165730 0.528033 0.077116
C52   C     C_R   0.319935 0.084435 0.456011 0.072314
C53   C     C_R   0.202296 0.667699 0.455869 -0.113744
C54   C     C_R   0.824976 0.575003 0.528556 -0.102471
C55   C     C_R   0.702316 0.167680 0.455863 -0.113762
C56   C     C_R   0.325037 0.075185 0.528551 -0.102503
C57   C     C_R   0.249833 0.589647 0.423093 -0.002031
C58   C     C_R   0.763702 0.561113 0.569195 0.010124
C59   C     C_R   0.749816 0.089567 0.423107 -0.002076
C60   C     C_R   0.263745 0.060991 0.569151 0.010013
C61   C     C_R   0.300306 0.524294 0.463334 -0.149619
C62   C     C_R   0.697252 0.546621 0.536816 -0.132028
C63   C     C_R   0.800245 0.024150 0.463360 -0.149694
C64   C     C_R   0.197329 0.045993 0.536708 -0.132035
C65   C     C_R   0.299961 0.532285 0.536670 -0.173074
C66   C     C_R   0.691440 0.554120 0.463827 -0.145969
C67   C     C_R   0.799895 0.032171 0.536693 -0.173239
C68   C     C_R   0.191553 0.053395 0.463709 -0.146081
C69   C     C_R   0.248232 0.603088 0.569658 0.029602
C70   C     C_R   0.752026 0.579974 0.423655 0.030403
C71   C     C_R   0.748226 0.103108 0.569664 0.029572
C72   C     C_R   0.252119 0.079772 0.423591 0.030362
C73   C     C_R   0.260764 0.634796 0.851590 0.555893
C74   C     C_R   0.739719 0.633531 0.149009 0.553370
C75   C     C_R   0.760762 0.134791 0.851587 0.555894
C76   C     C_R   0.239719 0.133530 0.149010 0.553342
C77   C     C_R   0.273453 0.040971 0.643772 0.548567
C78   C     C_R   0.729797 0.047833 0.353086 0.545644
C79   C     C_R   0.773439 0.541010 0.643794 0.548534
C80   C     C_R   0.229802 0.547851 0.353081 0.545571
C81   C     C_R   0.468170 0.822967 0.646023 0.538241
C82   C     C_R   0.531869 0.823873 0.353897 0.561228
C83   C     C_R   0.968171 0.322976 0.646030 0.538175
C84   C     C_R   0.031881 0.323871 0.353905 0.561255
C85   C     C_R   0.259276 0.637982 0.642955 0.550397
C86   C     C_R   0.740953 0.633357 0.354813 0.563874
C87   C     C_R   0.759278 0.137997 0.642954 0.550363
C88   C     C_R   0.240972 0.133315 0.354792 0.563830
C89   C     C_3   0.476188 0.896725 0.032500 -0.107265
C90   C     C_3   0.522869 0.943990 0.971409 -0.121542
C91   C     C_3   0.976152 0.396654 0.032509 -0.107274
C92   C     C_3   0.022814 0.443997 0.971425 -0.121534
C93   C     C_3   0.454643 0.784108 0.987533 -0.093164
C94   C     C_3   0.587077 0.870978 0.002161 -0.154508
C95   C     C_3   0.954655 0.284030 0.987529 -0.093143
C96   C     C_3   0.087050 0.371055 0.002170 -0.154491
C97   C     C_3   0.501610 0.830921 0.927375 0.045458
C98   C     C_3   0.539817 0.823911 0.061841 0.038382
C99   C     C_3   0.001603 0.330920 0.927378 0.045457
C100  C     C_3   0.039810 0.323911 0.061843 0.038391
Cr1   Cr    Cr6+3 0.229630 0.835900 0.747350 1.090244
Cr2   Cr    Cr6+3 0.770370 0.835900 0.252650 1.080821
Cr3   Cr    Cr6+3 0.729630 0.335900 0.747350 1.090247
Cr4   Cr    Cr6+3 0.270370 0.335900 0.252650 1.080842
Cr5   Cr    Cr6+3 0.387410 0.989850 0.750850 1.055743
Cr6   Cr    Cr6+3 0.612590 0.989850 0.249150 1.069358
Cr7   Cr    Cr6+3 0.887410 0.489850 0.750850 1.055812
Cr8   Cr    Cr6+3 0.112590 0.489850 0.249150 1.069393
Cr9   Cr    Cr6+3 0.385800 0.677120 0.749340 1.075099
Cr10  Cr    Cr6+3 0.614200 0.677120 0.250660 1.071044
Cr11  Cr    Cr6+3 0.885800 0.177120 0.749340 1.075130
Cr12  Cr    Cr6+3 0.114200 0.177120 0.250660 1.071024
H1    H     H_    0.399600 0.748677 0.980631 0.140184
H2    H     H_    0.643046 0.899900 0.009608 0.124160
H3    H     H_    0.899628 0.248536 0.980621 0.140233
H4    H     H_    0.143006 0.400037 0.009623 0.124167
H5    H     H_    0.163185 0.718607 0.425020 0.170870
H6    H     H_    0.877574 0.578569 0.553014 0.174797
H7    H     H_    0.663237 0.218620 0.425002 0.170904
H8    H     H_    0.377621 0.079014 0.553038 0.174733
H9    H     H_    0.337445 0.462740 0.438544 0.164134
H10   H     H_    0.650176 0.532040 0.567925 0.164120
H11   H     H_    0.837353 0.962539 0.438583 0.164207
H12   H     H_    0.150238 0.031088 0.567776 0.164325
H13   H     H_    0.340307 0.484269 0.567478 0.146824
H14   H     H_    0.638694 0.549848 0.439779 0.161489
H15   H     H_    0.840210 0.984118 0.567510 0.146970
H16   H     H_    0.138818 0.048674 0.439612 0.161453
H17   H     H_    0.439574 0.952586 0.064684 0.138168
H18   H     H_    0.524762 0.039203 0.951309 0.139292
H19   H     H_    0.939515 0.452454 0.064699 0.138179
H20   H     H_    0.024667 0.539217 0.951335 0.139327
H21   H     H_    0.602509 0.707440 0.923142 0.151329
H22   H     H_    0.517000 0.615846 0.035807 0.207002
H23   H     H_    0.102551 0.207559 0.923136 0.151301
H24   H     H_    0.017070 0.115833 0.035787 0.207010
H25   H     H_    0.140400 0.654990 0.055607 0.191780
H26   H     H_    0.860189 0.654323 0.945122 0.185182
H27   H     H_    0.640374 0.154918 0.055594 0.191764
H28   H     H_    0.360200 0.154290 0.945127 0.185182
H29   H     H_    0.147424 0.669988 0.931106 0.184260
H30   H     H_    0.853128 0.673015 0.069555 0.184034
H31   H     H_    0.647401 0.169906 0.931090 0.184221
H32   H     H_    0.353137 0.172982 0.069561 0.184021
H33   H     H_    0.418988 0.671167 0.546402 0.146799
H34   H     H_    0.440201 0.676082 0.419775 0.136148
H35   H     H_    0.918341 0.172036 0.546311 0.146690
H36   H     H_    0.939695 0.176818 0.419660 0.136013
H37   H     H_    0.577675 0.989449 0.451457 0.164623
H38   H     H_    0.553560 0.986517 0.579392 0.155539
H39   H     H_    0.078235 0.488787 0.451576 0.164242
H40   H     H_    0.054116 0.485837 0.579519 0.155323
O1    O     O_R   0.214270 0.709000 0.827470 -0.503250
O2    O     O_R   0.785730 0.709000 0.172530 -0.503231
O3    O     O_R   0.714270 0.209000 0.827470 -0.503240
O4    O     O_R   0.285730 0.209000 0.172530 -0.503230
O5    O     O_R   0.445950 0.919440 0.676520 -0.501180
O6    O     O_R   0.554050 0.919440 0.323480 -0.480904
O7    O     O_R   0.945950 0.419440 0.676520 -0.501108
O8    O     O_R   0.054050 0.419440 0.323480 -0.480797
O9    O     O_R   0.456730 0.717630 0.669840 -0.514466
O10   O     O_R   0.543270 0.717630 0.330160 -0.514740
O11   O     O_R   0.956730 0.217630 0.669840 -0.514357
O12   O     O_R   0.043270 0.217630 0.330160 -0.514629
O13   O     O_R   0.320620 0.625640 0.672920 -0.513443
O14   O     O_R   0.679380 0.625640 0.327080 -0.514037
O15   O     O_R   0.820620 0.125640 0.672920 -0.513482
O16   O     O_R   0.179380 0.125640 0.327080 -0.514038
O17   O     O_3   0.334280 0.834290 0.749180 -0.275997
O18   O     O_3   0.665720 0.834290 0.250820 -0.295886
O19   O     O_3   0.834280 0.334290 0.749180 -0.276037
O20   O     O_3   0.165720 0.334290 0.250820 -0.295892
O21   O     O_R   0.236160 0.958490 0.823130 -0.470359
O22   O     O_R   0.763840 0.958490 0.176870 -0.474403
O23   O     O_R   0.736160 0.458490 0.823130 -0.470372
O24   O     O_R   0.263840 0.458490 0.176870 -0.474396
O25   O     O_R   0.332080 0.075470 0.831280 -0.511617
O26   O     O_R   0.667920 0.075470 0.168720 -0.516140
O27   O     O_R   0.832080 0.575470 0.831280 -0.511625
O28   O     O_R   0.167920 0.575470 0.168720 -0.516157
O29   O     O_R   0.446300 0.918110 0.826620 -0.507078
O30   O     O_R   0.553700 0.918110 0.173380 -0.493297
O31   O     O_R   0.946300 0.418110 0.826620 -0.507081
O32   O     O_R   0.053700 0.418110 0.173380 -0.493283
O33   O     O_R   0.457110 0.716200 0.831760 -0.477488
O34   O     O_R   0.542890 0.716200 0.168240 -0.479972
O35   O     O_R   0.957110 0.216200 0.831760 -0.477483
O36   O     O_R   0.042890 0.216200 0.168240 -0.479964
O37   O     O_R   0.320980 0.624310 0.823030 -0.472005
O38   O     O_R   0.679020 0.624310 0.176970 -0.488186
O39   O     O_R   0.820980 0.124310 0.823030 -0.472005
O40   O     O_R   0.179020 0.124310 0.176970 -0.488208
O41   O     O_R   0.213890 0.710430 0.665540 -0.477728
O42   O     O_R   0.786110 0.710430 0.334460 -0.477578
O43   O     O_R   0.713890 0.210430 0.665540 -0.477699
O44   O     O_R   0.286110 0.210430 0.334460 -0.477549
O45   O     O_R   0.235810 0.959820 0.673020 -0.484439
O46   O     O_R   0.764190 0.959820 0.326980 -0.496475
O47   O     O_R   0.735810 0.459820 0.673020 -0.484345
O48   O     O_R   0.264190 0.459820 0.326980 -0.496421
O49   O     O_R   0.331700 0.076900 0.669350 -0.519245
O50   O     O_R   0.668300 0.076900 0.330650 -0.517100
O51   O     O_R   0.831700 0.576900 0.669350 -0.519220
O52   O     O_R   0.168300 0.576900 0.330650 -0.517111
I1    I     I_    0.101084 0.754509 0.563064 -0.388635
I2    I     I_    0.916963 0.615928 0.402220 -0.340904
I3    I     I_    0.601257 0.255027 0.563030 -0.388634
I4    I     I_    0.417057 0.116608 0.402297 -0.341285
I5    I     I_    0.390963 0.434059 0.910223 -0.289345
I6    I     I_    0.616654 0.418227 0.095612 -0.304148
I7    I     I_    0.890969 0.934067 0.910225 -0.289337
I8    I     I_    0.116648 0.918239 0.095609 -0.304232
I9    I     I_    0.396953 0.464820 0.097357 -0.286864
I10   I     I_    0.607859 0.438010 0.908155 -0.306307
I11   I     I_    0.896958 0.964876 0.097357 -0.286871
I12   I     I_    0.107848 0.938073 0.908149 -0.306299

loop_
_geom_bond_atom_site_label_1
_geom_bond_atom_site_label_2
_ccdc_geom_bond_type
Cr2   O18   S    
C49   C53   A    
C58   C62   A    
C55   C59   A    
C63   H11   S    
C8    H24   S    
C34   C37   A    
C56   H8    S    
C41   C42   A    
C14   C18   A    
Cr1   O21   S    
C35   C36   A    
C86   O14   A    
C21   H25   S    
C3    O23   A    
C45   O33   A    
C5    C94   S    
C94   H2    S    
C45   O29   A    
C7    C8    S    
Cr4   O24   S    
Cr7   O19   S    
C24   H28   S    
C15   C19   A    
C7    C96   S    
C1    O21   A    
C50   C54   A    
C7    C99   S    
C37   C41   A    
C52   C72   A    
C64   C68   A    
Cr9   O9    S    
C23   H27   S    
C80   O52   A    
C92   H20   S    
C39   C84   S    
C48   O36   A    
C83   O11   A    
C88   O44   A    
Cr2   O46   S    
C5    C6    S    
C30   C74   S    
C91   H19   S    
C95   C99   S    
C41   H37   S    
C56   C60   A    
Cr12  O16   S    
Cr5   O49   S    
C92   C96   S    
C47   C99   S    
C14   I10   S    
C3    C18   S    
C61   H9    S    
Cr1   O45   S    
C13   I9    S    
C16   I12   S    
C9    C13   A    
Cr6   O30   S    
C3    O27   A    
C11   I7    S    
C74   O38   A    
C11   C15   A    
C36   H36   S    
C87   O15   A    
C12   C16   A    
Cr9   O17   S    
C88   O16   A    
C27   H31   S    
Cr1   O17   S    
C28   H32   S    
C23   C27   A    
C91   C100  S    
Cr1   O41   S    
Cr9   O37   S    
Cr2   O2    S    
C90   C97   S    
C67   C71   A    
C84   O12   A    
C9    C29   A    
Cr6   O26   S    
Cr4   O20   S    
C68   H16   S    
C46   C98   S    
C51   I3    S    
C11   C31   A    
C49   C69   A    
C12   C32   A    
Cr3   O19   S    
Cr4   O48   S    
C57   C80   S    
C40   C83   S    
Cr9   O13   S    
C8    C95   S    
C1    O25   A    
C4    O28   A    
Cr12  O12   S    
C75   O39   A    
Cr2   O42   S    
C59   C78   S    
C72   C88   S    
C10   I6    S    
C90   C94   S    
C40   C44   A    
Cr10  O10   S    
C48   C100  S    
C63   C67   A    
C60   C77   S    
C50   I2    S    
C81   O5    A    
Cr8   O32   S    
C27   C31   A    
C78   O50   A    
Cr11  O39   S    
C28   C32   A    
Cr11  O11   S    
C12   I8    S    
C15   I11   S    
C10   C14   A    
C9    I5    S    
C91   C92   S    
Cr3   O43   S    
C62   C66   A    
Cr3   O47   S    
C82   O10   A    
C51   C55   A    
Cr9   O33   S    
Cr6   O6    S    
Cr10  O38   S    
C17   C21   A    
C66   H14   S    
Cr7   O31   S    
C68   C72   A    
C74   O2    A    
C65   H13   S    
C19   C23   A    
C43   C44   A    
Cr7   O51   S    
C76   O40   A    
C69   C85   S    
C67   H15   S    
Cr6   O50   S    
C10   C30   A    
C93   C97   S    
C31   C75   S    
Cr1   O1    S    
C16   C20   A    
C6    C93   S    
Cr5   O5    S    
Cr3   O23   S    
C33   C34   A    
C5    H21   S    
C83   O7    A    
C35   H35   S    
C46   O34   A    
C33   H33   S    
Cr12  O40   S    
C71   C87   S    
C4    C17   S    
C58   C79   S    
C47   O31   A    
C49   I1    S    
C26   C30   A    
C79   O51   A    
C54   H6    S    
C38   C81   S    
C22   C26   A    
Cr5   O17   S    
C37   C82   S    
Cr4   O4    S    
Cr11  O15   S    
C47   O35   A    
C70   C86   S    
C6    C98   S    
C62   H10   S    
C43   H39   S    
Cr8   O28   S    
C48   O32   A    
Cr12  O36   S    
C54   C58   A    
Cr3   O3    S    
C59   C63   A    
C65   C69   A    
C21   C25   A    
Cr10  O34   S    
C1    C20   S    
C53   C57   A    
C79   O47   A    
Cr7   O27   S    
C2    C19   S    
C52   I4    S    
C81   O9    A    
C36   C39   A    
C25   H29   S    
C24   C28   A    
Cr5   O25   S    
C77   O49   A    
C32   C76   S    
Cr7   O7    S    
C51   C71   A    
C57   C61   A    
C84   O8    A    
Cr8   O8    S    
Cr2   O22   S    
C2    O26   A    
C22   H26   S    
Cr11  O35   S    
C33   C38   A    
C44   H40   S    
C13   C17   A    
C89   C98   S    
C60   C64   A    
C85   O13   A    
C46   O30   A    
C18   C22   A    
C35   C40   A    
C50   C70   A    
C87   O43   A    
Cr8   O52   S    
C64   H12   S    
C86   O42   A    
C25   C29   A    
Cr10  O14   S    
C85   O41   A    
C8    C100  S    
Cr12  O20   S    
C52   C56   A    
Cr8   O20   S    
C82   O6    A    
C96   C100  S    
C76   O4    A    
C93   H1    S    
C53   H5    S    
C61   C65   A    
C89   C93   S    
C42   H38   S    
C73   O37   A    
C4    O24   A    
C7    H23   S    
C91   C95   S    
C90   H18   S    
C38   C42   A    
C75   O3    A    
C5    C97   S    
C55   H7    S    
C29   C73   S    
C66   C70   A    
Cr10  O18   S    
C6    H22   S    
Cr6   O18   S    
C39   C43   A    
C73   O1    A    
C94   C98   S    
C34   H34   S    
C96   H4    S    
C45   C97   S    
C78   O46   A    
Cr5   O29   S    
C89   C90   S    
C26   H30   S    
C89   H17   S    
C77   O45   A    
C20   C24   A    
C2    O22   A    
C95   H3    S    
C92   C99   S    
Cr4   O44   S    
Cr11  O19   S    
C80   O48   A    
