data_mof_unit_61949.cif
_audit_creation_date              2012-12-10T19:50:22-0500
_audit_creation_method            fapswitch 2.2
_symmetry_space_group_name_H-M    P1
_symmetry_Int_Tables_number       1
_space_group_crystal_system       triclinic
_cell_length_a                    36.821247
_cell_length_b                    18.270799
_cell_length_c                    18.27342
_cell_angle_alpha                 89.941622
_cell_angle_beta                  119.922763
_cell_angle_gamma                 90.02357
_cell_volume                      10654.762016

loop_
_atom_site_label
_atom_site_type_symbol
_atom_type_description
_atom_site_fract_x
_atom_site_fract_y
_atom_site_fract_z
_atom_type_partial_charge
C1    C     C_R   0.500050 0.000031 0.358826 0.933824
C2    C     C_1   0.336813 0.999814 0.337556 -0.062551
C3    C     C_3   0.697627 0.330435 0.401306 -0.777671
C4    C     C_3   0.706866 0.633372 0.356770 0.089511
C5    C     C_3   0.695401 0.627311 0.425786 -0.786540
C6    C     C_3   0.291988 0.374758 0.633321 0.078791
C7    C     C_3   0.306125 0.384403 0.568662 -0.838068
C8    C     C_1   0.163105 0.500592 0.662143 -0.058401
C9    C     C_1   0.836813 0.499817 0.337553 -0.062550
C10   C     C_1   0.625626 0.000144 0.625173 -0.190618
C11   C     C_1   0.374316 0.999959 0.374652 -0.187659
C12   C     C_1   0.125626 0.500143 0.625170 -0.190621
C13   C     C_1   0.874316 0.499959 0.374650 -0.187665
C14   C     C_1   0.500126 0.000085 0.282490 -0.194201
C15   C     C_1   0.499876 0.999916 0.717511 -0.193193
C16   C     C_1   0.000125 0.500085 0.282490 -0.194195
C17   C     C_R   0.499951 0.999969 0.641174 0.934339
C18   C     C_1   0.999876 0.499916 0.717511 -0.193202
C19   C     C_1   0.500144 0.000070 0.217768 -0.191630
C20   C     C_1   0.499857 0.999931 0.782232 -0.190442
C21   C     C_1   0.000144 0.500070 0.217768 -0.191620
C22   C     C_1   0.999857 0.499931 0.782233 -0.190446
C23   C     C_R   0.000003 0.141040 0.999972 0.935468
C24   C     C_R   0.000001 0.858959 0.000032 0.931695
C25   C     C_R   0.500003 0.641040 0.999972 0.935469
C26   C     C_R   0.500000 0.358959 0.000032 0.931670
C27   C     C_R   0.918798 0.000070 0.918645 0.902971
C28   C     C_R   0.000050 0.500031 0.358826 0.933829
C29   C     C_R   0.081220 0.999887 0.081373 0.900714
C30   C     C_R   0.418798 0.500071 0.918645 0.902958
C31   C     C_R   0.581220 0.499888 0.081373 0.900699
C32   C     C_R   0.500002 0.858714 0.999982 0.934660
C33   C     C_R   0.499998 0.141286 0.000020 0.934148
C34   C     C_R   0.000002 0.358714 0.999982 0.934650
C35   C     C_R   0.999998 0.641286 0.000020 0.934145
C36   C     C_R   0.500052 0.000022 0.141264 0.934554
C37   C     C_R   0.499948 0.999980 0.858736 0.935030
C38   C     C_R   0.000052 0.500022 0.141264 0.934552
C39   C     C_R   0.999951 0.499969 0.641175 0.934339
C40   C     C_R   0.999948 0.499979 0.858736 0.935020
C41   C     C_1   0.000005 0.217493 0.999922 -0.190791
C42   C     C_1   0.999998 0.782507 0.000083 -0.195007
C43   C     C_1   0.500006 0.717493 0.999923 -0.190794
C44   C     C_1   0.499998 0.282507 0.000083 -0.195018
C45   C     C_R   0.581196 0.000011 0.581185 0.907400
C46   C     C_R   0.418784 0.999999 0.418779 0.907813
C47   C     C_R   0.081196 0.500011 0.581185 0.907402
C48   C     C_R   0.918784 0.499999 0.418778 0.907817
C49   C     C_1   0.500006 0.782260 0.999938 -0.188845
C50   C     C_1   0.836874 0.000643 0.835552 0.003425
C51   C     C_1   0.499996 0.217740 0.000066 -0.192621
C52   C     C_1   0.000006 0.282260 0.999938 -0.188835
C53   C     C_1   0.999996 0.717740 0.000067 -0.192611
C54   C     C_3   0.724788 0.078257 0.700541 -0.499161
C55   C     C_3   0.274722 0.926849 0.308786 -0.459726
C56   C     C_3   0.274558 0.063571 0.323131 -0.460763
C57   C     C_3   0.725369 0.944048 0.668369 -0.480388
C58   C     C_3   0.224787 0.578143 0.700157 -0.499148
C59   C     C_3   0.774723 0.427216 0.309579 -0.459760
C60   C     C_3   0.774557 0.564096 0.322427 -0.460746
C61   C     C_1   0.163198 0.999211 0.164499 -0.027606
C62   C     C_3   0.225370 0.443775 0.668643 -0.480378
C63   C     C_3   0.774039 0.939151 0.720669 0.352709
C64   C     C_3   0.225822 0.064961 0.273859 0.405429
C65   C     C_3   0.225973 0.925309 0.259492 0.404252
C66   C     C_3   0.773725 0.078417 0.750609 0.392529
C67   C     C_3   0.274040 0.438896 0.720969 0.352708
C68   C     C_3   0.725821 0.565469 0.273153 0.405345
C69   C     C_3   0.725974 0.425661 0.260280 0.404282
C70   C     C_3   0.273724 0.578309 0.750227 0.392524
C71   C     C_1   0.874358 0.000384 0.873755 -0.165736
C72   C     C_1   0.336874 0.500641 0.835551 0.003423
C73   C     C_1   0.125694 0.999500 0.126296 -0.173065
C74   C     C_1   0.374358 0.500384 0.873754 -0.165735
C75   C     C_1   0.625694 0.499505 0.126296 -0.173049
C76   C     C_3   0.708766 0.001384 0.707129 0.250684
C77   C     C_3   0.291117 0.999562 0.292445 0.244719
C78   C     C_3   0.208766 0.501380 0.707120 0.250678
C79   C     C_3   0.791117 0.499571 0.292443 0.244732
C80   C     C_3   0.791145 0.000761 0.788803 0.171020
C81   C     C_3   0.208979 0.999132 0.211262 0.208829
C82   C     C_3   0.291145 0.500755 0.788801 0.171019
C83   C     C_1   0.663198 0.499221 0.164500 -0.027584
C84   C     C_3   0.708979 0.499151 0.211263 0.208805
C85   C     C_3   0.774605 0.983178 0.850337 -0.605153
C86   C     C_3   0.225444 0.007545 0.148314 -0.613655
C87   C     C_3   0.274604 0.483552 0.850417 -0.605151
C88   C     C_3   0.725445 0.506713 0.148227 -0.613602
C89   C     C_3   0.726021 0.982547 0.801679 -0.410674
C90   C     C_3   0.273919 0.007923 0.196359 -0.416546
C91   C     C_3   0.226021 0.482921 0.801761 -0.410687
C92   C     C_3   0.773920 0.507070 0.196268 -0.416509
C93   C     C_3   0.779997 0.096771 0.626332 0.225479
C94   C     C_1   0.663105 0.000593 0.662150 -0.058400
C95   C     C_3   0.764519 0.166438 0.573792 -0.934287
C96   C     C_3   0.207798 0.838351 0.329044 0.085908
C97   C     C_3   0.197654 0.828314 0.399548 -0.777766
C98   C     C_3   0.206865 0.131767 0.358187 0.089419
C99   C     C_3   0.195378 0.124848 0.427099 -0.786407
C100  C     C_3   0.791980 0.875530 0.632699 0.078826
C101  C     C_3   0.806114 0.885560 0.568083 -0.838042
C102  C     C_3   0.280001 0.596023 0.625868 0.225438
C103  C     C_3   0.264525 0.665506 0.572984 -0.934198
C104  C     C_3   0.707804 0.339624 0.330746 0.085938
H1    H     H_    0.710997 0.094619 0.633499 0.176009
H2    H     H_    0.286619 0.116554 0.313723 0.133554
H3    H     H_    0.286805 0.879723 0.288635 0.134229
H4    H     H_    0.713065 0.119557 0.728625 0.157898
H5    H     H_    0.211928 0.389061 0.668149 0.143799
H6    H     H_    0.786612 0.616844 0.312426 0.133567
H7    H     H_    0.786815 0.379736 0.289962 0.134224
H8    H     H_    0.213063 0.619636 0.728036 0.157907
H9    H     H_    0.782640 0.885841 0.755574 0.059920
H10   H     H_    0.215187 0.116037 0.234835 0.021424
H11   H     H_    0.215310 0.881126 0.210690 0.022416
H12   H     H_    0.286800 0.920390 0.377745 0.199695
H13   H     H_    0.781950 0.113941 0.806276 0.107804
H14   H     H_    0.282641 0.385716 0.756134 0.059909
H15   H     H_    0.715179 0.616241 0.233582 0.021433
H16   H     H_    0.715321 0.381075 0.211950 0.022413
H17   H     H_    0.281948 0.614063 0.805720 0.107805
H18   H     H_    0.714271 0.022826 0.830665 0.185622
H19   H     H_    0.285526 0.962354 0.173076 0.188810
H20   H     H_    0.285321 0.060036 0.183279 0.188438
H21   H     H_    0.714695 0.927527 0.807471 0.186934
H22   H     H_    0.214269 0.523398 0.830547 0.185624
H23   H     H_    0.286517 0.057812 0.392121 0.198950
H24   H     H_    0.785523 0.461114 0.173482 0.188809
H25   H     H_    0.785326 0.558910 0.182619 0.188429
H26   H     H_    0.214695 0.427984 0.807820 0.186925
H27   H     H_    0.786143 0.024455 0.901925 0.195482
H28   H     H_    0.213772 0.961812 0.101908 0.199274
H29   H     H_    0.213570 0.059319 0.111777 0.198708
H30   H     H_    0.786518 0.929083 0.881206 0.196853
H31   H     H_    0.286141 0.525024 0.901803 0.195476
H32   H     H_    0.713768 0.460615 0.102304 0.199257
H33   H     H_    0.713575 0.558228 0.111144 0.198722
H34   H     H_    0.714723 0.958433 0.601510 0.180343
H35   H     H_    0.286518 0.429551 0.881550 0.196857
H36   H     H_    0.755050 0.054950 0.598554 0.156564
H37   H     H_    0.806782 0.075317 0.620941 0.191225
H38   H     H_    0.790186 0.207410 0.597027 0.275294
H39   H     H_    0.753977 0.153968 0.506648 0.212303
H40   H     H_    0.737848 0.190008 0.578039 0.257411
H41   H     H_    0.237918 0.809778 0.347749 0.123252
H42   H     H_    0.182291 0.812898 0.270594 0.135027
H43   H     H_    0.167437 0.855427 0.382384 0.261172
H44   H     H_    0.195118 0.769076 0.409950 0.197591
H45   H     H_    0.210998 0.594244 0.633037 0.176015
H46   H     H_    0.222875 0.852643 0.458975 0.256730
H47   H     H_    0.181755 0.163405 0.304840 0.134366
H48   H     H_    0.237052 0.162122 0.384489 0.120851
H49   H     H_    0.220075 0.093824 0.481496 0.253699
H50   H     H_    0.192489 0.180124 0.448912 0.191605
H51   H     H_    0.165017 0.095691 0.402375 0.262688
H52   H     H_    0.760049 0.850938 0.600132 0.134793
H53   H     H_    0.814161 0.837455 0.682622 0.147187
H54   H     H_    0.838233 0.908934 0.598956 0.262455
H55   H     H_    0.806248 0.831873 0.539779 0.206881
H56   H     H_    0.786794 0.421388 0.378605 0.199694
H57   H     H_    0.784373 0.923175 0.517216 0.244600
H58   H     H_    0.255053 0.554190 0.598293 0.156569
H59   H     H_    0.306788 0.574408 0.620592 0.191246
H60   H     H_    0.290191 0.706466 0.596025 0.275286
H61   H     H_    0.253991 0.652756 0.505906 0.212351
H62   H     H_    0.237849 0.689226 0.577099 0.257477
H63   H     H_    0.737938 0.310956 0.349810 0.123282
H64   H     H_    0.682319 0.313796 0.272556 0.134984
H65   H     H_    0.667392 0.357649 0.383792 0.261116
H66   H     H_    0.695111 0.271332 0.412356 0.197645
H67   H     H_    0.786521 0.558967 0.391481 0.198922
H68   H     H_    0.722822 0.355161 0.460479 0.256667
H69   H     H_    0.681743 0.664694 0.303091 0.134363
H70   H     H_    0.737046 0.663702 0.382717 0.120833
H71   H     H_    0.720111 0.596620 0.480510 0.253623
H72   H     H_    0.692508 0.682851 0.447003 0.191623
H73   H     H_    0.665046 0.598200 0.401406 0.262712
H74   H     H_    0.260058 0.350160 0.600872 0.134771
H75   H     H_    0.314170 0.336823 0.683434 0.147178
H76   H     H_    0.338242 0.407776 0.599423 0.262472
H77   H     H_    0.306263 0.330577 0.540627 0.206845
H78   H     H_    0.214725 0.457886 0.601716 0.180346
H79   H     H_    0.284383 0.421871 0.517607 0.244603
H80   H     H_    0.711926 0.889271 0.667609 0.143819
O1    O     O_R   0.500010 0.060620 0.392670 -0.620104
O2    O     O_R   0.438570 0.939380 0.438570 -0.618267
O3    O     O_R   0.438570 0.060620 0.438570 -0.619148
O4    O     O_R   0.561430 0.939380 0.561430 -0.619419
O5    O     O_R   0.061430 0.560620 0.561430 -0.618231
O6    O     O_R   0.938570 0.439380 0.438570 -0.618273
O7    O     O_R   0.938570 0.560620 0.438570 -0.619145
O8    O     O_R   0.061430 0.439380 0.561430 -0.619431
O9    O     O_R   1.000000 0.107140 0.939380 -0.618109
O10   O     O_R   0.000000 0.892860 0.060620 -0.619569
O11   O     O_R   1.000000 0.107140 0.060620 -0.620100
O12   O     O_R   0.499990 0.939380 0.607330 -0.619548
O13   O     O_R   1.000000 0.892860 0.939380 -0.620449
O14   O     O_R   0.500000 0.607140 0.939380 -0.618108
O15   O     O_R   0.500000 0.392860 0.060620 -0.619600
O16   O     O_R   0.500000 0.607140 0.060620 -0.620079
O17   O     O_R   0.500000 0.392860 0.939380 -0.620432
O18   O     O_R   0.938580 0.000000 0.877970 -0.608270
O19   O     O_R   0.061420 0.000000 0.122030 -0.607423
O20   O     O_R   0.438580 0.500000 0.877970 -0.608237
O21   O     O_R   0.561420 0.500000 0.122030 -0.607400
O22   O     O_R   0.938570 0.000000 0.999140 -0.624126
O23   O     O_R   0.499990 0.060620 0.607330 -0.620329
O24   O     O_R   0.061430 0.000000 0.000860 -0.624485
O25   O     O_R   0.438570 0.500000 0.999140 -0.624146
O26   O     O_R   0.561430 0.500000 0.000860 -0.624487
O27   O     O_R   0.534690 0.892630 0.034650 -0.624548
O28   O     O_R   0.465310 0.107370 0.965350 -0.622515
O29   O     O_R   0.465310 0.892630 0.965350 -0.617706
O30   O     O_R   0.534690 0.107370 0.034650 -0.623269
O31   O     O_R   0.034690 0.392630 0.034650 -0.624547
O32   O     O_R   0.965310 0.607370 0.965350 -0.622507
O33   O     O_R   0.965310 0.392630 0.965350 -0.617692
O34   O     O_R   0.500010 0.939380 0.392670 -0.620225
O35   O     O_R   0.034690 0.607370 0.034650 -0.623274
O36   O     O_R   0.534680 0.000000 0.141990 -0.623578
O37   O     O_R   0.465320 0.000000 0.858010 -0.620426
O38   O     O_R   0.034680 0.500000 0.141990 -0.623577
O39   O     O_R   0.965320 0.500000 0.858010 -0.620425
O40   O     O_R   0.465320 0.000000 0.072630 -0.621137
O41   O     O_R   0.534680 0.000000 0.927370 -0.622904
O42   O     O_R   0.965320 0.500000 0.072630 -0.621127
O43   O     O_R   0.034680 0.500000 0.927370 -0.622908
O44   O     O_3   0.794691 0.113548 0.712207 -0.609554
O45   O     O_R   0.000010 0.560620 0.392670 -0.620095
O46   O     O_3   0.210536 0.913923 0.315984 -0.544344
O47   O     O_3   0.210222 0.061087 0.330853 -0.544028
O48   O     O_3   0.792135 0.944263 0.668192 -0.625903
O49   O     O_3   0.294690 0.613153 0.711658 -0.609547
O50   O     O_3   0.710527 0.415029 0.316872 -0.544341
O51   O     O_3   0.710228 0.562365 0.330197 -0.544045
O52   O     O_3   0.292138 0.443664 0.668470 -0.625908
O53   O     O_R   0.999990 0.439380 0.607330 -0.619555
O54   O     O_R   0.999990 0.560620 0.607330 -0.620328
O55   O     O_R   0.000010 0.439380 0.392670 -0.620232
O56   O     O_R   0.561430 0.060620 0.561430 -0.618240
Zn1   Zn    Zn3+2 0.500000 0.080950 0.500000 0.961853
Zn2   Zn    Zn3+2 0.453690 0.000000 0.953700 0.964199
Zn3   Zn    Zn3+2 0.046310 0.500000 0.046300 0.952349
Zn4   Zn    Zn3+2 0.953690 0.500000 0.953700 0.964246
Zn5   Zn    Zn3+2 0.500000 0.919050 0.500000 0.962079
Zn6   Zn    Zn3+2 0.000000 0.580950 0.500000 0.961863
Zn7   Zn    Zn3+2 1.000000 0.419050 0.500000 0.962046
Zn8   Zn    Zn3+2 0.000010 0.000000 0.919080 0.967032
Zn9   Zn    Zn3+2 0.999990 0.000000 0.080920 0.967393
Zn10  Zn    Zn3+2 0.500010 0.500000 0.919080 0.967071
Zn11  Zn    Zn3+2 0.499990 0.500000 0.080920 0.967395
Zn12  Zn    Zn3+2 0.546310 0.000000 0.046300 0.952346

loop_
_geom_bond_atom_site_label_1
_geom_bond_atom_site_label_2
_ccdc_geom_bond_type
C3    C104  S    
O32   Zn4   S    
C60   C79   S    
C95   H39   S    
C16   C21   T    
C29   O19   A    
C91   H22   S    
C87   C91   S    
C6    H75   S    
C35   C53   S    
C27   O18   A    
C24   C42   S    
C90   H19   S    
C63   C80   S    
C70   H17   S    
O3    Zn1   S    
C86   H28   S    
C25   C43   S    
C30   O25   A    
C34   O33   A    
C26   C44   S    
C91   H26   S    
C98   H48   S    
C96   H41   S    
C31   O26   A    
C103  H60   S    
C29   O24   A    
C65   O46   S    
C58   H8    S    
C57   C76   S    
O29   Zn2   S    
O17   Zn10  S    
C31   O21   A    
C50   C80   S    
C34   O31   A    
O23   Zn1   S    
C42   C53   T    
O43   Zn3   S    
O12   Zn5   S    
C33   O28   A    
C3    H68   S    
C29   C73   S    
C89   H18   S    
C10   C94   T    
C82   C87   S    
C2    C77   S    
C99   H50   S    
O11   Zn9   S    
C38   O38   A    
C3    H65   S    
O53   Zn7   S    
O55   Zn7   S    
C9    C79   S    
C56   H23   S    
C47   O8    A    
O22   Zn9   S    
C9    C13   T    
C100  C101  S    
C48   O7    A    
O28   Zn2   S    
C25   O14   A    
C76   C94   S    
O19   Zn9   S    
O42   Zn4   S    
C100  H53   S    
C89   H21   S    
C21   C38   S    
C88   C92   S    
C102  H59   S    
C30   C74   S    
C66   H13   S    
C99   H51   S    
C57   H34   S    
C59   H7    S    
C97   H46   S    
C56   C64   S    
C1    O34   A    
C96   O46   S    
C46   O3    A    
C64   O47   S    
C35   O32   A    
C36   O40   A    
C41   C52   T    
C48   O6    A    
C81   C86   S    
C58   H45   S    
C102  H58   S    
C85   H30   S    
C38   O42   A    
O20   Zn10  S    
C100  H52   S    
C104  O50   S    
O18   Zn8   S    
C93   C95   S    
C4    H70   S    
C6    H74   S    
C8    C78   S    
C5    H71   S    
C36   O36   A    
C12   C47   S    
C68   H15   S    
C2    C11   T    
C92   H24   S    
C55   C65   S    
C57   C63   S    
O37   Zn2   S    
C16   C28   S    
C15   C20   T    
C32   C49   S    
C30   O20   A    
C77   C90   S    
C64   H10   S    
C7    H77   S    
C40   O39   A    
C68   C84   S    
O34   Zn5   S    
C87   H31   S    
C100  O48   S    
C26   O17   A    
C67   O52   S    
C88   H32   S    
C72   C74   T    
C86   C90   S    
C59   C79   S    
C32   O27   A    
C85   C89   S    
C43   C49   T    
O1    Zn1   S    
C97   H44   S    
C61   C73   T    
O16   Zn11  S    
C56   C77   S    
C27   C71   S    
C55   H3    S    
C70   O49   S    
C47   O5    A    
C18   C39   S    
O24   Zn8   S    
C80   C85   S    
O21   Zn11  S    
C68   O51   S    
C64   C81   S    
C104  H64   S    
C39   O54   A    
C59   H56   S    
O14   Zn10  S    
C86   H29   S    
C31   C75   S    
C83   C84   S    
C24   O10   A    
O39   Zn4   S    
C8    C12   T    
C69   O50   S    
C22   C40   S    
C96   C97   S    
O54   Zn6   S    
C10   C45   S    
O6    Zn7   S    
O10   Zn9   S    
O4    Zn5   S    
C45   O4    A    
C50   C71   T    
C46   O2    A    
C26   O15   A    
O8    Zn7   S    
C56   H2    S    
C79   C92   S    
C103  H62   S    
C54   C76   S    
O45   Zn6   S    
C62   C67   S    
C44   C51   T    
O15   Zn11  S    
C59   C69   S    
C24   O13   A    
C5    H73   S    
O41   Zn12  S    
C4    H69   S    
O36   Zn12  S    
C95   H38   S    
O30   Zn12  S    
O27   Zn12  S    
C5    H72   S    
C32   O29   A    
C66   O44   S    
C23   O9    A    
C67   C82   S    
C39   O53   A    
C93   H37   S    
C15   C17   S    
C6    O52   S    
C33   O30   A    
C69   H16   S    
C54   H1    S    
O5    Zn6   S    
C18   C22   T    
C60   H67   S    
C90   H20   S    
C14   C19   T    
C62   C78   S    
C58   C70   S    
C84   C88   S    
C87   H35   S    
C4    C5    S    
C11   C46   S    
C35   O35   A    
C101  H54   S    
C13   C48   S    
O38   Zn3   S    
C3    H66   S    
C103  H61   S    
C6    C7    S    
C54   C66   S    
O40   Zn2   S    
C1    O1    A    
C78   C91   S    
C33   C51   S    
C66   C80   S    
C76   C89   S    
O13   Zn8   S    
C34   C52   S    
C23   C41   S    
C54   H4    S    
C19   C36   S    
C17   O23   A    
C27   O22   A    
C40   O43   A    
C101  H57   S    
C92   H25   S    
C65   H11   S    
C45   O56   A    
C37   O37   A    
C98   H47   S    
C28   O55   A    
C25   O16   A    
C61   C81   S    
C85   H27   S    
C104  H63   S    
C20   C37   S    
C93   O44   S    
C75   C83   T    
C62   H5    S    
O25   Zn11  S    
C97   H43   S    
C55   C77   S    
C99   H49   S    
C37   O41   A    
O56   Zn1   S    
C4    O51   S    
O9    Zn8   S    
O35   Zn3   S    
C7    H76   S    
C7    H79   S    
C57   H80   S    
C102  C103  S    
C70   C82   S    
C67   H14   S    
C88   H33   S    
O33   Zn4   S    
C60   H6    S    
C60   C68   S    
C58   C78   S    
C98   O47   S    
C63   H9    S    
C95   H40   S    
C101  H55   S    
O31   Zn3   S    
C102  O49   S    
C98   C99   S    
C55   H12   S    
C23   O11   A    
C96   H42   S    
C69   C84   S    
O7    Zn6   S    
C93   H36   S    
C65   C81   S    
C17   O12   A    
C1    C14   S    
C62   H78   S    
C28   O45   A    
O26   Zn10  S    
O2    Zn5   S    
C72   C82   S    
C63   O48   S    
