data_mof_unit_34945.cif
_audit_creation_date              2013-03-05T16:45:09-0500
_audit_creation_method            fapswitch 2.2
_symmetry_space_group_name_H-M    P1
_symmetry_Int_Tables_number       1
_space_group_crystal_system       triclinic
_cell_length_a                    14.971153
_cell_length_b                    15.241575
_cell_length_c                    9.898484
_cell_angle_alpha                 89.861101
_cell_angle_beta                  89.151475
_cell_angle_gamma                 90.044395
_cell_volume                      2258.42012703

loop_
_atom_site_label
_atom_site_type_symbol
_atom_site_description
_atom_site_fract_x
_atom_site_fract_y
_atom_site_fract_z
_atom_type_partial_charge
O1    O     O_R   0.408400 0.908380 0.614690 -0.621302
O2    O     O_R   0.408400 0.091620 0.614690 -0.622378
O3    O     O_R   0.908400 0.408380 0.614690 -0.621310
O4    O     O_R   0.908400 0.591620 0.614690 -0.622378
O5    O     O_R   0.408370 0.908370 0.385350 -0.600354
O6    O     O_R   0.408370 0.091630 0.385350 -0.568124
O7    O     O_R   0.908370 0.408370 0.385350 -0.600376
O8    O     O_R   0.908370 0.591630 0.385350 -0.568115
C1    C     C_R   0.382786 0.877164 0.500402 0.915322
C2    C     C_R   0.383150 0.123322 0.500772 0.913768
C3    C     C_R   0.882783 0.377166 0.500400 0.915372
C4    C     C_R   0.883149 0.623321 0.500771 0.913773
Zn1   Zn    Zn3+2 0.500010 0.000000 0.653130 0.955514
Zn2   Zn    Zn3+2 0.000010 0.500000 0.653130 0.955509
Zn3   Zn    Zn3+2 0.499980 0.000000 0.346870 1.008365
Zn4   Zn    Zn3+2 0.999980 0.500000 0.346870 1.008355
O9    O     O_R   0.591610 0.091610 0.614650 -0.627229
O10   O     O_R   0.591610 0.908390 0.614650 -0.623692
O11   O     O_R   0.091610 0.591610 0.614650 -0.627227
O12   O     O_R   0.091610 0.408390 0.614650 -0.623692
O13   O     O_R   0.591590 0.091600 0.385310 -0.625437
O14   O     O_R   0.591590 0.908400 0.385310 -0.629134
O15   O     O_R   0.091590 0.591600 0.385310 -0.625435
O16   O     O_R   0.091590 0.408400 0.385310 -0.629129
C5    C     C_R   0.622934 0.117034 0.499235 0.868833
C6    C     C_R   0.622887 0.883000 0.499451 0.866640
C7    C     C_R   0.122930 0.617038 0.499235 0.868812
C8    C     C_R   0.122888 0.383002 0.499451 0.866656
C9    C     C_R   0.295348 0.234007 0.624624 0.117031
C10   C     C_R   0.298889 0.763333 0.621476 0.098630
C11   C     C_R   0.795340 0.733997 0.624624 0.117032
C12   C     C_R   0.798967 0.263262 0.621448 0.098537
C13   C     C_R   0.330565 0.201845 0.503233 -0.129000
C14   C     C_R   0.329521 0.799444 0.500232 -0.112965
C15   C     C_R   0.830563 0.701842 0.503233 -0.128997
C16   C     C_R   0.829516 0.299447 0.500209 -0.112997
C17   C     C_R   0.316749 0.249844 0.384121 -0.121396
C18   C     C_R   0.309717 0.757485 0.378000 -0.129315
C19   C     C_R   0.816748 0.749842 0.384121 -0.121411
C20   C     C_R   0.809646 0.257551 0.377951 -0.129288
C21   C     C_R   0.750306 0.813358 0.381714 -0.188843
C22   C     C_R   0.744408 0.192993 0.376942 -0.186971
C23   C     C_R   0.250306 0.313359 0.381712 -0.188839
C24   C     C_R   0.244472 0.692930 0.376986 -0.186935
C25   C     C_R   0.700825 0.829731 0.500209 -0.111777
C26   C     C_R   0.700919 0.170463 0.498604 -0.106456
C27   C     C_R   0.200828 0.329735 0.500208 -0.111786
C28   C     C_R   0.200905 0.670478 0.498616 -0.106434
C29   C     C_R   0.730713 0.797022 0.622440 0.122339
C30   C     C_R   0.735433 0.198865 0.620744 0.106699
C31   C     C_R   0.230723 0.297033 0.622439 0.122344
C32   C     C_R   0.235334 0.698958 0.620761 0.106715
C33   C     C_3   0.679607 0.758471 0.738435 -0.430141
C34   C     C_3   0.688055 0.234704 0.742436 -0.415035
C35   C     C_3   0.179631 0.258501 0.738461 -0.430134
C36   C     C_3   0.187868 0.734897 0.742290 -0.415096
C37   C     C_3   0.251730 0.189248 0.742842 -0.454142
C38   C     C_3   0.257516 0.806667 0.741809 -0.440834
C39   C     C_3   0.751709 0.689221 0.742818 -0.454135
C40   C     C_3   0.757656 0.306519 0.741902 -0.440676
H1    H     H_    0.613348 0.732228 0.708979 0.206567
H2    H     H_    0.619656 0.258880 0.720523 0.214632
H3    H     H_    0.113365 0.232259 0.709040 0.206569
H4    H     H_    0.119516 0.759101 0.720173 0.214562
H5    H     H_    0.227040 0.122301 0.718843 0.206664
H6    H     H_    0.229180 0.871977 0.716459 0.205218
H7    H     H_    0.727026 0.622274 0.718793 0.206669
H8    H     H_    0.729244 0.371815 0.716646 0.205213
C41   C     C_R   0.427433 0.970507 0.072648 0.079460
C42   C     C_R   0.927438 0.470493 0.072649 0.079292
N1    N     N_R   0.499140 0.000000 0.142800 -0.104128
N2    N     N_R   0.999140 0.500000 0.142800 -0.104112
C43   C     C_R   0.574457 0.021904 0.070107 -0.061130
C44   C     C_R   0.074450 0.521926 0.070107 -0.061092
C45   C     C_R   0.574340 0.022266 0.926381 -0.090916
C46   C     C_R   0.074332 0.522291 0.926381 -0.090906
N3    N     N_R   0.499160 1.000000 0.857150 -0.088751
N4    N     N_R   0.999160 0.500000 0.857150 -0.088734
C47   C     C_R   0.428614 0.967263 0.930130 0.129556
C48   C     C_R   0.928622 0.467248 0.930130 0.129475
C49   C     C_3   0.335433 0.999550 0.920943 -0.592273
C50   C     C_3   0.835435 0.499514 0.920933 -0.592198
C51   C     C_3   0.334771 0.008342 0.073752 0.513907
C52   C     C_3   0.834768 0.508315 0.073743 0.513938
H9    H     H_    0.334169 0.061807 0.865343 0.218863
H10   H     H_    0.288330 0.950536 0.882834 0.207714
H11   H     H_    0.834153 0.561767 0.865321 0.218856
H12   H     H_    0.788355 0.450478 0.882822 0.207760
H13   H     H_    0.352614 0.234866 0.292016 0.239310
H14   H     H_    0.339117 0.778717 0.282836 0.204846
H15   H     H_    0.852611 0.734862 0.292014 0.239290
H16   H     H_    0.838982 0.278838 0.282773 0.204909
N5    N     N_R   0.329013 0.100829 0.113960 0.195076
O17   O     O_R   0.250578 0.135106 0.136142 -0.380887
O18   O     O_R   0.395443 0.153435 0.086223 -0.446586
N6    N     N_R   0.269818 0.951610 0.144669 0.206210
O19   O     O_R   0.252165 0.873487 0.099162 -0.452846
O20   O     O_R   0.238656 0.973884 0.263148 -0.349484
N7    N     N_R   0.828999 0.600804 0.113940 0.195090
O21   O     O_R   0.895411 0.653424 0.086169 -0.446594
O22   O     O_R   0.750564 0.635064 0.136188 -0.380857
N8    N     N_R   0.769820 0.451585 0.144670 0.206196
O23   O     O_R   0.738731 0.473816 0.263204 -0.349539
O24   O     O_R   0.752046 0.373524 0.099066 -0.452820
H17   H     H_    0.734263 0.844844 0.286896 0.181764
H18   H     H_    0.723813 0.166155 0.281048 0.176369
H19   H     H_    0.234261 0.344842 0.286893 0.181773
H20   H     H_    0.223939 0.666029 0.281105 0.176297
H21   H     H_    0.678865 0.802288 0.828105 0.216130
H22   H     H_    0.692827 0.190304 0.831245 0.203541
H23   H     H_    0.178907 0.302332 0.828115 0.216128
H24   H     H_    0.192514 0.690552 0.831172 0.203671
H25   H     H_    0.292438 0.196031 0.835098 0.243957
H26   H     H_    0.301854 0.803654 0.830776 0.226763
H27   H     H_    0.792405 0.695993 0.835089 0.243959
H28   H     H_    0.802064 0.303513 0.830793 0.226688
H29   H     H_    0.634236 0.040977 0.122611 0.128599
H30   H     H_    0.134223 0.541017 0.122611 0.128601
H31   H     H_    0.634069 0.041378 0.871125 0.133212
H32   H     H_    0.134054 0.541427 0.871126 0.133229

loop_
_geom_bond_atom_site_label_1
_geom_bond_atom_site_label_2
_geom_bond_distance
_ccdc_geom_bond_type
C7    C28   1.422851 S    
C29   C33   1.489622 S    
C8    C27   1.422125 S    
N5    O17   1.301503 A    
C52   N8    1.470223 S    
C15   C19   1.404064 A    
O10   C6    1.286811 A    
O3    C3    1.291680 A    
Zn4   N2    2.020210 S    
C33   C39   1.511309 S    
C19   C21   1.388989 A    
C34   C40   1.510604 S    
C18   C24   1.386056 A    
C30   C34   1.493642 S    
C44   C46   1.422692 A    
Zn1   O10   1.991326 S    
C12   C16   1.390578 A    
C3    C16   1.427486 S    
C46   N4    1.369299 A    
N4    C48   1.364218 A    
C50   H11   1.096125 S    
C46   H32   1.080731 S    
C9    C13   1.395198 A    
C34   H22   1.111249 S    
C22   C26   1.402321 A    
C11   C39   1.494653 S    
C41   N1    1.363658 A    
O2    Zn1   1.997920 S    
O13   C5    1.288281 A    
C6    C25   1.422128 S    
C39   H7    1.112414 S    
O6    Zn3   1.991642 S    
C33   H1    1.112451 S    
C38   H6    1.111938 S    
Zn3   O14   1.997707 S    
N6    O20   1.301635 A    
C36   H4    1.112662 S    
O15   C7    1.288274 A    
O4    C4    1.287693 A    
C42   C52   1.502688 S    
C24   H20   1.083371 S    
C49   H10   1.098238 S    
O8    Zn4   1.991642 S    
C20   C22   1.386026 A    
Zn4   O16   1.997707 S    
C43   C45   1.422695 A    
C11   C29   1.364293 A    
C19   H15   1.076262 S    
C49   C51   1.518707 S    
N3    C47   1.364223 A    
C44   H30   1.081510 S    
Zn1   N3    2.019341 S    
C43   H29   1.081512 S    
C10   C14   1.390566 A    
C42   C48   1.411558 A    
Zn2   O12   1.991326 S    
C16   C20   1.405306 A    
C45   H31   1.080723 S    
C48   C50   1.483600 S    
C47   C49   1.483623 S    
C27   C31   1.387826 A    
O12   C8    1.286810 A    
C34   H2    1.112740 S    
C13   C17   1.404063 A    
C35   H3    1.112445 S    
C17   C23   1.388991 A    
O7    C3    1.286084 A    
O5    C1    1.286104 A    
C41   C51   1.502660 S    
C45   N3    1.369298 A    
C18   H14   1.082491 S    
N7    O21   1.302677 A    
C25   C29   1.387832 A    
O8    C4    1.292807 A    
N6    O19   1.302396 A    
O1    C1    1.291656 A    
C23   H19   1.083305 S    
C20   H16   1.082496 S    
C4    C15   1.433086 S    
N8    O24   1.302225 A    
C22   H18   1.083391 S    
C12   C30   1.366358 A    
O3    Zn2   1.997724 S    
C21   H17   1.083305 S    
N2    C44   1.369258 A    
O7    Zn4   1.988856 S    
N7    O22   1.301496 A    
C9    C37   1.494639 S    
Zn4   O15   1.997511 S    
C50   C52   1.518728 S    
C35   C37   1.511311 S    
C1    C14   1.427484 S    
C11   C15   1.395199 A    
C41   C47   1.411554 A    
O1    Zn1   1.997725 S    
C12   C40   1.490434 S    
O2    C2    1.287694 A    
O11   C7    1.287219 A    
N1    C43   1.369260 A    
C9    C31   1.364290 A    
C33   H21   1.112006 S    
C10   C32   1.366334 A    
C35   H23   1.111998 S    
C14   C18   1.405296 A    
C52   N7    1.467945 S    
Zn2   O11   1.988538 S    
O16   C8    1.288313 A    
C37   H5    1.112401 S    
O6    C2    1.292811 A    
C37   H25   1.110351 S    
C17   H13   1.076248 S    
Zn3   N1    2.020210 S    
C26   C30   1.391678 A    
Zn1   O9    1.988538 S    
O9    C5    1.287222 A    
N5    O18   1.302679 A    
Zn3   O13   1.997511 S    
C50   H12   1.098238 S    
C51   N6    1.470219 S    
C10   C38   1.490388 S    
C36   C38   1.510594 S    
C2    C13   1.433098 S    
C31   C35   1.489606 S    
Zn2   N4    2.019341 S    
O4    Zn2   1.997920 S    
N8    O23   1.301570 A    
O5    Zn3   1.988856 S    
C40   H28   1.111524 S    
C32   C36   1.493525 S    
C28   C32   1.391608 A    
C40   H8    1.111963 S    
C39   H27   1.110355 S    
O14   C6    1.288312 A    
C38   H26   1.111495 S    
C21   C25   1.400976 A    
C42   N2    1.363670 A    
C23   C27   1.400977 A    
C5    C26   1.422875 S    
C36   H24   1.111171 S    
C49   H9    1.096110 S    
C24   C28   1.402298 A    
C51   N5    1.467941 S    
