data_mof_unit_11254.cif
_audit_creation_date              2012-12-10T19:19:30-0500
_audit_creation_method            fapswitch 2.2
_symmetry_space_group_name_H-M    P1
_symmetry_Int_Tables_number       1
_space_group_crystal_system       triclinic
_cell_length_a                    15.70475
_cell_length_b                    15.749369
_cell_length_c                    15.003068
_cell_angle_alpha                 87.487222
_cell_angle_beta                  88.851529
_cell_angle_gamma                 89.50323
_cell_volume                      3706.43176332

loop_
_atom_site_label
_atom_site_type_symbol
_atom_type_description
_atom_site_fract_x
_atom_site_fract_y
_atom_site_fract_z
_atom_type_partial_charge
C1    C     C_R   0.497992 0.337982 0.501900 0.903408
C2    C     C_3   0.083289 0.491002 0.501301 -0.115141
C3    C     C_3   0.968786 0.535008 0.565921 0.218406
C4    C     C_3   0.917034 0.487169 0.497497 -0.118443
C5    C     C_3   0.025353 0.570156 0.488444 0.308817
C6    C     C_3   0.975016 0.521763 0.420545 0.449347
C7    C     C_1   0.173809 0.494333 0.502930 0.100738
C8    C     C_1   0.826289 0.489132 0.496565 0.129549
C9    C     C_3   0.518623 0.041154 0.600051 0.803536
C10   C     C_3   0.525691 0.055679 0.419515 0.754379
C11   C     C_3   0.544289 0.957496 0.429454 0.718442
C12   C     C_R   0.337586 0.499899 0.500848 0.898065
C13   C     C_1   0.488274 0.750982 0.497222 -0.228436
C14   C     C_3   0.477249 0.083544 0.510470 -0.327106
C15   C     C_3   0.503405 0.942185 0.597311 0.257229
C16   C     C_3   0.477207 0.918113 0.501051 -0.308043
C17   C     C_3   0.384278 0.954338 0.486026 0.255469
C18   C     C_3   0.378974 0.052192 0.509793 0.787467
C19   C     C_1   0.480919 0.826079 0.499176 0.115916
C20   C     C_1   0.480543 0.174889 0.509791 0.070917
C21   C     C_1   0.488189 0.249865 0.506393 -0.263479
C22   C     C_3   0.507813 0.408975 0.056389 0.054948
C23   C     C_R   0.497822 0.662266 0.498582 0.897004
C24   C     C_3   0.585765 0.560683 0.044440 0.800073
C25   C     C_3   0.597007 0.537685 0.942499 0.781851
C26   C     C_3   0.507264 0.504551 0.088951 -0.314328
C27   C     C_3   0.496852 0.404456 0.950480 0.902541
C28   C     C_3   0.506281 0.499776 0.909834 -0.346532
C29   C     C_3   0.425667 0.550363 0.947923 0.107840
C30   C     C_3   0.419356 0.545322 0.055090 0.820935
C31   C     C_1   0.501401 0.497650 0.809133 0.197788
C32   C     C_1   0.504812 0.503604 0.190553 0.248865
C33   C     C_R   0.662442 0.498913 0.499162 0.897014
C34   C     C_3   0.974976 0.408304 0.509512 0.383621
C35   C     C_3   0.033293 0.442262 0.431555 -0.461334
C36   C     C_1   0.248919 0.497221 0.502713 -0.188812
C37   C     C_1   0.751132 0.493498 0.497319 -0.183768
C38   C     C_3   0.025496 0.455539 0.578421 0.379336
H1    H     H_    0.063156 0.405225 0.377799 0.167757
H2    H     H_    0.370874 0.953648 0.414139 0.088777
H3    H     H_    0.370298 0.517417 0.921369 0.132324
H4    H     H_    0.451877 0.379136 0.091032 0.133236
H5    H     H_    0.563412 0.906355 0.611962 0.097308
N1    N     N_1   0.498320 0.498630 0.731150 -0.120287
N2    N     N_1   0.501700 0.501360 0.268850 -0.112669
O1    O     O_R   0.500080 0.377210 0.574260 -0.608746
O2    O     O_R   0.499910 0.377070 0.425800 -0.626633
O3    O     O_R   0.376870 0.500060 0.574220 -0.606708
O4    O     O_R   0.376690 0.499920 0.425760 -0.604995
O5    O     O_R   0.500090 0.622930 0.574200 -0.616297
O6    O     O_R   0.499920 0.622790 0.425740 -0.604152
O7    O     O_R   0.623310 0.500080 0.574240 -0.612847
O8    O     O_R   0.623130 0.499940 0.425780 -0.611983
Zn1   Zn    Zn3+2 0.500120 0.500090 0.599130 0.966105
Zn2   Zn    Zn3+2 0.499880 0.499910 0.400870 0.973577
O9    O     O_3   0.602455 0.099199 0.387464 -0.609032
C39   C     C_3   0.663920 0.128770 0.446094 0.182496
H6    H     H_    0.702853 0.075782 0.474708 0.240561
H7    H     H_    0.637025 0.168394 0.498424 0.176037
C40   C     C_3   0.725375 0.186462 0.392977 -0.927224
H8    H     H_    0.691011 0.243692 0.366191 0.262205
H9    H     H_    0.776544 0.207407 0.436897 0.242527
H10   H     H_    0.754810 0.152048 0.336959 0.270381
O10   O     O_3   0.626726 0.948388 0.467974 -0.649208
C41   C     C_3   0.676531 0.879831 0.437490 -0.213971
H11   H     H_    0.704205 0.896286 0.370277 0.204915
H12   H     H_    0.640269 0.819859 0.436304 0.164822
H13   H     H_    0.730151 0.868670 0.483666 0.147038
O11   O     O_3   0.548442 0.922376 0.341818 -0.587939
C42   C     C_3   0.473457 0.892614 0.302701 0.061286
H14   H     H_    0.429673 0.944703 0.281783 0.196233
H15   H     H_    0.438925 0.844474 0.344363 0.135489
C43   C     C_3   0.499214 0.849919 0.217983 -0.817718
H16   H     H_    0.543628 0.796246 0.233330 0.270290
H17   H     H_    0.442025 0.825442 0.185679 0.212811
H18   H     H_    0.530778 0.897315 0.171771 0.256891
O12   O     O_3   0.340940 0.064422 0.596467 -0.573488
C44   C     C_3   0.254622 0.039831 0.608959 0.235925
H19   H     H_    0.252370 0.978572 0.648455 0.218900
H20   H     H_    0.220376 0.032048 0.545776 0.129299
C45   C     C_3   0.207551 0.104120 0.665354 -0.967249
H21   H     H_    0.140389 0.084150 0.676422 0.221218
H22   H     H_    0.238328 0.107503 0.731105 0.278110
H23   H     H_    0.207950 0.168339 0.632085 0.244867
O13   O     O_3   0.332202 0.096376 0.439967 -0.631437
C46   C     C_3   0.291814 0.173896 0.462501 0.154550
H24   H     H_    0.318162 0.203130 0.521782 0.158148
H25   H     H_    0.223005 0.162176 0.475160 0.134535
C47   C     C_3   0.297424 0.238169 0.383860 -0.868211
H26   H     H_    0.272310 0.210251 0.323070 0.254531
H27   H     H_    0.259041 0.295554 0.398935 0.206952
H28   H     H_    0.364191 0.257920 0.371095 0.255905
O14   O     O_3   0.324728 0.902853 0.536010 -0.555771
C48   C     C_3   0.269454 0.860053 0.480335 -0.361168
H29   H     H_    0.305528 0.817045 0.436209 0.168806
H30   H     H_    0.230379 0.906103 0.440022 0.156625
H31   H     H_    0.225473 0.820445 0.522952 0.212289
O15   O     O_3   0.476219 0.070881 0.678733 -0.552520
C49   C     C_3   0.503198 0.150610 0.708029 0.154545
H32   H     H_    0.549215 0.184743 0.662613 0.160599
H33   H     H_    0.535648 0.139699 0.772538 0.112638
C50   C     C_3   0.425565 0.207191 0.723989 -0.790944
H34   H     H_    0.386214 0.179846 0.780299 0.237189
H35   H     H_    0.446081 0.271988 0.739884 0.235336
H36   H     H_    0.385849 0.212696 0.663860 0.271354
O16   O     O_3   0.437202 0.917646 0.659388 -0.507434
C51   C     C_3   0.467600 0.875112 0.737423 0.162323
H37   H     H_    0.532388 0.894743 0.755739 0.094420
H38   H     H_    0.467978 0.805588 0.727772 0.137879
C52   C     C_3   0.408108 0.894587 0.815221 -0.810539
H39   H     H_    0.342094 0.875551 0.800548 0.247586
H40   H     H_    0.429438 0.859368 0.876668 0.204804
H41   H     H_    0.408641 0.963779 0.826700 0.270029
O17   O     O_3   0.563961 0.357412 0.908090 -0.554921
C53   C     C_3   0.560086 0.268083 0.914513 -0.217652
H42   H     H_    0.504233 0.244111 0.880382 0.165673
H43   H     H_    0.563668 0.242509 0.983984 0.173906
H44   H     H_    0.616820 0.242806 0.878999 0.146781
O18   O     O_3   0.941720 0.325508 0.521131 -0.601854
C54   C     C_3   0.008289 0.265511 0.511867 0.118150
H45   H     H_    0.064031 0.280389 0.553150 0.163058
H46   H     H_    0.029109 0.263285 0.440699 0.144323
C55   C     C_3   0.976429 0.177841 0.542282 -0.863582
H47   H     H_    0.922113 0.159724 0.501025 0.260056
H48   H     H_    0.028477 0.130274 0.535102 0.206578
H49   H     H_    0.955411 0.177823 0.613404 0.251471
O19   O     O_3   0.583290 0.364817 0.080948 -0.573885
C56   C     C_3   0.570141 0.303449 0.151526 0.054544
H50   H     H_    0.520979 0.256759 0.134597 0.110721
H51   H     H_    0.550329 0.334240 0.213951 0.151183
C57   C     C_3   0.653348 0.255424 0.167480 -0.856363
H52   H     H_    0.643949 0.204243 0.219541 0.239924
H53   H     H_    0.675928 0.226426 0.105054 0.258403
H54   H     H_    0.702821 0.299144 0.189933 0.244888
O20   O     O_3   0.559585 0.648571 0.042027 -0.586903
C58   C     C_3   0.623536 0.708425 0.060828 0.273363
H55   H     H_    0.684963 0.695309 0.025524 0.187599
H56   H     H_    0.633870 0.706772 0.133994 0.153964
C59   C     C_3   0.595507 0.797964 0.031020 -0.943104
H57   H     H_    0.525888 0.806329 0.041776 0.294847
H58   H     H_    0.630590 0.845054 0.068810 0.217104
H59   H     H_    0.611003 0.811328 0.959498 0.233744
O21   O     O_3   0.666401 0.556003 0.090025 -0.664710
C60   C     C_3   0.697096 0.479940 0.130652 -0.163134
H60   H     H_    0.716757 0.432820 0.081695 0.251668
H61   H     H_    0.655246 0.454609 0.185035 0.170485
H62   H     H_    0.756900 0.495386 0.164291 0.159913
O22   O     O_3   0.659545 0.471390 0.942197 -0.591800
C61   C     C_3   0.707432 0.467022 0.861355 -0.090586
H63   H     H_    0.759474 0.514453 0.859327 0.168242
H64   H     H_    0.667674 0.476060 0.801350 0.158609
H65   H     H_    0.737483 0.403140 0.859104 0.152572
O23   O     O_3   0.635894 0.609485 0.894511 -0.638744
C62   C     C_3   0.588657 0.668357 0.841409 0.145578
H66   H     H_    0.550779 0.711242 0.882877 0.239772
H67   H     H_    0.547852 0.640067 0.792755 0.165998
C63   C     C_3   0.652170 0.722406 0.786429 -0.923208
H68   H     H_    0.693182 0.681003 0.745193 0.280139
H69   H     H_    0.618443 0.768185 0.741123 0.196599
H70   H     H_    0.693250 0.757989 0.830955 0.257210
O24   O     O_3   0.352362 0.491913 0.092846 -0.664386
C64   C     C_3   0.272770 0.493299 0.049057 0.049403
H71   H     H_    0.272317 0.446368 0.996488 0.174862
H72   H     H_    0.255834 0.554975 0.016222 0.118219
C65   C     C_3   0.202681 0.468372 0.116537 -0.856144
H73   H     H_    0.199206 0.514124 0.170711 0.249328
H74   H     H_    0.140290 0.468042 0.083001 0.206147
H75   H     H_    0.215673 0.403825 0.146236 0.257089
O25   O     O_3   0.415017 0.627865 0.092281 -0.533911
C66   C     C_3   0.334514 0.667532 0.096415 -0.176863
H76   H     H_    0.290546 0.632387 0.143086 0.166480
H77   H     H_    0.308015 0.680272 0.029373 0.155933
H78   H     H_    0.342664 0.730674 0.124660 0.144453
O26   O     O_3   0.415020 0.374296 0.924365 -0.658024
C67   C     C_3   0.380512 0.303411 0.974422 -0.425776
H79   H     H_    0.426894 0.264064 0.012357 0.138814
H80   H     H_    0.348548 0.261745 0.927890 0.202808
H81   H     H_    0.331748 0.324064 0.023079 0.191699
O27   O     O_3   0.940871 0.556163 0.340393 -0.605171
C68   C     C_3   0.006459 0.565269 0.275303 -0.322000
H82   H     H_    0.027276 0.502218 0.252037 0.174097
H83   H     H_    0.061803 0.600571 0.299881 0.181536
H84   H     H_    0.981291 0.602279 0.216851 0.183960
O28   O     O_3   0.425645 0.636682 0.916676 -0.578653
C69   C     C_3   0.363362 0.653373 0.851185 -0.385026
H85   H     H_    0.298158 0.640226 0.878164 0.152427
H86   H     H_    0.375902 0.616272 0.791036 0.185685
H87   H     H_    0.365730 0.721415 0.830139 0.199302
O29   O     O_3   0.060086 0.652431 0.477713 -0.618363
C70   C     C_3   0.994527 0.712354 0.460246 0.123187
H88   H     H_    0.939854 0.704415 0.508195 0.170000
H89   H     H_    0.971374 0.707049 0.391277 0.184062
C71   C     C_3   0.029532 0.801341 0.468349 -0.899814
H90   H     H_    0.082855 0.812427 0.419599 0.256678
H91   H     H_    0.978599 0.849190 0.454519 0.214413
H92   H     H_    0.052927 0.809019 0.536886 0.254153
O30   O     O_3   0.926671 0.580908 0.632723 -0.616397
C72   C     C_3   0.986926 0.619001 0.686467 0.120412
H93   H     H_    0.026909 0.665180 0.646675 0.178970
H94   H     H_    0.028858 0.570559 0.719665 0.182116
C73   C     C_3   0.939988 0.666798 0.758646 -0.868346
H95   H     H_    0.900157 0.622150 0.800556 0.260839
H96   H     H_    0.986564 0.697196 0.801676 0.207081
H97   H     H_    0.898390 0.716821 0.727709 0.260763
O31   O     O_3   0.060400 0.421949 0.658583 -0.614110
C74   C     C_3   0.994863 0.388343 0.714799 -0.308239
H98   H     H_    0.970812 0.328042 0.689660 0.200838
H99   H     H_    0.941376 0.434120 0.723704 0.186578
H100  H     H_    0.021475 0.373551 0.781666 0.177928
O32   O     O_3   0.607652 0.057704 0.601801 -0.688465
C75   C     C_3   0.650201 0.024082 0.678139 -0.418799
H101  H     H_    0.684088 0.964431 0.661904 0.193706
H102  H     H_    0.608610 0.012633 0.737834 0.175519
H103  H     H_    0.699207 0.070252 0.696212 0.190728
O33   O     O_3   0.464501 0.066165 0.350427 -0.645995
C76   C     C_3   0.476916 0.136067 0.289398 -0.157164
H104  H     H_    0.525486 0.119155 0.238382 0.178485
H105  H     H_    0.494696 0.194844 0.322626 0.173877
H106  H     H_    0.416547 0.149110 0.254083 0.151119

loop_
_geom_bond_atom_site_label_1
_geom_bond_atom_site_label_2
_ccdc_geom_bond_type
C2    C35   S    
C1    C21   S    
C9    O15   S    
C38   O31   S    
C6    O27   S    
C43   H17   S    
O25   C66   S    
C14   C18   S    
C35   H1    S    
C2    C7    S    
C44   C45   S    
C76   H106  S    
C4    C8    S    
C57   H54   S    
C56   H50   S    
C12   O4    A    
C22   O19   S    
C75   H103  S    
O20   C58   S    
C67   H80   S    
C22   H4    S    
O12   C44   S    
O28   C69   S    
C25   C28   S    
C26   C32   S    
C1    O1    A    
C65   H73   S    
C66   H77   S    
C40   H10   S    
C15   O16   S    
C28   C29   S    
C29   O28   S    
C24   C26   S    
O11   C42   S    
C61   H64   S    
C7    C36   T    
C5    C6    S    
C50   H35   S    
C59   H59   S    
C46   H25   S    
C10   O33   S    
C55   H48   S    
O16   C51   S    
O30   C72   S    
C24   O21   S    
C15   C16   S    
C34   O18   S    
C6    C35   S    
C13   C23   S    
C50   H36   S    
C40   H9    S    
C34   C35   S    
C73   H95   S    
O26   C67   S    
C70   C71   S    
C3    O30   S    
C52   H39   S    
C63   H68   S    
C75   H101  S    
C3    C38   S    
C68   H83   S    
C16   C17   S    
C71   H91   S    
C51   H37   S    
C42   H14   S    
O31   C74   S    
C12   C36   S    
C10   O9    S    
C62   H67   S    
C68   H84   S    
C12   O3    A    
C41   H13   S    
C65   H74   S    
C34   C38   S    
C73   H96   S    
C48   H29   S    
C23   O5    A    
C72   C73   S    
C60   H62   S    
C27   O26   S    
C45   H22   S    
O7    Zn1   S    
C45   H21   S    
C67   H81   S    
C64   H72   S    
O8    Zn2   S    
C43   H16   S    
C33   O8    A    
C39   H7    S    
C4    C34   S    
C18   O13   S    
C31   N1    T    
C13   C19   T    
C25   O23   S    
C14   C20   S    
C55   H47   S    
C24   C25   S    
C62   C63   S    
C4    C6    S    
C11   O10   S    
C10   C14   S    
C61   H65   S    
C44   H19   S    
C1    O2    A    
C69   H87   S    
C48   H31   S    
C41   H12   S    
O13   C46   S    
C33   C37   S    
C55   H49   S    
C40   H8    S    
C33   O7    A    
C17   H2    S    
C58   C59   S    
O3    Zn1   S    
C9    C14   S    
C30   O25   S    
C29   C30   S    
C64   C65   S    
C11   C16   S    
C2    C38   S    
C23   O6    A    
C67   H79   S    
C9    O32   S    
C59   H57   S    
C53   H44   S    
O1    Zn1   S    
C42   C43   S    
C11   O11   S    
C17   C18   S    
C39   H6    S    
O14   C48   S    
O5    Zn1   S    
C76   H104  S    
C47   H28   S    
C48   H30   S    
C52   H41   S    
C62   H66   S    
C72   H93   S    
C46   H24   S    
C24   O20   S    
C60   H61   S    
C49   H33   S    
C57   H52   S    
O15   C49   S    
C63   H70   S    
C22   C27   S    
C22   C26   S    
C73   H97   S    
C75   H102  S    
C2    C5    S    
C17   O14   S    
C8    C37   T    
C3    C4    S    
C56   C57   S    
C3    C5    S    
C45   H23   S    
C54   H45   S    
C54   H46   S    
C58   H56   S    
O2    Zn2   S    
C64   H71   S    
O29   C70   S    
O9    C39   S    
C53   H43   S    
C70   H89   S    
C29   H3    S    
C74   H98   S    
C28   C31   S    
C76   H105  S    
C58   H55   S    
C57   H53   S    
C46   C47   S    
C56   H51   S    
C72   H94   S    
O18   C54   S    
C54   C55   S    
C26   C30   S    
O17   C53   S    
C65   H75   S    
C49   H32   S    
C51   C52   S    
O10   C41   S    
O21   C60   S    
C9    C15   S    
C15   H5    S    
C41   H11   S    
O4    Zn2   S    
C61   H63   S    
C71   H92   S    
C59   H58   S    
C74   H100  S    
C69   H85   S    
C51   H38   S    
O24   C64   S    
C18   O12   S    
C47   H27   S    
C43   H18   S    
C25   O22   S    
C44   H20   S    
O22   C61   S    
O32   C75   S    
O33   C76   S    
C50   H34   S    
C32   N2    T    
C52   H40   S    
C70   H88   S    
C69   H86   S    
C10   C11   S    
C5    O29   S    
O27   C68   S    
C27   O17   S    
N1    Zn1   S    
C60   H60   S    
C39   C40   S    
C49   C50   S    
C20   C21   T    
N2    Zn2   S    
C63   H69   S    
C71   H90   S    
C66   H76   S    
C27   C28   S    
O6    Zn2   S    
C42   H15   S    
C30   O24   S    
C53   H42   S    
C47   H26   S    
C74   H99   S    
C68   H82   S    
O19   C56   S    
O23   C62   S    
C66   H78   S    
C16   C19   S    
