data_mof_unit_43686.cif
_audit_creation_date              2012-12-11T14:17:39-0500
_audit_creation_method            fapswitch 2.2
_symmetry_space_group_name_H-M    P1
_symmetry_Int_Tables_number       1
_space_group_crystal_system       triclinic
_cell_length_a                    6.947819
_cell_length_b                    13.657694
_cell_length_c                    20.396382
_cell_angle_alpha                 102.241846
_cell_angle_beta                  89.874068
_cell_angle_gamma                 90.767268
_cell_volume                      1891.25754409

loop_
_atom_site_label
_atom_site_type_symbol
_atom_type_description
_atom_site_fract_x
_atom_site_fract_y
_atom_site_fract_z
_atom_type_partial_charge
O1    O     O_R   0.506860 0.599390 0.449240 -0.537489
O2    O     O_R   0.180220 0.594600 0.586780 -0.537531
O3    O     O_R   0.004500 0.400610 0.550760 -0.544600
C1    C     C_R   0.348905 0.614217 0.614080 0.757353
O4    O     O_R   0.177490 0.611290 0.451970 -0.537098
O5    O     O_R   0.001750 0.417420 0.414990 -0.543995
C2    C     C_R   0.347009 0.637750 0.435152 0.713262
O6    O     O_R   0.509610 0.582580 0.585010 -0.533763
O7    O     O_3   0.337420 0.436370 0.488020 -0.383859
V1    V     V_3+5 0.064680 0.511800 0.502220 1.482346
O8    O     O_R   0.671710 0.405400 0.413220 -0.551049
C3    C     C_R   0.839790 0.384054 0.386543 0.729258
O9    O     O_R   0.674440 0.388710 0.548030 -0.544757
C4    C     C_R   0.842018 0.362735 0.565168 0.689458
V2    V     V_3+5 0.564010 0.488200 0.497780 1.456352
O10   O     O_3   0.841140 0.563630 0.511980 -0.356940
C5    C     C_R   0.789294 0.113238 0.611293 -0.062649
H1    H     H_    0.779093 0.165860 0.519693 0.109945
H2    H     H_    0.755564 0.038070 0.584472 0.199073
C6    C     C_R   0.844720 0.285018 0.604356 -0.032149
C7    C     C_R   0.888499 0.314409 0.927599 -0.262628
C8    C     C_R   0.892375 0.390619 0.891803 0.537543
C9    C     C_R   0.878890 0.366982 0.821867 -0.213905
C10   C     C_R   0.859272 0.266345 0.785930 0.006614
C11   C     C_R   0.847580 0.189652 0.823323 0.013306
C12   C     C_R   0.847849 0.239797 0.714326 0.052750
C13   C     C_R   0.813725 0.137701 0.681647 0.012076
C14   C     C_R   0.802913 0.062744 0.719832 0.404329
C15   C     C_R   0.819768 0.089595 0.789535 -0.277959
C16   C     C_R   0.868383 0.311718 0.673826 -0.175349
C17   C     C_R   0.802645 0.186313 0.573404 -0.205555
C18   C     C_R   0.865459 0.214505 0.894253 -0.121415
H3    H     H_    0.899784 0.389578 0.694443 0.098780
H4    H     H_    0.902590 0.332605 0.981731 0.160901
H5    H     H_    0.881263 0.429500 0.797431 0.154347
H6    H     H_    0.808761 0.031245 0.817817 0.145292
C19   C     C_2   0.005499 0.288792 0.285037 -0.131621
C20   C     C_2   0.842262 0.315601 0.319769 -0.305226
H7    H     H_    0.142632 0.317486 0.307016 0.132246
H8    H     H_    0.703648 0.287328 0.299500 0.125600
C21   C     C_2   0.013849 0.220601 0.217422 -0.129321
C22   C     C_2   0.858668 0.183442 0.180323 -0.296752
H9    H     H_    0.156649 0.201150 0.197484 0.131199
H10   H     H_    0.714583 0.202136 0.198640 0.125397
C23   C     C_2   0.208027 0.766013 0.791029 -0.119661
C24   C     C_2   0.364113 0.816101 0.819861 -0.251674
H11   H     H_    0.073512 0.772928 0.818745 0.160896
H12   H     H_    0.500906 0.807785 0.794301 0.195482
C25   C     C_2   0.204909 0.702552 0.721696 -0.075992
C26   C     C_2   0.361254 0.678457 0.682250 -0.235739
H13   H     H_    0.064595 0.673766 0.702873 0.159375
H14   H     H_    0.504136 0.702658 0.700284 0.178677
C27   C     C_R   0.381320 0.888153 0.387670 -0.156587
H15   H     H_    0.378812 0.837941 0.480471 0.152223
H16   H     H_    0.392634 0.013399 0.304724 0.122028
H17   H     H_    0.393041 0.966295 0.412864 0.120488
C28   C     C_R   0.357844 0.714416 0.395029 -0.043585
C29   C     C_R   0.343205 0.684827 0.070871 -0.120362
C30   C     C_R   0.334927 0.608745 0.106453 -0.070805
C31   C     C_R   0.339305 0.631279 0.176356 -0.174634
C32   C     C_R   0.352607 0.731804 0.212808 0.077411
C33   C     C_R   0.360761 0.809523 0.175864 0.065425
C34   C     C_R   0.358868 0.757803 0.284504 0.079549
C35   C     C_R   0.373948 0.860499 0.317349 0.135597
C36   C     C_R   0.381458 0.935026 0.279966 -0.199322
C37   C     C_R   0.374743 0.910172 0.210427 -0.189884
C38   C     C_R   0.350690 0.685624 0.325035 -0.216468
C39   C     C_R   0.373369 0.815458 0.426260 -0.136882
C40   C     C_R   0.355526 0.784879 0.104801 -0.107537
H18   H     H_    0.338197 0.606459 0.304098 0.094102
H19   H     H_    0.340395 0.665661 0.016539 0.183305
H20   H     H_    0.332662 0.568084 0.200129 0.114048
H21   H     H_    0.325212 0.531426 0.079608 0.163141
H22   H     H_    0.381054 0.970951 0.183927 0.113507
O11   O     O_R   0.203230 0.917310 0.915020 -0.540710
O12   O     O_R   0.535500 0.888690 0.048040 -0.536829
O13   O     O_R   0.711080 0.082610 0.085000 -0.548616
C41   C     C_R   0.366066 0.862205 0.064855 0.703173
O14   O     O_R   0.532630 0.905370 0.913230 -0.536338
O15   O     O_R   0.708190 0.099410 0.949230 -0.540171
C42   C     C_R   0.364267 0.883019 0.886995 0.760073
O16   O     O_R   0.206120 0.900510 0.050790 -0.538907
O17   O     O_3   0.375360 0.063570 0.011990 -0.379549
V3    V     V_3+5 0.648170 0.988200 0.997780 1.480268
O18   O     O_R   0.038240 0.111390 0.951940 -0.541767
C43   C     C_R   0.870420 0.137254 0.934555 0.713543
O19   O     O_R   0.041120 0.094710 0.086750 -0.545752
C44   C     C_R   0.872516 0.115747 0.113510 0.734517
V4    V     V_3+5 0.148810 0.011930 0.002180 1.455963
O20   O     O_3   0.871750 0.936430 0.988010 -0.363874
S1    S     S_3+6 0.771824 0.933620 0.682308 -0.024883
O21   O     O_2   0.573771 0.916610 0.652232 -0.322443
O22   O     O_2   0.918776 0.902370 0.627922 -0.333258
O23   O     O_3   0.796740 0.862257 0.739194 -0.525216
H23   H     H_    0.928326 0.878064 0.756890 0.324274
S2    S     S_3+6 0.914815 0.516933 0.934114 -0.023475
O24   O     O_2   0.099211 0.559914 0.912890 -0.342214
O25   O     O_2   0.748289 0.574478 0.915215 -0.332953
O26   O     O_3   0.916360 0.526497 0.017705 -0.524099
H24   H     H_    0.918315 0.599454 0.037018 0.361303

loop_
_geom_bond_atom_site_label_1
_geom_bond_atom_site_label_2
_ccdc_geom_bond_type
O19   C44   A    
C21   C22   D    
O15   V3    S    
O12   V3    S    
C6    C16   A    
O18   C43   A    
C15   H6    S    
C12   C13   A    
O16   V4    S    
C22   H10   S    
C14   C15   A    
O12   C41   A    
O5    C3    A    
O14   V3    S    
C27   C35   A    
C29   H19   S    
H15   C39   S    
C31   H20   S    
V2    O10   S    
C37   H22   S    
S2    O26   S    
C32   C34   A    
C27   C39   A    
O15   C43   A    
O8    V2    S    
O17   V3    S    
O13   C44   A    
C25   H13   S    
S2    O25   D    
C26   H14   S    
C9    C10   A    
O1    V2    S    
O7    V1    S    
C30   H21   S    
C1    O6    A    
C11   C18   A    
C30   C31   A    
O9    C4    A    
C3    C20   S    
C21   H9    S    
C40   C41   S    
O23   H23   S    
V3    O20   S    
C28   C38   A    
H16   C36   S    
C34   C38   A    
C23   H11   S    
C11   C15   A    
O17   V4    S    
C7    C18   A    
C24   H12   S    
C33   C37   A    
C5    C13   A    
C4    C6    S    
C10   C11   A    
S1    O21   D    
O4    C2    A    
O18   V4    S    
O11   C42   A    
C7    H4    S    
O13   V3    S    
C29   C30   A    
C23   C24   D    
C33   C40   A    
C1    C26   S    
C31   C32   A    
O2    C1    A    
C19   C20   D    
S1    O22   D    
C24   C42   S    
C41   O16   A    
O26   H24   S    
C23   C25   S    
C18   C43   S    
S2    O24   D    
O3    C4    A    
C12   C16   A    
O6    V2    S    
C9    H5    S    
O9    V2    S    
C5    C17   A    
C22   C44   S    
C28   C39   A    
O2    V1    S    
O14   C42   A    
C27   H17   S    
C16   H3    S    
O1    C2    A    
C8    S2    S    
C10   C12   A    
O5    V1    S    
O8    C3    A    
C29   C40   A    
C38   H18   S    
C35   C36   A    
O19   V4    S    
O7    V2    S    
O4    V1    S    
C19   H7    S    
O3    V1    S    
V1    O10   S    
S1    O23   S    
C20   H8    S    
C5    H2    S    
C14   S1    S    
C36   C37   A    
C19   C21   S    
C32   C33   A    
O11   V4    S    
C34   C35   A    
C25   C26   D    
C13   C14   A    
C8    C9    A    
H1    C17   S    
V4    O20   S    
C7    C8    A    
C2    C28   S    
C6    C17   A    
