data_mof_unit_36893.cif
_audit_creation_date              2012-12-10T16:48:42-0500
_audit_creation_method            fapswitch 2.2
_symmetry_space_group_name_H-M    P1
_symmetry_Int_Tables_number       1
_space_group_crystal_system       triclinic
_cell_length_a                    7.871144
_cell_length_b                    8.622555
_cell_length_c                    10.75637
_cell_angle_alpha                 89.267767
_cell_angle_beta                  100.419631
_cell_angle_gamma                 92.27839
_cell_volume                      717.410391064

loop_
_atom_site_label
_atom_site_type_symbol
_atom_type_description
_atom_site_fract_x
_atom_site_fract_y
_atom_site_fract_z
_atom_type_partial_charge
C1    C     C_R   0.541842 0.793436 0.495012 0.915986
C2    C     C_R   0.458157 0.206564 0.504988 0.915978
C3    C     C_R   0.573169 0.483563 0.736063 0.925398
C4    C     C_R   0.426831 0.516437 0.263937 0.925398
C5    C     C_2   0.618889 0.462397 0.873178 -0.221322
C6    C     C_2   0.381112 0.537606 0.126822 -0.221315
C7    C     C_2   0.490628 0.458155 0.939569 -0.137964
C8    C     C_2   0.509375 0.541846 0.060434 -0.137963
C9    C     C_2   0.550465 0.954198 0.472752 -0.229674
C10   C     C_2   0.449535 0.045801 0.527247 -0.229673
N1    N     N_2   0.940600 0.458860 0.467170 -0.177506
N2    N     N_2   0.059400 0.541140 0.532830 -0.177522
O1    O     O_R   0.391630 0.738350 0.508060 -0.621664
O2    O     O_R   0.608370 0.261650 0.491940 -0.621660
O3    O     O_R   0.674540 0.711990 0.487010 -0.579376
O4    O     O_R   0.325460 0.288010 0.512990 -0.579387
O5    O     O_R   0.411370 0.508250 0.688780 -0.662624
O6    O     O_R   0.588630 0.491750 0.311220 -0.662614
O7    O     O_R   0.694270 0.481880 0.667740 -0.572714
O8    O     O_R   0.305730 0.518120 0.332260 -0.572735
Zn1   Zn    Zn3+2 0.311100 0.517600 0.514050 1.004388
Zn2   Zn    Zn3+2 0.688900 0.482400 0.485950 1.004401
C11   C     C_1   0.652927 0.653118 0.098087 0.204563
N3    N     N_1   0.765648 0.742915 0.127953 -0.124779
C12   C     C_1   0.347067 0.346892 0.901911 0.204582
N4    N     N_1   0.234341 0.257102 0.872041 -0.124784
C13   C     C_2   0.204476 0.577379 0.063563 0.452822
H1    H     H_    0.175642 0.594515 0.962010 0.110101
O9    O     O_2   0.092300 0.601533 0.124526 -0.592996
C14   C     C_2   0.795535 0.422653 0.936439 0.452836
H2    H     H_    0.824372 0.405525 0.037991 0.110094
O10   O     O_2   0.907718 0.398514 0.875478 -0.593006
C15   C     C_1   0.643789 0.004651 0.373082 0.257518
N5    N     N_1   0.717633 0.044541 0.293787 -0.144278
C16   C     C_1   0.356200 0.995349 0.626911 0.257520
N6    N     N_1   0.282347 0.955458 0.706199 -0.144293
C17   C     C_2   0.970057 0.409765 0.348561 0.710835
H3    H     H_    0.913455 0.471840 0.264402 0.053671
O11   O     O_2   0.042227 0.289168 0.338909 -0.570383
C18   C     C_2   0.029947 0.590236 0.651440 0.710849
H4    H     H_    0.086583 0.528182 0.735601 0.053669
O12   O     O_2   0.957747 0.710817 0.661090 -0.570375

loop_
_geom_bond_atom_site_label_1
_geom_bond_atom_site_label_2
_ccdc_geom_bond_type
N2    C18   S    
C9    C15   S    
C11   N3    T    
N1    C17   S    
C3    O7    A    
O4    Zn1   S    
C1    O3    A    
C13   O9    D    
C2    O4    A    
C9    C10   D    
N1    Zn2   S    
C16   N6    T    
C7    C12   S    
N1    N2    D    
C4    O6    A    
O2    Zn2   S    
C18   O12   D    
C15   N5    T    
O1    Zn1   S    
C7    C8    S    
C17   O11   D    
C14   O10   D    
C17   H3    S    
C18   H4    S    
C3    O5    A    
C14   H2    S    
C2    O2    A    
C10   C16   S    
C1    O1    A    
C4    O8    A    
C8    C11   S    
C1    C9    S    
O8    Zn1   S    
C4    C6    S    
O7    Zn2   S    
C5    C14   S    
C13   H1    S    
C5    C7    D    
C6    C8    D    
C12   N4    T    
O6    Zn2   S    
N2    Zn1   S    
O3    Zn2   S    
O5    Zn1   S    
C6    C13   S    
C3    C5    S    
C2    C10   S    
