data_mof_unit_40214.cif
_audit_creation_date              2013-03-05T15:41:23-0500
_audit_creation_method            fapswitch 2.2
_symmetry_space_group_name_H-M    P1
_symmetry_Int_Tables_number       1
_space_group_crystal_system       triclinic
_cell_length_a                    7.765232
_cell_length_b                    8.571303
_cell_length_c                    10.611066
_cell_angle_alpha                 91.283538
_cell_angle_beta                  85.121855
_cell_angle_gamma                 93.82197
_cell_volume                      702.030327364

loop_
_atom_site_label
_atom_site_type_symbol
_atom_site_description
_atom_site_fract_x
_atom_site_fract_y
_atom_site_fract_z
_atom_type_partial_charge
O1    O     O_R   0.389250 0.738570 0.508370 -0.563469
O2    O     O_R   0.678390 0.711620 0.486510 -0.612591
C1    C     C_R   0.545289 0.794247 0.489569 0.988905
O3    O     O_R   0.355430 0.513500 0.696140 -0.636467
O4    O     O_R   0.644580 0.486550 0.674270 -0.634566
C2    C     C_R   0.500508 0.500248 0.742354 0.821359
Zn1   Zn    Zn3+2 0.306940 0.517990 0.514600 0.998511
Zn2   Zn    Zn3+2 0.693060 0.482010 0.485400 0.963573
O5    O     O_R   0.321610 0.288380 0.513490 -0.584498
O6    O     O_R   0.610750 0.261430 0.491630 -0.627745
O7    O     O_R   0.355420 0.513450 0.325730 -0.617494
O8    O     O_R   0.644570 0.486500 0.303860 -0.631490
C3    C     C_R   0.453834 0.205180 0.496863 0.849216
C4    C     C_R   0.498763 0.499933 0.257835 0.838826
C5    C     C_3   0.312279 0.518361 0.940836 -0.393312
H1    H     H_    0.222791 0.420461 0.910112 0.182501
H2    H     H_    0.262510 0.629826 0.911531 0.180950
C6    C     C_3   0.311063 0.518316 0.083871 -0.388288
H3    H     H_    0.261157 0.629730 0.123365 0.213698
H4    H     H_    0.221471 0.420336 0.121918 0.177714
H5    H     H_    0.478849 0.243891 0.888771 0.160954
H6    H     H_    0.476302 0.243647 0.104170 0.174315
C7    C     C_3   0.563740 0.344078 0.921171 -0.401925
C8    C     C_3   0.619518 0.638543 0.923193 -0.416484
C9    C     C_3   0.499472 0.500276 0.878961 0.185943
H7    H     H_    0.754495 0.628371 0.880624 0.178768
H8    H     H_    0.574979 0.751322 0.892246 0.161153
C10   C     C_3   0.497142 0.500259 0.121711 0.170766
C11   C     C_3   0.562084 0.343871 0.065855 -0.404820
C12   C     C_3   0.617893 0.638814 0.067886 -0.382445
H9    H     H_    0.572367 0.751644 0.107661 0.182502
H10   H     H_    0.752393 0.629381 0.094558 0.186419
H11   H     H_    0.697625 0.328261 0.878540 0.183236
H12   H     H_    0.695248 0.327413 0.092483 0.184860
C13   C     C_2   0.567566 0.957933 0.483170 -0.502509
H13   H     H_    0.693393 0.009058 0.505999 0.197452
C14   C     C_2   0.430161 0.042952 0.471695 0.121424
N1    N     N_2   0.950330 0.457950 0.465890 -0.158765
H14   H     H_    0.014124 0.382235 0.404528 0.206452
N2    N     N_2   0.049670 0.542050 0.534110 -0.153837
H15   H     H_    0.985909 0.617829 0.595427 0.197100
N3    N     N_R   0.271281 0.981252 0.422276 0.229153
O9    O     O_R   0.122260 0.022155 0.473231 -0.405624
O10   O     O_R   0.276827 0.899707 0.317169 -0.419420

loop_
_geom_bond_atom_site_label_1
_geom_bond_atom_site_label_2
_geom_bond_distance
_ccdc_geom_bond_type
C5    C6    1.516990 S    
N1    N2    1.279121 D    
Zn1   N2    2.014723 S    
N3    O10   1.301999 A    
C5    H2    1.114369 S    
H6    C11   1.113676 S    
O4    Zn2   2.007447 S    
C3    C14   1.412889 S    
C13   H13   1.088026 S    
C8    H8    1.113556 S    
C1    C13   1.404580 S    
Zn2   O8    1.995654 S    
C10   C12   1.551339 S    
O2    C1    1.289078 A    
Zn1   O7    2.007446 S    
N1    H14   1.029367 S    
Zn2   N1    2.014723 S    
O3    Zn1   1.995655 S    
O4    C2    1.289794 A    
C7    C11   1.534253 S    
O3    C2    1.279074 A    
N2    H15   1.029323 S    
C13   C14   1.346869 D    
C8    H7    1.113603 S    
C6    H4    1.114369 S    
C7    C9    1.547924 S    
H5    C7    1.113558 S    
C12   H9    1.113688 S    
O7    C4    1.283937 A    
C8    C12   1.534279 S    
C5    C9    1.559236 S    
C2    C9    1.448875 S    
N3    O9    1.301352 A    
C5    H1    1.114385 S    
C12   H10   1.113556 S    
C6    C10   1.550588 S    
C8    C9    1.547902 S    
C7    H11   1.113517 S    
Zn2   O6    1.955707 S    
C6    H3    1.114249 S    
C14   N3    1.444782 S    
Zn1   O5    1.978632 S    
O5    C3    1.286492 A    
C10   C11   1.551154 S    
C4    C10   1.445611 S    
O1    Zn1   1.955709 S    
C11   H12   1.113511 S    
O2    Zn2   1.978632 S    
O8    C4    1.283600 A    
O1    C1    1.273493 A    
O6    C3    1.277351 A    
