data_mof_unit_19482.cif
_audit_creation_date              2012-12-10T18:50:00-0500
_audit_creation_method            fapswitch 2.2
_symmetry_space_group_name_H-M    P1
_symmetry_Int_Tables_number       1
_space_group_crystal_system       triclinic
_cell_length_a                    10.618371
_cell_length_b                    10.033064
_cell_length_c                    10.830978
_cell_angle_alpha                 89.052526
_cell_angle_beta                  93.810856
_cell_angle_gamma                 88.69749
_cell_volume                      1150.83882429

loop_
_atom_site_label
_atom_site_type_symbol
_atom_type_description
_atom_site_fract_x
_atom_site_fract_y
_atom_site_fract_z
_atom_type_partial_charge
C1    C     C_R   0.260573 0.501419 0.501823 0.814722
C2    C     C_R   0.600186 0.924383 0.552228 0.094477
C3    C     C_R   0.397207 0.933250 0.449942 0.140560
C4    C     C_R   0.399653 0.076296 0.444361 0.141319
C5    C     C_R   0.501887 0.500124 0.257852 0.869586
C6    C     C_R   0.739168 0.498806 0.500833 0.862623
C7    C     C_R   0.500056 0.498351 0.741434 0.844079
C8    C     C_3   0.367535 0.552991 0.061513 -0.119806
C9    C     C_3   0.529843 0.350232 0.073524 -0.087393
C10   C     C_3   0.363559 0.560086 0.915113 0.244529
C11   C     C_3   0.511731 0.340482 0.930032 0.237423
C12   C     C_3   0.608245 0.577790 0.932684 -0.482152
C13   C     C_3   0.606540 0.593353 0.075277 0.187576
C14   C     C_3   0.500122 0.498128 0.119981 0.011343
C15   C     C_3   0.495435 0.493741 0.876913 0.023160
C16   C     C_3   0.277134 0.868177 0.401538 -0.304523
C17   C     C_3   0.287833 0.804978 0.275556 -0.853193
C18   C     C_3   0.301907 0.151861 0.357492 -0.347822
C19   C     C_3   0.170671 0.176947 0.406280 -0.865692
C20   C     C_3   0.324653 0.706472 0.863279 -0.375750
C21   C     C_3   0.394596 0.833070 0.900120 -0.863594
C22   C     C_3   0.623306 0.248669 0.885183 -0.335602
C23   C     C_R   0.071647 0.412372 0.582202 -0.213676
C24   C     C_3   0.753686 0.303821 0.867218 -0.949548
C25   C     C_R   0.056194 0.594085 0.429300 -0.244715
C26   C     C_R   0.942351 0.407323 0.577972 -0.209144
C27   C     C_R   0.927351 0.591592 0.427548 -0.179767
C28   C     C_R   0.871546 0.497628 0.501131 0.008823
C29   C     C_R   0.127782 0.504585 0.506375 -0.002496
C30   C     C_R   0.601010 0.067938 0.550707 0.078323
H1    H     H_    0.355863 0.655627 0.093887 0.174528
H2    H     H_    0.285261 0.695626 0.284380 0.267110
H3    H     H_    0.206529 0.836532 0.210838 0.207692
H4    H     H_    0.235707 0.811045 0.474590 0.205141
H5    H     H_    0.196933 0.936331 0.388495 0.184109
H6    H     H_    0.172599 0.160827 0.508007 0.262257
H7    H     H_    0.137153 0.279362 0.380153 0.267101
H8    H     H_    0.097086 0.115136 0.359744 0.221781
H9    H     H_    0.337509 0.248202 0.332242 0.267956
H10   H     H_    0.290593 0.099118 0.268207 0.178595
H11   H     H_    0.269682 0.469683 0.203030 0.162134
H12   H     H_    0.630340 0.329366 0.101372 0.164151
H13   H     H_    0.178543 0.535191 0.087985 0.174577
H14   H     H_    0.487803 0.149144 0.099777 0.185374
H15   H     H_    0.368628 0.257125 0.131964 0.205328
H16   H     H_    0.170375 0.516941 0.882495 0.182424
H17   H     H_    0.259190 0.480540 0.765742 0.151506
H18   H     H_    0.372102 0.260305 0.801947 0.212418
H19   H     H_    0.319952 0.276194 0.945398 0.223734
H20   H     H_    0.396078 0.850226 0.000627 0.259913
H21   H     H_    0.488433 0.839214 0.863102 0.259200
H22   H     H_    0.340323 0.919645 0.856717 0.230711
H23   H     H_    0.610163 0.675190 0.885179 0.192720
H24   H     H_    0.312707 0.706565 0.760776 0.226357
H25   H     H_    0.227329 0.727456 0.891419 0.179073
H26   H     H_    0.749600 0.377445 0.789539 0.266001
H27   H     H_    0.796948 0.343829 0.953622 0.246009
H28   H     H_    0.818164 0.221375 0.842657 0.240175
H29   H     H_    0.638172 0.162061 0.950372 0.180749
H30   H     H_    0.592409 0.200351 0.797478 0.243181
H31   H     H_    0.608422 0.756109 0.193143 0.219578
H32   H     H_    0.633545 0.796476 0.050691 0.162106
H33   H     H_    0.795137 0.633048 0.117877 0.171695
H34   H     H_    0.700244 0.538157 0.909631 0.167299
H35   H     H_    0.770950 0.471402 0.107620 0.163737
H36   H     H_    0.783319 0.113013 0.536589 0.171154
H37   H     H_    0.740824 0.096544 0.682832 0.145986
H38   H     H_    0.710862 0.871997 0.705618 0.145797
H39   H     H_    0.786733 0.874808 0.571993 0.163399
H40   H     H_    0.127592 0.342730 0.641803 0.144178
H41   H     H_    0.098568 0.662717 0.367971 0.149425
H42   H     H_    0.898047 0.335044 0.635168 0.151744
H43   H     H_    0.871274 0.660926 0.367521 0.148223
H44   H     H_    0.375249 0.835573 0.233100 0.260152
N1    N     N_R   0.499970 0.857200 0.499970 -0.100719
N2    N     N_3   0.703485 0.848770 0.611746 -0.394770
N3    N     N_R   0.499970 0.142800 0.499970 -0.113844
N4    N     N_3   0.261449 0.478052 0.106634 -0.477197
N5    N     N_3   0.465899 0.242036 0.136305 -0.448473
N6    N     N_3   0.259149 0.479383 0.862076 -0.491047
N7    N     N_3   0.399303 0.259286 0.896194 -0.498130
N8    N     N_3   0.578115 0.734353 0.102194 -0.463495
N9    N     N_3   0.731329 0.559185 0.138431 -0.490501
N10   N     N_3   0.711757 0.135025 0.595359 -0.405319
O1    O     O_R   0.316750 0.614620 0.499990 -0.633278
O2    O     O_R   0.316750 0.385380 0.499990 -0.618937
O3    O     O_R   0.499970 0.614670 0.314790 -0.622119
O4    O     O_R   0.499970 0.385330 0.314790 -0.616688
O5    O     O_R   0.683220 0.614710 0.500010 -0.596139
O6    O     O_R   0.683220 0.385290 0.500010 -0.591959
O7    O     O_R   0.500010 0.614660 0.685200 -0.611110
O8    O     O_R   0.500010 0.385340 0.685200 -0.623157
Zn1   Zn    Zn3+2 0.499980 0.653120 0.500000 0.942400
Zn2   Zn    Zn3+2 0.499980 0.346880 0.500000 0.944330

loop_
_geom_bond_atom_site_label_1
_geom_bond_atom_site_label_2
_ccdc_geom_bond_type
C26   H42   S    
O1    Zn1   S    
C18   H9    S    
C11   N7    S    
H13   N4    S    
C9    H12   S    
C23   C29   A    
H31   N8    S    
C16   H5    S    
C22   H30   S    
C12   H34   S    
H35   N9    S    
C30   N10   S    
N3    Zn2   S    
H18   N7    S    
H39   N2    S    
C18   C19   S    
C9    N5    S    
C23   C26   A    
H19   N7    S    
C18   H10   S    
O2    Zn2   S    
C16   H4    S    
C30   N3    A    
C11   C15   S    
C6    C28   S    
C10   C20   S    
C24   H27   S    
C25   H41   S    
C19   H7    S    
C12   H23   S    
C4    C18   S    
C7    C15   S    
H32   N8    S    
H37   N10   S    
C13   C14   S    
C8    N4    S    
C5    O4    A    
C23   H40   S    
C17   H3    S    
H17   N6    S    
C20   H25   S    
C1    C29   S    
C21   H20   S    
O6    Zn2   S    
C25   C29   A    
O4    Zn2   S    
H11   N4    S    
C20   H24   S    
C22   H29   S    
C10   N6    S    
C16   C17   S    
C6    O6    A    
C13   N8    S    
H33   N9    S    
C9    C14   S    
C19   H8    S    
O7    Zn1   S    
C12   C15   S    
C7    O7    A    
O8    Zn2   S    
H15   N5    S    
C12   C13   S    
C9    C11   S    
C5    C14   S    
C24   H28   S    
C17   H44   S    
C22   C24   S    
C1    O1    A    
H38   N2    S    
C3    C4    A    
C21   H21   S    
C2    N2    S    
C3    N1    A    
N1    Zn1   S    
C1    O2    A    
C8    C14   S    
C10   C15   S    
C8    H1    S    
H14   N5    S    
C24   H26   S    
C6    O5    A    
C13   N9    S    
C11   C22   S    
C26   C28   A    
C2    C30   A    
C19   H6    S    
C4    N3    A    
H16   N6    S    
C7    O8    A    
O3    Zn1   S    
O5    Zn1   S    
C2    N1    A    
H36   N10   S    
C5    O3    A    
C20   C21   S    
C8    C10   S    
C27   C28   A    
C17   H2    S    
C27   H43   S    
C21   H22   S    
C3    C16   S    
C25   C27   A    
