data_mof_unit_35206.cif
_audit_creation_date              2012-12-10T20:36:40-0500
_audit_creation_method            fapswitch 2.2
_symmetry_space_group_name_H-M    P1
_symmetry_Int_Tables_number       1
_space_group_crystal_system       triclinic
_cell_length_a                    10.529823
_cell_length_b                    10.679949
_cell_length_c                    9.878946
_cell_angle_alpha                 89.639515
_cell_angle_beta                  92.293457
_cell_angle_gamma                 90.398494
_cell_volume                      1110.02937189

loop_
_atom_site_label
_atom_site_type_symbol
_atom_type_description
_atom_site_fract_x
_atom_site_fract_y
_atom_site_fract_z
_atom_type_partial_charge
C1    C     C_R   0.504349 0.259925 0.500415 0.874493
C2    C     C_R   0.529126 0.935076 0.623347 0.127189
C3    C     C_3   0.440715 0.925695 0.737650 -0.475264
C4    C     C_R   0.256949 0.500649 0.497462 0.866775
C5    C     C_3   0.439278 0.067365 0.737288 -0.501103
C6    C     C_R   0.458301 0.397392 0.070204 0.213085
C7    C     C_R   0.553773 0.595603 0.073615 -0.136563
C8    C     C_R   0.554272 0.595339 0.929771 -0.139669
C9    C     C_R   0.455746 0.398518 0.927493 0.224994
C10   C     C_3   0.323180 0.348255 0.919640 -0.514797
C11   C     C_3   0.328520 0.343187 0.072933 -0.527703
C12   C     C_3   0.952857 0.609685 0.447510 -0.174548
C13   C     C_R   0.504838 0.739978 0.499832 0.873452
C14   C     C_R   0.742475 0.500919 0.502727 0.866430
C15   C     C_3   0.044347 0.394755 0.555195 -0.214163
C16   C     C_3   0.950106 0.403789 0.431697 -0.194952
C17   C     C_3   0.877027 0.502025 0.507798 0.002804
C18   C     C_3   0.967982 0.492720 0.632029 -0.127429
C19   C     C_3   0.047352 0.599796 0.570932 -0.211802
C20   C     C_3   0.053042 0.517190 0.220627 -0.424352
C21   C     C_3   0.937016 0.561774 0.136460 -0.875106
C22   C     C_3   0.027784 0.511345 0.371476 0.238987
C23   C     C_3   0.121228 0.501660 0.493532 -0.037636
C24   C     C_R   0.528458 0.062897 0.623656 0.140409
C25   C     C_R   0.526024 0.128613 0.501550 -0.104990
C26   C     C_R   0.549010 0.065797 0.380592 -0.233909
C27   C     C_R   0.549388 0.936216 0.380232 -0.235739
C28   C     C_R   0.526868 0.871314 0.500840 -0.102905
H1    H     H_    0.906298 0.323713 0.375353 0.134793
H2    H     H_    0.328343 0.246503 0.115286 0.201645
H3    H     H_    0.085411 0.307043 0.598487 0.136450
H4    H     H_    0.938909 0.485387 0.738601 0.141737
H5    H     H_    0.091029 0.679858 0.627332 0.139481
H6    H     H_    0.911166 0.697834 0.406103 0.128503
H7    H     H_    0.557309 0.115497 0.285374 0.169171
H8    H     H_    0.557801 0.888003 0.284885 0.163508
H9    H     H_    0.347330 0.882951 0.707187 0.202369
H10   H     H_    0.853264 0.501322 0.155634 0.275490
H11   H     H_    0.914639 0.660250 0.161105 0.252059
H12   H     H_    0.487528 0.885253 0.830647 0.196958
H13   H     H_    0.957120 0.556944 0.027122 0.244574
H14   H     H_    0.134583 0.580891 0.203005 0.219564
H15   H     H_    0.074510 0.420928 0.188014 0.203077
H16   H     H_    0.345171 0.106493 0.705073 0.194848
H17   H     H_    0.484853 0.108529 0.830358 0.203280
H18   H     H_    0.595307 0.673849 0.128928 0.142963
H19   H     H_    0.596576 0.673167 0.876998 0.144766
H20   H     H_    0.253539 0.417378 0.877208 0.223146
H21   H     H_    0.315792 0.254326 0.873508 0.196255
H22   H     H_    0.263514 0.409099 0.119072 0.214690
N1    N     N_R   0.499140 0.499140 0.142800 -0.106861
N2    N     N_R   0.499140 0.499180 0.857150 -0.105769
O1    O     O_R   0.500020 0.316790 0.614690 -0.615310
O2    O     O_R   0.500000 0.316760 0.385350 -0.623483
O3    O     O_R   0.313960 0.499990 0.614650 -0.612935
O4    O     O_R   0.313940 0.499950 0.385310 -0.630376
O5    O     O_R   0.500000 0.683240 0.614650 -0.622422
O6    O     O_R   0.499980 0.683210 0.385310 -0.627850
O7    O     O_R   0.686060 0.500050 0.614690 -0.626547
O8    O     O_R   0.686040 0.500010 0.385350 -0.623162
Zn1   Zn    Zn3+2 0.500010 0.500020 0.653130 0.939642
Zn2   Zn    Zn3+2 0.499990 0.499980 0.346870 0.929756

loop_
_geom_bond_atom_site_label_1
_geom_bond_atom_site_label_2
_ccdc_geom_bond_type
C12   C17   S    
O6    Zn2   S    
C15   C18   S    
C19   C23   S    
C1    O2    A    
C13   C28   S    
O5    Zn1   S    
C27   H8    S    
C14   O8    A    
C9    C10   S    
C8    N2    A    
C2    C24   A    
C20   H14   S    
C21   H11   S    
C6    C9    A    
C15   C23   S    
C2    C3    S    
C25   C26   A    
C8    H19   S    
C7    N1    A    
C7    C8    A    
C11   H22   S    
C24   C25   A    
C1    C25   S    
C14   O7    A    
C9    N2    A    
C14   C17   S    
C26   C27   A    
N1    Zn2   S    
O1    Zn1   S    
C21   H13   S    
O3    Zn1   S    
C12   C19   S    
C5    H16   S    
C20   C22   S    
C3    H12   S    
C17   C18   S    
N2    Zn1   S    
C4    O3    A    
C10   H20   S    
C6    N1    A    
O4    Zn2   S    
O7    Zn1   S    
C18   H4    S    
C10   C11   S    
C12   H6    S    
C15   C16   S    
C7    H18   S    
C12   C22   S    
C26   H7    S    
C6    C11   S    
C20   H15   S    
C13   O5    A    
C20   C21   S    
C3    H9    S    
O8    Zn2   S    
C18   C19   S    
C19   H5    S    
C27   C28   A    
C4    C23   S    
C1    O1    A    
C22   C23   S    
C5    C24   S    
C2    C28   A    
C13   O6    A    
O2    Zn2   S    
C16   H1    S    
C10   H21   S    
C5    H17   S    
C15   H3    S    
C4    O4    A    
C21   H10   S    
C11   H2    S    
C16   C22   S    
C16   C17   S    
C3    C5    S    
