data_mof_unit_12875.cif
_audit_creation_date              2012-12-10T17:32:14-0500
_audit_creation_method            fapswitch 2.2
_symmetry_space_group_name_H-M    P1
_symmetry_Int_Tables_number       1
_space_group_crystal_system       triclinic
_cell_length_a                    12.331463
_cell_length_b                    13.07634
_cell_length_c                    15.076563
_cell_angle_alpha                 77.332705
_cell_angle_beta                  101.202665
_cell_angle_gamma                 116.34742
_cell_volume                      2112.42117965

loop_
_atom_site_label
_atom_site_type_symbol
_atom_type_description
_atom_site_fract_x
_atom_site_fract_y
_atom_site_fract_z
_atom_type_partial_charge
C1    C     C_R   0.854961 0.285809 0.506028 0.805075
C2    C     C_R   0.959890 0.577310 0.074449 0.085141
C3    C     C_R   0.100697 0.374908 0.085632 -0.252795
C4    C     C_R   0.100601 0.375067 0.992798 0.166355
C5    C     C_R   0.053330 0.444027 0.926202 0.104717
C6    C     C_R   0.008244 0.513946 0.952815 -0.083217
C7    C     C_R   0.962995 0.585644 0.886315 0.075168
C8    C     C_R   0.919367 0.655222 0.916554 0.270491
C9    C     C_R   0.916334 0.648116 0.009862 -0.308208
C10   C     C_R   0.048965 0.442890 0.833491 -0.254630
C11   C     C_R   0.003071 0.510406 0.766916 -0.150682
C12   C     C_R   0.001268 0.503459 0.670790 0.813607
C13   C     C_R   0.960930 0.583496 0.792474 0.099871
C14   C     C_R   0.268451 0.034675 0.400999 0.260603
C15   C     C_R   0.226879 0.837191 0.471841 -0.086807
C16   C     C_R   0.815647 0.075137 0.541705 0.163579
C17   C     C_R   0.734613 0.958970 0.550055 -0.202682
C18   C     C_R   0.610933 0.926490 0.526399 -0.215631
C19   C     C_R   0.564220 0.009719 0.488645 0.098443
C20   C     C_R   0.647700 0.126305 0.467338 0.036960
C21   C     C_R   0.437146 0.980079 0.468910 0.036598
C22   C     C_R   0.395005 0.063706 0.419362 0.130897
C23   C     C_R   0.144826 0.714120 0.487367 0.806294
C24   C     C_R   0.479961 0.172914 0.385964 -0.229886
C25   C     C_R   0.603731 0.202950 0.408201 -0.204651
C26   C     C_R   0.350833 0.869362 0.498077 -0.261294
C27   C     C_R   0.185342 0.920285 0.425152 -0.271514
C28   C     C_R   0.772811 0.161437 0.503258 -0.123776
C29   C     C_R   0.351529 0.332937 0.649940 -0.339750
C30   C     C_R   0.758682 0.645558 0.375345 0.074953
C31   C     C_R   0.661779 0.677142 0.348243 -0.261741
C32   C     C_R   0.558737 0.622079 0.395065 -0.175004
C33   C     C_R   0.551396 0.534278 0.470241 0.001378
C34   C     C_R   0.000881 0.500694 0.329043 0.795865
C35   C     C_R   0.653403 0.505250 0.495505 0.244487
C36   C     C_R   0.447834 0.475122 0.521647 -0.096426
C37   C     C_R   0.450477 0.390505 0.598264 0.103457
C38   C     C_R   0.551568 0.363754 0.622429 0.197150
C39   C     C_R   0.649232 0.419358 0.570736 -0.266711
C40   C     C_R   0.341096 0.496093 0.500761 -0.019804
C41   C     C_R   0.250570 0.358407 0.627044 0.367797
C42   C     C_R   0.956902 0.572369 0.167180 -0.226901
C43   C     C_R   0.003577 0.503903 0.232514 -0.065767
C44   C     C_R   0.053149 0.439497 0.205431 -0.239018
C45   C     C_R   0.054249 0.441677 0.112686 0.090710
C46   C     C_R   0.007743 0.511241 0.046493 0.066849
Cu1   Cu    Cu3+1 0.098270 0.475420 0.521130 0.962695
Cu2   Cu    Cu3+1 0.901730 0.524580 0.478870 0.910803
H1    H     H_    0.919977 0.623323 0.188656 0.143354
H2    H     H_    0.451393 0.235879 0.341665 0.181002
H3    H     H_    0.377851 0.805403 0.541231 0.160220
H4    H     H_    0.554985 0.834874 0.535390 0.142818
H5    H     H_    0.767756 0.893006 0.577915 0.152660
H6    H     H_    0.663762 0.285673 0.374981 0.184124
H7    H     H_    0.351585 0.268188 0.708728 0.179206
H8    H     H_    0.088752 0.386150 0.256481 0.147500
H9    H     H_    0.331549 0.558276 0.443432 0.134391
H10   H     H_    0.838261 0.688918 0.338652 0.118762
H11   H     H_    0.486860 0.650479 0.371421 0.135591
H12   H     H_    0.666636 0.744707 0.290795 0.143385
H13   H     H_    0.721531 0.393431 0.593791 0.217788
H14   H     H_    0.136723 0.322152 0.136938 0.143373
H15   H     H_    0.079091 0.386947 0.812270 0.188674
H16   H     H_    0.881261 0.700138 0.031927 0.146088
H17   H     H_    0.088700 0.896310 0.406609 0.149628
N1    N     N_R   0.246280 0.438190 0.553160 -0.169733
N2    N     N_R   0.754320 0.561190 0.447410 -0.197796
O1    O     O_R   0.972510 0.318130 0.526570 -0.511191
O2    O     O_R   0.806530 0.359650 0.490890 -0.615811
O3    O     O_R   0.082980 0.479210 0.647590 -0.550073
O4    O     O_R   0.917000 0.520730 0.611900 -0.614719
O5    O     O_R   0.193470 0.640350 0.509110 -0.589214
O6    O     O_R   0.027490 0.681870 0.473430 -0.592811
O7    O     O_R   0.083000 0.479270 0.388100 -0.592093
O8    O     O_R   0.917020 0.520790 0.352410 -0.596305
N3    N     N_2   0.224203 0.118985 0.356327 -0.456427
H18   H     H_    0.140222 0.085533 0.318655 0.245937
C47   C     C_3   0.229272 0.195154 0.415274 -0.679621
H19   H     H_    0.169173 0.145180 0.470211 0.227603
H20   H     H_    0.198225 0.260943 0.374538 0.225468
H21   H     H_    0.323739 0.240815 0.446887 0.241589
N4    N     N_3   0.941507 0.103854 0.572543 -0.566068
H22   H     H_    0.947418 0.065502 0.640815 0.201513
H23   H     H_    0.972665 0.066187 0.534673 0.207129
N5    N     N_3   0.152850 0.301941 0.682835 -0.515398
H24   H     H_    0.125554 0.213156 0.688742 0.196448
H25   H     H_    0.188506 0.323330 0.748391 0.183651
N6    N     N_2   0.556253 0.279896 0.699625 -0.434618
H26   H     H_    0.593236 0.227427 0.688466 0.255616
C48   C     C_3   0.611074 0.327512 0.783756 -0.696583
H27   H     H_    0.604639 0.256420 0.841387 0.230723
H28   H     H_    0.562818 0.375345 0.798318 0.237163
H29   H     H_    0.708700 0.386663 0.778966 0.229992
N7    N     N_3   0.148196 0.305297 0.965916 -0.612412
H30   H     H_    0.230408 0.361218 0.939420 0.207833
H31   H     H_    0.169050 0.252304 0.022796 0.218174
N8    N     N_3   0.917208 0.656020 0.724025 -0.550196
H32   H     H_    0.981757 0.704913 0.677939 0.225013
H33   H     H_    0.834181 0.605157 0.690252 0.247812
N9    N     N_2   0.877417 0.732538 0.854551 -0.395327
H34   H     H_    0.799372 0.731256 0.871020 0.243774
C49   C     C_3   0.970506 0.848969 0.837357 -0.660480
H35   H     H_    0.932996 0.901470 0.783687 0.216283
H36   H     H_    0.049867 0.848864 0.812912 0.240649
H37   H     H_    0.001065 0.889174 0.900725 0.212892

loop_
_geom_bond_atom_site_label_1
_geom_bond_atom_site_label_2
_ccdc_geom_bond_type
C16   C28   A    
C21   C26   A    
C9    H16   S    
C19   C20   A    
Cu2   O2    S    
C1    O1    A    
C10   H15   S    
N8    H32   S    
C18   H4    S    
C7    C8    A    
C45   C46   A    
C2    C46   A    
C36   C37   A    
C19   C21   A    
N3    C47   S    
C30   C31   A    
C49   H36   S    
C47   H20   S    
C20   C25   A    
C33   C36   A    
C49   H37   S    
C18   C19   A    
C48   H28   S    
C31   C32   A    
C8    C9    A    
C1    C28   S    
C14   C27   A    
Cu1   N1    S    
C20   C28   A    
C30   N2    A    
C34   O8    A    
C15   C23   S    
C40   N1    A    
C21   C22   A    
Cu2   O8    S    
N7    H30   S    
C23   O6    A    
Cu2   O6    S    
C16   N4    S    
N8    H33   S    
N3    H18   S    
N5    H25   S    
C24   H2    S    
C38   C39   A    
C39   H13   S    
C36   C40   A    
C24   C25   A    
C47   H19   S    
C16   C17   A    
C15   C26   A    
C29   H7    S    
N5    H24   S    
C3    C45   A    
C1    O2    A    
C38   N6    S    
C14   N3    S    
C31   H12   S    
C35   C39   A    
C43   C44   A    
Cu1   O3    S    
C37   C38   A    
C27   H17   S    
C44   H8    S    
C15   C27   A    
Cu1   Cu2   S    
C35   N2    A    
N9    C49   S    
C17   C18   A    
C25   H6    S    
N7    H31   S    
C6    C7    A    
C34   O7    A    
C4    N7    S    
C12   O4    A    
N6    C48   S    
N4    H23   S    
C22   C24   A    
C42   C43   A    
Cu2   O4    S    
C3    C4    A    
C17   H5    S    
Cu1   O1    S    
C44   C45   A    
C48   H29   S    
C3    H14   S    
C12   O3    A    
C40   H9    S    
C6    C46   A    
C29   C41   A    
C23   O5    A    
C34   C43   S    
Cu1   O7    S    
C4    C5    A    
C11   C12   S    
C41   N1    A    
C41   N5    S    
C32   C33   A    
C14   C22   A    
C8    N9    S    
C5    C10   A    
C26   H3    S    
C11   C13   A    
C47   H21   S    
C48   H27   S    
C5    C6    A    
C2    C42   A    
C30   H10   S    
N9    H34   S    
C33   C35   A    
Cu2   N2    S    
C13   N8    S    
C49   H35   S    
Cu1   O5    S    
C10   C11   A    
C42   H1    S    
C7    C13   A    
N6    H26   S    
N4    H22   S    
C29   C37   A    
C32   H11   S    
C2    C9    A    
