data_mof_unit_14824.cif
_audit_creation_date              2012-12-10T17:40:56-0500
_audit_creation_method            fapswitch 2.2
_symmetry_space_group_name_H-M    P1
_symmetry_Int_Tables_number       1
_space_group_crystal_system       triclinic
_cell_length_a                    14.794426
_cell_length_b                    15.390099
_cell_length_c                    9.927711
_cell_angle_alpha                 89.987544
_cell_angle_beta                  90.531212
_cell_angle_gamma                 90.010495
_cell_volume                      2260.32025189

loop_
_atom_site_label
_atom_site_type_symbol
_atom_type_description
_atom_site_fract_x
_atom_site_fract_y
_atom_site_fract_z
_atom_type_partial_charge
C1    C     C_R   0.379855 0.880804 0.499911 0.846230
C2    C     C_R   0.690282 0.243256 0.407153 -0.208076
C3    C     C_R   0.191927 0.258221 0.405324 -0.208737
C4    C     C_R   0.165853 0.765861 0.455580 -0.212298
C5    C     C_R   0.689665 0.817199 0.496765 -0.085967
C6    C     C_R   0.695099 0.178021 0.504153 -0.112682
C7    C     C_R   0.195398 0.322146 0.504499 -0.113824
C8    C     C_R   0.190057 0.682485 0.496614 -0.087617
C9    C     C_R   0.335049 0.001106 0.137990 -0.152482
C10   C     C_R   0.835049 0.498525 0.137985 -0.151401
C11   C     C_R   0.253593 0.002076 0.066926 -0.199426
C12   C     C_R   0.383759 0.122644 0.499695 0.854092
C13   C     C_R   0.753595 0.497322 0.066919 -0.198582
C14   C     C_R   0.253430 0.002231 0.927427 -0.184456
C15   C     C_R   0.753433 0.497146 0.927420 -0.185183
C16   C     C_R   0.334726 0.001389 0.858105 -0.137253
C17   C     C_R   0.834728 0.498191 0.858098 -0.137354
C18   C     C_R   0.418605 0.000936 0.926700 0.166774
C19   C     C_R   0.918607 0.498762 0.926695 0.167021
C20   C     C_R   0.418688 0.000822 0.071233 0.170871
C21   C     C_R   0.918689 0.498903 0.071231 0.170339
C22   C     C_R   0.577804 0.998569 0.072620 -0.104463
C23   C     C_R   0.883589 0.377481 0.499721 0.853508
C24   C     C_R   0.077783 0.501980 0.072642 -0.104521
C25   C     C_R   0.623340 0.116474 0.501161 0.843982
C26   C     C_R   0.620350 0.880752 0.499643 0.844896
C27   C     C_R   0.120584 0.619043 0.499611 0.844944
C28   C     C_R   0.123465 0.383604 0.501258 0.844271
C29   C     C_R   0.577732 0.998230 0.929713 -0.109490
C30   C     C_R   0.077697 0.502443 0.929760 -0.109576
C31   C     C_R   0.411521 0.269441 0.681144 -0.171968
C32   C     C_R   0.433509 0.707295 0.577274 -0.187299
C33   C     C_R   0.934927 0.794336 0.564766 -0.185435
C34   C     C_R   0.879822 0.619174 0.499904 0.846195
C35   C     C_R   0.912893 0.228934 0.677177 -0.173452
C36   C     C_R   0.415707 0.332450 0.781395 -0.151387
C37   C     C_R   0.460188 0.621224 0.596208 -0.159519
C38   C     C_R   0.961852 0.880797 0.577944 -0.159315
C39   C     C_R   0.918595 0.164045 0.774446 -0.151046
C40   C     C_R   0.899551 0.947199 0.556504 -0.129303
C41   C     C_R   0.849083 0.104209 0.786720 -0.150826
C42   C     C_R   0.345671 0.391556 0.794532 -0.154345
C43   C     C_R   0.398491 0.554319 0.574798 -0.131387
C44   C     C_R   0.809146 0.927221 0.529483 -0.188241
C45   C     C_R   0.255846 0.194566 0.403549 -0.224736
C46   C     C_R   0.775150 0.107453 0.698899 -0.199543
C47   C     C_R   0.272958 0.389695 0.704376 -0.199390
C48   C     C_R   0.308698 0.573546 0.542233 -0.186514
C49   C     C_R   0.780445 0.840068 0.520754 0.094225
C50   C     C_R   0.767231 0.173469 0.599644 0.093215
C51   C     C_R   0.266388 0.325417 0.602209 0.094206
C52   C     C_R   0.280144 0.660391 0.527452 0.095325
C53   C     C_R   0.334881 0.262573 0.594764 0.098374
C54   C     C_R   0.344079 0.727290 0.536928 0.105930
C55   C     C_R   0.844683 0.773444 0.530304 0.105882
C56   C     C_R   0.229604 0.830608 0.456552 -0.226272
C57   C     C_R   0.835431 0.236670 0.592700 0.098108
C58   C     C_R   0.325255 0.195413 0.498862 -0.100239
C59   C     C_R   0.316991 0.811809 0.500264 -0.076327
C60   C     C_R   0.816843 0.688089 0.500282 -0.075104
C61   C     C_R   0.824737 0.304969 0.498938 -0.099048
C62   C     C_R   0.728298 0.668122 0.463796 -0.226775
C63   C     C_R   0.754189 0.306992 0.405547 -0.224177
C64   C     C_R   0.664439 0.732783 0.462979 -0.211483
H1    H     H_    0.249429 0.142900 0.329813 0.154571
H2    H     H_    0.141257 0.505519 0.877662 0.134515
H3    H     H_    0.469796 0.227793 0.671050 0.169223
H4    H     H_    0.483585 0.757525 0.591883 0.148615
H5    H     H_    0.985213 0.744355 0.579760 0.144919
H6    H     H_    0.970646 0.271338 0.667726 0.168949
H7    H     H_    0.474075 0.336200 0.847723 0.140934
H8    H     H_    0.529412 0.606325 0.623981 0.140353
H9    H     H_    0.031582 0.896321 0.601630 0.140154
H10   H     H_    0.977697 0.159482 0.839176 0.140721
H11   H     H_    0.921440 0.014214 0.560678 0.156067
H12   H     H_    0.210672 0.895684 0.425156 0.130123
H13   H     H_    0.854026 0.052919 0.861078 0.142409
H14   H     H_    0.349451 0.441499 0.871180 0.142281
H15   H     H_    0.420522 0.487515 0.582811 0.157058
H16   H     H_    0.762509 0.979822 0.510423 0.118719
H17   H     H_    0.727351 0.055362 0.708126 0.162930
H18   H     H_    0.225175 0.441589 0.714427 0.163730
H19   H     H_    0.262611 0.520566 0.522924 0.118126
H20   H     H_    0.595548 0.717172 0.434725 0.149536
H21   H     H_    0.634821 0.246755 0.335115 0.166149
H22   H     H_    0.137388 0.255519 0.331652 0.167375
H23   H     H_    0.708639 0.602289 0.437729 0.129415
H24   H     H_    0.097800 0.780616 0.421936 0.151020
H25   H     H_    0.641464 0.997344 0.127090 0.148596
H26   H     H_    0.141432 0.503669 0.127113 0.148455
H27   H     H_    0.329856 0.000242 0.244862 0.195439
H28   H     H_    0.829854 0.499630 0.244852 0.195641
H29   H     H_    0.190212 0.002389 0.120607 0.143704
H30   H     H_    0.690213 0.496937 0.120596 0.143953
H31   H     H_    0.746989 0.359559 0.333491 0.152775
H32   H     H_    0.189893 0.002637 0.872387 0.144662
H33   H     H_    0.689897 0.496661 0.872378 0.144375
H34   H     H_    0.329044 0.000625 0.751149 0.201705
H35   H     H_    0.829040 0.499160 0.751146 0.201490
H36   H     H_    0.641326 0.995991 0.877492 0.135458
N1    N     N_R   0.498810 0.000000 0.142780 -0.123054
N2    N     N_R   0.998810 0.500000 0.142780 -0.123065
N3    N     N_R   0.498740 1.000000 0.857170 -0.122798
N4    N     N_R   0.998740 0.500000 0.857170 -0.122563
O1    O     O_R   0.408390 0.908380 0.614690 -0.635274
O2    O     O_R   0.591620 0.908390 0.614640 -0.620149
O3    O     O_R   0.091620 0.591610 0.614640 -0.619138
O4    O     O_R   0.091620 0.408390 0.614640 -0.636012
O5    O     O_R   0.591610 0.091610 0.385310 -0.612005
O6    O     O_R   0.591610 0.908390 0.385310 -0.607416
O7    O     O_R   0.091610 0.591610 0.385310 -0.607894
O8    O     O_R   0.091610 0.408390 0.385310 -0.611808
O9    O     O_R   0.408390 0.091620 0.614690 -0.643533
O10   O     O_R   0.908390 0.408380 0.614690 -0.643305
O11   O     O_R   0.908390 0.591620 0.614690 -0.633922
O12   O     O_R   0.408370 0.908380 0.385360 -0.625827
O13   O     O_R   0.408370 0.091620 0.385360 -0.634505
O14   O     O_R   0.908370 0.408380 0.385360 -0.633930
O15   O     O_R   0.908370 0.591620 0.385360 -0.626315
O16   O     O_R   0.591620 0.091610 0.614640 -0.635241
Zn1   Zn    Zn3+2 0.500010 0.000000 0.653130 0.925343
Zn2   Zn    Zn3+2 0.000010 0.500000 0.653130 0.926115
Zn3   Zn    Zn3+2 0.499980 0.000000 0.346870 0.940153
Zn4   Zn    Zn3+2 0.999980 0.500000 0.346870 0.940134

loop_
_geom_bond_atom_site_label_1
_geom_bond_atom_site_label_2
_ccdc_geom_bond_type
C44   C49   A    
C33   C55   A    
C56   H12   S    
O12   Zn3   S    
C36   C42   A    
C4    C8    A    
C26   O2    A    
C23   O14   A    
C39   C41   A    
C22   C29   A    
O15   Zn4   S    
C28   O8    A    
C31   H3    S    
N1    Zn3   S    
C22   N1    A    
C19   C21   A    
O8    Zn4   S    
C3    C7    A    
C1    C59   S    
C41   H13   S    
C11   C14   A    
C47   H18   S    
C6    C25   S    
N4    Zn2   S    
C43   H15   S    
C63   H31   S    
C29   N3    A    
C2    H21   S    
C60   C62   A    
C39   H10   S    
C14   H32   S    
C61   C63   A    
C56   C59   A    
C64   H20   S    
C62   C64   A    
C35   H6    S    
C41   C46   A    
C1    O12   A    
C43   C48   A    
C8    C52   A    
C40   C44   A    
C24   N2    A    
C36   H7    S    
C33   H5    S    
C32   H4    S    
C12   C58   S    
C11   H29   S    
C27   O7    A    
O11   Zn2   S    
C55   C60   A    
C4    C56   A    
C3    H22   S    
C34   C60   S    
C5    C49   A    
C2    C6    A    
C15   H33   S    
N2    Zn4   S    
C32   C54   A    
C52   C54   A    
C54   C59   A    
C10   C21   A    
C45   C58   A    
C44   H16   S    
O5    Zn3   S    
C47   C51   A    
C20   N1    A    
C34   O11   A    
C49   C55   A    
C3    C45   A    
C6    C50   A    
C7    C28   S    
C12   O13   A    
C5    C64   A    
C51   C53   A    
C37   C43   A    
C35   C39   A    
O6    Zn3   S    
C46   H17   S    
C9    C11   A    
C19   N4    A    
C9    C20   A    
C27   O3    A    
O1    Zn1   S    
O14   Zn4   S    
C32   C37   A    
C31   C53   A    
C17   H35   S    
C30   H2    S    
C21   N2    A    
C42   H14   S    
C13   C15   A    
C45   H1    S    
C14   C16   A    
N3    Zn1   S    
C25   O16   A    
O16   Zn1   S    
C12   O9    A    
C23   C61   S    
C34   O15   A    
C15   C17   A    
C26   O6    A    
C2    C63   A    
C29   H36   S    
O7    Zn4   S    
C50   C57   A    
O4    Zn2   S    
C10   C13   A    
C24   H26   S    
C53   C58   A    
C48   H19   S    
C57   C61   A    
C4    H24   S    
C25   O5    A    
C62   H23   S    
C46   C50   A    
C33   C38   A    
C40   H11   S    
C13   H30   S    
C35   C57   A    
O13   Zn3   S    
C7    C51   A    
C23   O10   A    
C38   C40   A    
C18   N3    A    
C16   H34   S    
C28   O4    A    
O2    Zn1   S    
C17   C19   A    
C22   H25   S    
C18   C20   A    
C42   C47   A    
C24   C30   A    
C10   H28   S    
C5    C26   S    
O10   Zn2   S    
C48   C52   A    
O9    Zn1   S    
C9    H27   S    
C16   C18   A    
C37   H8    S    
C30   N4    A    
C8    C27   S    
C31   C36   A    
O3    Zn2   S    
C1    O1    A    
C38   H9    S    
