data_mof_unit_26937.cif
_audit_creation_date              2013-03-05T16:32:33-0500
_audit_creation_method            fapswitch 2.2
_symmetry_space_group_name_H-M    P1
_symmetry_Int_Tables_number       1
_space_group_crystal_system       triclinic
_cell_length_a                    15.873754
_cell_length_b                    10.810929
_cell_length_c                    9.537893
_cell_angle_alpha                 90.049984
_cell_angle_beta                  90.015363
_cell_angle_gamma                 90.095452
_cell_volume                      1636.79512591

loop_
_atom_site_label
_atom_site_type_symbol
_atom_site_description
_atom_site_fract_x
_atom_site_fract_y
_atom_site_fract_z
_atom_type_partial_charge
O1    O     O_R   0.500000 0.319640 0.618810 -0.586150
O2    O     O_R   0.500010 0.319680 0.381230 -0.543282
C1    C     C_R   0.504876 0.262411 0.499735 0.840028
O3    O     O_R   0.379070 0.499970 0.618770 -0.582203
O4    O     O_R   0.379080 0.500010 0.381190 -0.568737
C2    C     C_R   0.339848 0.499936 0.499966 0.818149
Cu1   Cu    Cu3+1 0.500000 0.499980 0.640670 0.963565
Cu2   Cu    Cu3+1 0.500000 0.500020 0.359330 1.005757
O5    O     O_R   0.499990 0.680320 0.618770 -0.583201
O6    O     O_R   0.500000 0.680360 0.381190 -0.586477
O7    O     O_R   0.620920 0.499990 0.618810 -0.583831
O8    O     O_R   0.620930 0.500030 0.381230 -0.559599
C3    C     C_R   0.501835 0.737694 0.500074 0.825892
C4    C     C_R   0.660150 0.500143 0.500028 0.833778
C5    C     C_3   0.971623 0.393043 0.549207 -0.142288
C6    C     C_3   0.027419 0.411198 0.418135 0.392917
H1    H     H_    0.947696 0.303201 0.589168 0.183107
H2    H     H_    0.947513 0.532814 0.258191 0.183161
C7    C     C_1   0.250216 0.500585 0.499933 -0.113396
C8    C     C_1   0.749770 0.500623 0.499982 -0.150064
C9    C     C_3   0.027888 0.486070 0.631232 -0.255133
C10   C     C_3   0.083059 0.502633 0.499420 -0.007191
C11   C     C_3   0.971214 0.595010 0.581910 -0.186363
C12   C     C_3   0.916823 0.501937 0.499269 0.053725
C13   C     C_3   0.026709 0.608608 0.450759 0.329985
C14   C     C_3   0.971080 0.518637 0.366586 -0.243198
C15   C     C_1   0.174721 0.501451 0.499799 0.092416
C16   C     C_1   0.825263 0.501166 0.499741 0.024673
H3    H     H_    0.947354 0.671929 0.647992 0.177586
H4    H     H_    0.051916 0.472527 0.739442 0.191102
C17   C     C_R   0.506083 0.063756 0.624395 0.105374
C18   C     C_R   0.518082 0.129403 0.499899 -0.220247
C19   C     C_R   0.542898 0.062911 0.378075 0.331925
C20   C     C_R   0.537670 0.933393 0.379100 -0.257729
H5    H     H_    0.552587 0.882372 0.284549 0.189465
C21   C     C_R   0.512154 0.870533 0.500727 -0.156733
C22   C     C_R   0.503910 0.936833 0.625067 0.115815
C23   C     C_3   0.436551 0.932639 0.734192 -0.416197
C24   C     C_3   0.438928 0.073145 0.733671 -0.427119
H6    H     H_    0.376344 0.893570 0.693993 0.208153
H7    H     H_    0.459438 0.891683 0.834066 0.212042
H8    H     H_    0.380040 0.115930 0.693382 0.197877
H9    H     H_    0.463197 0.112857 0.833382 0.228202
C25   C     C_R   0.536006 0.595441 0.073737 0.248191
N1    N     N_R   0.500530 0.500930 0.147930 -0.188541
C26   C     C_R   0.457185 0.412580 0.074348 0.006324
H10   H     H_    0.423843 0.340474 0.130057 0.156586
C27   C     C_R   0.457083 0.412682 0.925420 -0.045143
H11   H     H_    0.423428 0.340949 0.869539 0.139757
N2    N     N_R   0.500530 0.500890 0.852020 -0.190182
C28   C     C_R   0.535956 0.595451 0.926373 0.247255
C29   C     C_3   0.625667 0.636077 0.920315 -0.474941
C30   C     C_3   0.625823 0.635805 0.079531 -0.472500
H12   H     H_    0.667978 0.564900 0.874518 0.228336
H13   H     H_    0.632312 0.730164 0.874646 0.205536
H14   H     H_    0.668104 0.564315 0.124700 0.234522
H15   H     H_    0.632884 0.729703 0.125591 0.202652
Cl1   Cl    Cl    0.065052 0.288782 0.310147 -0.540389
N3    N     N_R   0.055202 0.727596 0.396821 0.142852
O9    O     O_R   0.000198 0.810150 0.359192 -0.310137
O10   O     O_R   0.135144 0.752167 0.385886 -0.336416
N4    N     N_R   0.572628 0.123883 0.253753 0.135173
O11   O     O_R   0.632174 0.206397 0.262885 -0.336724
O12   O     O_R   0.551597 0.081925 0.130666 -0.387767

loop_
_geom_bond_atom_site_label_1
_geom_bond_atom_site_label_2
_geom_bond_distance
_ccdc_geom_bond_type
O4    Cu2   1.930802 S    
C23   H6    1.112197 S    
C11   C12   1.540959 S    
Cu1   O5    1.960983 S    
N4    O11   1.301457 A    
C12   C16   1.453421 S    
C7    C15   1.198445 T    
C9    H4    1.110123 S    
C1    C18   1.453492 S    
C20   C21   1.404402 A    
C17   C18   1.396818 A    
H2    C14   1.110202 S    
C29   H13   1.111723 S    
C5    C9    1.554498 S    
Cu2   O8    1.930887 S    
C6    C10   1.534171 S    
C18   C19   1.421881 A    
C29   H12   1.111444 S    
C27   N2    1.369068 A    
C19   C20   1.402569 A    
C25   C30   1.491318 S    
N3    O9    1.300258 A    
C6    Cl1   1.780378 S    
N1    C26   1.369173 A    
C29   C30   1.518586 S    
Cu1   O7    1.930799 S    
C2    C7    1.422816 S    
C12   C14   1.541546 S    
O4    C2    1.292909 A    
C23   H7    1.112004 S    
O3    Cu1   1.930888 S    
C11   H3    1.110159 S    
C25   C28   1.405539 A    
O3    C2    1.292773 A    
C27   H11   1.081031 S    
C22   C23   1.493035 S    
O8    C4    1.292708 A    
N2    C28   1.364130 A    
C24   H8    1.112182 S    
O2    C1    1.291580 A    
C10   C15   1.455104 S    
C9    C11   1.556279 S    
C6    C14   1.547543 S    
C23   C24   1.519424 S    
O7    C4    1.292939 A    
C26   C27   1.420466 A    
N3    O10   1.300279 A    
Cu2   N1    2.016364 S    
C5    C6    1.544771 S    
C8    C16   1.198362 T    
C4    C8    1.422610 S    
Cu1   Cu2   2.683390 S    
C11   C13   1.537161 S    
C28   C29   1.490689 S    
C25   N1    1.364342 A    
C24   H9    1.111639 S    
C3    C21   1.445159 S    
Cu2   O6    1.960579 S    
C20   H5    1.083178 S    
C30   H14   1.111544 S    
C5    H1    1.110130 S    
O5    C3    1.291679 A    
C26   H10   1.081487 S    
C21   C22   1.391495 A    
N4    O12   1.301470 A    
C13   N3    1.457162 S    
O1    Cu1   1.960579 S    
C13   C14   1.538118 S    
C9    C10   1.542743 S    
C5    C12   1.540656 S    
C10   C13   1.527165 S    
O2    Cu2   1.960981 S    
C17   C22   1.372553 A    
Cu1   N2    2.015865 S    
C17   C24   1.494567 S    
C19   N4    1.436621 S    
O1    C1    1.295232 A    
O6    C3    1.292086 A    
C30   H15   1.111240 S    
