data_mof_unit_38846.cif
_audit_creation_date              2013-03-05T16:12:16-0500
_audit_creation_method            fapswitch 2.2
_symmetry_space_group_name_H-M    P1
_symmetry_Int_Tables_number       1
_space_group_crystal_system       triclinic
_cell_length_a                    10.67023
_cell_length_b                    9.810593
_cell_length_c                    18.826968
_cell_angle_alpha                 91.325406
_cell_angle_beta                  90.34189
_cell_angle_gamma                 89.709043
_cell_volume                      1970.24475212

loop_
_atom_site_label
_atom_site_type_symbol
_atom_site_description
_atom_site_fract_x
_atom_site_fract_y
_atom_site_fract_z
_atom_type_partial_charge
O1    O     O_R   0.316770 0.614620 0.500000 -0.603850
O2    O     O_R   0.683230 0.385380 0.500000 -0.593063
O3    O     O_R   0.683230 0.614620 0.500000 -0.599940
O4    O     O_R   0.316770 0.385380 0.500000 -0.617701
C1    C     C_R   0.260138 0.500432 0.499604 1.007206
C2    C     C_R   0.739751 0.499599 0.500664 1.048256
O5    O     O_R   0.499990 0.614700 0.398140 -0.616637
O6    O     O_R   0.500010 0.385300 0.601860 -0.618394
O7    O     O_R   0.500010 0.614700 0.601860 -0.591268
O8    O     O_R   0.499990 0.385300 0.398140 -0.581733
C3    C     C_R   0.501982 0.497903 0.364044 0.963245
C4    C     C_R   0.500743 0.502085 0.635992 0.958937
Zn1   Zn    Zn3+2 0.500000 0.653120 0.500000 1.059510
Zn2   Zn    Zn3+2 0.500000 0.346880 0.500000 1.056440
C5    C     C_R   0.063902 0.422962 0.447288 0.203291
C6    C     C_R   0.935711 0.576880 0.553253 0.198126
C7    C     C_R   0.934373 0.420707 0.448878 0.203512
C8    C     C_R   0.065229 0.579276 0.551465 0.210410
C9    C     C_R   0.872029 0.498226 0.501435 -0.355250
C10   C     C_R   0.127659 0.501822 0.498954 -0.353501
C11   C     C_R   0.593039 0.072982 0.533712 -0.002839
C12   C     C_R   0.407480 0.926957 0.465750 -0.026048
C13   C     C_R   0.407394 0.071040 0.465851 -0.030617
C14   C     C_R   0.592838 0.928963 0.533919 0.011083
C15   C     C_R   0.498427 0.613996 0.246412 -0.063342
C16   C     C_R   0.489641 0.385958 0.753385 -0.049131
C17   C     C_R   0.437127 0.629036 0.748306 -0.020209
C18   C     C_R   0.439396 0.373196 0.250753 0.004556
C19   C     C_R   0.445459 0.619521 0.178482 -0.163598
C20   C     C_R   0.435908 0.382897 0.820843 -0.169956
C21   C     C_R   0.384162 0.622374 0.815520 -0.135917
C22   C     C_R   0.387172 0.382351 0.183099 -0.143224
H1    H     H_    0.455181 0.711770 0.148482 0.197635
H2    H     H_    0.443148 0.290366 0.850987 0.189204
H3    H     H_    0.349074 0.715141 0.840953 0.182716
H4    H     H_    0.349851 0.291200 0.157270 0.186098
C23   C     C_R   0.388977 0.504686 0.146806 0.033948
C24   C     C_R   0.383025 0.500367 0.852094 0.040440
H5    H     H_    0.667751 0.128410 0.560189 0.155936
H6    H     H_    0.333720 0.871432 0.438285 0.158392
H7    H     H_    0.333590 0.124987 0.438516 0.181908
H8    H     H_    0.666934 0.875078 0.561053 0.195577
N1    N     N_R   0.500000 0.857200 0.500000 -0.101455
N2    N     N_R   0.500000 0.142800 0.500000 -0.095572
C25   C     C_R   0.486917 0.492847 0.285686 -0.143845
C26   C     C_R   0.482774 0.507553 0.714076 -0.141732
N3    N     N_R   0.346158 0.385635 0.033921 -0.150668
N4    N     N_R   0.350514 0.622088 0.965130 -0.150551
N5    N     N_R   0.344598 0.384113 0.963401 -0.147025
N6    N     N_R   0.352425 0.623595 0.035652 -0.147025
C27   C     C_R   0.350713 0.502233 0.927699 0.324357
C28   C     C_R   0.354318 0.505183 0.071312 0.325333
N7    N     N_R   0.130050 0.353744 0.390692 0.234781
O9    O     O_R   0.109905 0.225326 0.376447 -0.304109
O10   O     O_R   0.205813 0.421186 0.350801 -0.409252
N8    N     N_R   0.869541 0.648424 0.609224 0.236730
O11   O     O_R   0.894397 0.775514 0.624377 -0.306825
O12   O     O_R   0.788661 0.584620 0.647595 -0.353853
N9    N     N_R   0.865896 0.348829 0.394077 0.253730
O13   O     O_R   0.808181 0.416316 0.344907 -0.341386
O14   O     O_R   0.848354 0.218180 0.398414 -0.291275
N10   N     N_R   0.133659 0.651534 0.606003 0.250045
O15   O     O_R   0.173318 0.587681 0.661647 -0.374655
O16   O     O_R   0.161666 0.779201 0.598296 -0.307565
C29   C     C_2   0.573393 0.732941 0.271779 0.955977
O17   O     O_2   0.666815 0.715971 0.308581 -0.556930
O18   O     O_R   0.540742 0.864088 0.250587 -0.801014
H9    H     H_    0.601092 0.935703 0.269610 0.386600
C30   C     C_2   0.562535 0.264652 0.728812 0.956598
O19   O     O_2   0.527124 0.150048 0.742849 -0.612806
O20   O     O_R   0.675223 0.281875 0.692612 -0.755556
H10   H     H_    0.719389 0.192159 0.681738 0.353919
C31   C     C_2   0.447588 0.766917 0.718429 0.997863
O21   O     O_2   0.548662 0.807054 0.697121 -0.566424
O22   O     O_R   0.343266 0.853666 0.718454 -0.717847
H11   H     H_    0.361771 0.944892 0.696692 0.374765
C32   C     C_2   0.446471 0.234824 0.280569 0.967778
O23   O     O_2   0.545443 0.192638 0.304937 -0.574488
O24   O     O_R   0.341661 0.149939 0.277022 -0.733567
H12   H     H_    0.358183 0.057602 0.298371 0.356736

loop_
_geom_bond_atom_site_label_1
_geom_bond_atom_site_label_2
_geom_bond_distance
_ccdc_geom_bond_type
C14   H8    1.081174 S    
C31   O21   1.223068 D    
N7    O10   1.300376 A    
O3    C2    1.277060 A    
N3    N5    1.327411 A    
C1    C10   1.413557 S    
C32   O23   1.222937 D    
O5    C3    1.300528 A    
C2    C9    1.411426 S    
O1    C1    1.275388 A    
C22   H4    1.084397 S    
C5    N7    1.437111 S    
C19   H1    1.083572 S    
N8    O11   1.300883 A    
C20   C24   1.399538 A    
C30   O20   1.398568 S    
O7    Zn1   1.962941 S    
N10   O16   1.300701 A    
N4    C27   1.356793 A    
C29   O18   1.397685 S    
N6    C28   1.355120 A    
O3    Zn1   1.989372 S    
N4    N6    1.327482 A    
N9    O13   1.300751 A    
C31   O22   1.397764 S    
O2    C2    1.275006 A    
C32   O24   1.398082 S    
C15   C19   1.397224 A    
C5    C10   1.403634 A    
C16   C30   1.484834 S    
C18   C25   1.426162 A    
N9    O14   1.300783 A    
C20   H2    1.083838 S    
C17   C21   1.392025 A    
O18   H9    1.013297 S    
C18   C22   1.391845 A    
C15   C29   1.486200 S    
C4    C26   1.483382 S    
O8    Zn2   1.962941 S    
C23   C28   1.466632 S    
C8    N10   1.432676 S    
C24   C27   1.466255 S    
N5    C27   1.355100 A    
N7    O9    1.300698 A    
C13   N2    1.365258 A    
O22   H11   1.013695 S    
C6    N8    1.439178 S    
N10   O15   1.300517 A    
C11   N2    1.365007 A    
C12   N1    1.365534 A    
C11   H5    1.080194 S    
O6    C4    1.300640 A    
C12   H6    1.081664 S    
C22   C23   1.394996 A    
C18   C32   1.482349 S    
C7    N9    1.434643 S    
C17   C26   1.426633 A    
C16   C20   1.397576 A    
C21   H3    1.084554 S    
C3    C25   1.482724 S    
O1    Zn1   1.993139 S    
C15   C25   1.420455 A    
Zn1   N1    2.002146 S    
Zn2   N2    2.002146 S    
C5    C7    1.382901 A    
O6    Zn2   1.945832 S    
O4    C1    1.277745 A    
N3    C28   1.356758 A    
C13   H7    1.081033 S    
C21   C24   1.394773 A    
O20   H10   1.013560 S    
C6    C9    1.404093 A    
C7    C9    1.402813 A    
N8    O12   1.300887 A    
C8    C10   1.402325 A    
O4    Zn2   1.989373 S    
C30   O19   1.223103 D    
O2    Zn2   1.993138 S    
O7    C4    1.290856 A    
O8    C3    1.290780 A    
C16   C26   1.419653 A    
O24   H12   1.013726 S    
O5    Zn1   1.945832 S    
C6    C8    1.382934 A    
C29   O17   1.223465 D    
C11   C14   1.413013 A    
C19   C23   1.399870 A    
C14   N1    1.365108 A    
C12   C13   1.413492 A    
C17   C31   1.481929 S    
