data_mof_unit_41655.cif
_audit_creation_date              2012-12-10T18:59:16-0500
_audit_creation_method            fapswitch 2.2
_symmetry_space_group_name_H-M    P1
_symmetry_Int_Tables_number       1
_space_group_crystal_system       triclinic
_cell_length_a                    10.800131
_cell_length_b                    10.825932
_cell_length_c                    9.557533
_cell_angle_alpha                 90.599383
_cell_angle_beta                  90.334722
_cell_angle_gamma                 91.353448
_cell_volume                      1117.08732198

loop_
_atom_site_label
_atom_site_type_symbol
_atom_type_description
_atom_site_fract_x
_atom_site_fract_y
_atom_site_fract_z
_atom_type_partial_charge
C1    C     C_R   0.496114 0.262600 0.499404 0.813754
C2    C     C_R   0.069394 0.603832 0.574302 0.049778
C3    C     C_R   0.129710 0.510473 0.498604 -0.154525
C4    C     C_R   0.062829 0.422293 0.420152 -0.293020
C5    C     C_R   0.934255 0.422598 0.417567 0.473899
C6    C     C_R   0.872081 0.509324 0.500032 -0.204394
C7    C     C_R   0.529618 0.067577 0.617251 0.134238
C8    C     C_R   0.486785 0.129485 0.500444 -0.087820
C9    C     C_R   0.435241 0.061651 0.387665 -0.212306
C10   C     C_R   0.437510 0.932646 0.388475 -0.207737
C11   C     C_R   0.492190 0.871351 0.501473 -0.087957
C12   C     C_R   0.262824 0.502297 0.499627 0.807224
C13   C     C_R   0.533658 0.940137 0.617683 0.118661
C14   C     C_3   0.660771 0.945405 0.681293 -0.525071
C15   C     C_3   0.653414 0.084294 0.684776 -0.444153
C16   C     C_R   0.591984 0.560304 0.075324 0.253915
C17   C     C_R   0.416087 0.430659 0.073011 -0.076031
C18   C     C_R   0.416034 0.430706 0.924158 -0.072156
C19   C     C_R   0.592189 0.560111 0.927991 0.268706
C20   C     C_3   0.622520 0.694874 0.925986 -0.537015
C21   C     C_3   0.622982 0.694686 0.084273 -0.492264
C22   C     C_R   0.499913 0.737841 0.500471 0.770007
C23   C     C_R   0.737641 0.503097 0.500268 0.854785
C24   C     C_R   0.136329 0.700211 0.644441 -0.152625
C25   C     C_R   0.075053 0.791646 0.719528 0.246920
C26   C     C_R   0.946016 0.788953 0.722830 -0.162590
C27   C     C_R   0.878475 0.697198 0.650112 -0.234202
C28   C     C_R   0.938686 0.602668 0.576168 0.034883
Cu1   Cu    Cu3+1 0.499990 0.499980 0.640670 0.936913
Cu2   Cu    Cu3+1 0.500010 0.500020 0.359330 0.949568
H1    H     H_    0.110851 0.350828 0.363334 0.152230
H2    H     H_    0.732259 0.912423 0.607646 0.205559
H3    H     H_    0.646767 0.123577 0.792352 0.197596
H4    H     H_    0.722576 0.131214 0.616376 0.211913
H5    H     H_    0.346719 0.376343 0.127676 0.131651
H6    H     H_    0.346630 0.376413 0.867350 0.141594
H7    H     H_    0.715820 0.714260 0.882802 0.193159
H8    H     H_    0.545837 0.749008 0.881412 0.222182
H9    H     H_    0.716217 0.713097 0.130914 0.193506
H10   H     H_    0.547349 0.749930 0.129599 0.221092
H11   H     H_    0.236202 0.706817 0.639629 0.146695
H12   H     H_    0.897697 0.859582 0.780237 0.144520
H13   H     H_    0.778925 0.702575 0.650354 0.152889
H14   H     H_    0.396885 0.108022 0.297957 0.152099
H15   H     H_    0.399740 0.881279 0.299559 0.156340
H16   H     H_    0.664533 0.907078 0.787821 0.200750
N1    N     N_R   0.500790 0.500930 0.147930 -0.185763
N2    N     N_R   0.500790 0.500890 0.852020 -0.187373
O1    O     O_R   0.500000 0.319640 0.618810 -0.583548
O2    O     O_R   0.500010 0.319680 0.381230 -0.574789
O3    O     O_R   0.319640 0.499980 0.618820 -0.587944
O4    O     O_R   0.319650 0.500020 0.381230 -0.584375
O5    O     O_R   0.499990 0.680320 0.618770 -0.591139
O6    O     O_R   0.500000 0.680360 0.381190 -0.587427
O7    O     O_R   0.680350 0.499980 0.618770 -0.588999
O8    O     O_R   0.680360 0.500020 0.381180 -0.556037
C29   C     C_3   0.146308 0.893363 0.794512 -0.899323
H17   H     H_    0.247896 0.883909 0.782023 0.231209
H18   H     H_    0.119834 0.984126 0.751913 0.236437
H19   H     H_    0.124623 0.891105 0.907899 0.233540
O9    O     O_3   0.868172 0.330223 0.346257 -0.577860
C30   C     C_3   0.879972 0.348982 0.200982 -0.277794
H20   H     H_    0.855001 0.444512 0.171121 0.157194
H21   H     H_    0.814843 0.284353 0.145436 0.184825
H22   H     H_    0.974990 0.328392 0.164803 0.146007

loop_
_geom_bond_atom_site_label_1
_geom_bond_atom_site_label_2
_ccdc_geom_bond_type
C30   H21   S    
Cu1   O5    S    
C16   C21   S    
C23   O7    A    
C30   H20   S    
C20   H7    S    
C1    C8    S    
C20   H8    S    
C9    C10   A    
C11   C22   S    
Cu1   O7    S    
C19   C20   S    
C21   H9    S    
C7    C13   A    
C18   N2    A    
C10   H15   S    
C7    C15   S    
C17   C18   A    
C29   H17   S    
C5    O9    S    
C23   O8    A    
C22   O6    A    
Cu1   O1    S    
C13   C14   S    
C20   C21   S    
C24   H11   S    
Cu2   O6    S    
C18   H6    S    
C26   C27   A    
Cu1   Cu2   S    
C21   H10   S    
C25   C29   S    
C16   C19   A    
C5    C6    A    
C6    C23   S    
C16   N1    A    
C17   H5    S    
C12   O4    A    
Cu1   O3    S    
C2    C3    A    
C22   O5    A    
C2    C24   A    
O9    C30   S    
Cu2   O2    S    
C29   H18   S    
C4    H1    S    
C7    C8    A    
C10   C11   A    
Cu1   N2    S    
C3    C4    A    
C27   H13   S    
Cu2   N1    S    
C11   C13   A    
C12   O3    A    
C24   C25   A    
C26   H12   S    
C14   H16   S    
C1    O2    A    
C27   C28   A    
Cu2   O4    S    
C14   C15   S    
C4    C5    A    
C29   H19   S    
C2    C28   A    
C3    C12   S    
C15   H4    S    
C30   H22   S    
C25   C26   A    
C19   N2    A    
Cu2   O8    S    
C15   H3    S    
C6    C28   A    
C17   N1    A    
C14   H2    S    
C8    C9    A    
C9    H14   S    
C1    O1    A    
