data_mof_unit_54916.cif
_audit_creation_date              2012-10-26T19:48:07-0400
_audit_creation_method            fapswitch 2.2
_symmetry_space_group_name_H-M    P1
_symmetry_Int_Tables_number       1
_space_group_crystal_system       triclinic
_cell_length_a                    10.753466
_cell_length_b                    9.563709
_cell_length_c                    10.61185
_cell_angle_alpha                 90.001133
_cell_angle_beta                  89.563619
_cell_angle_gamma                 89.338294
_cell_volume                      1091.2502589

loop_
_atom_site_label
_atom_site_type_symbol
_atom_type_description
_atom_site_fract_x
_atom_site_fract_y
_atom_site_fract_z
_atom_type_partial_charge
C1    C     C_R   0.260326 0.500130 0.507281 0.558660
C2    C     C_3   0.929738 0.512299 0.376292 -0.247927
C3    C     C_3   0.629933 0.081230 0.503968 -0.023508
C4    C     C_3   0.629322 0.913548 0.496522 -0.019188
C5    C     C_3   0.432879 0.083150 0.613097 -0.126703
C6    C     C_3   0.442007 0.917857 0.618532 -0.127746
C7    C     C_3   0.443149 0.083333 0.385404 -0.006456
C8    C     C_3   0.431377 0.917875 0.391963 -0.007678
C9    C     C_R   0.501175 0.499894 0.259863 0.567397
C10   C     C_R   0.739279 0.499370 0.505946 0.548802
C11   C     C_R   0.500279 0.500175 0.740410 0.556192
C12   C     C_3   0.502548 0.499595 0.122885 0.039294
C13   C     C_3   0.400451 0.568237 0.043609 -0.109393
C14   C     C_3   0.501852 0.367379 0.041216 -0.111965
C15   C     C_3   0.399644 0.436140 0.959818 -0.107516
C16   C     C_3   0.501506 0.500943 0.877717 0.041240
C17   C     C_3   0.502489 0.633306 0.959509 -0.108247
C18   C     C_3   0.603922 0.432453 0.957059 -0.131370
C19   C     C_3   0.604781 0.564601 0.041217 -0.124208
C20   C     C_1   0.708598 0.138494 0.400205 0.222293
C21   C     C_1   0.695555 0.859649 0.382083 0.232566
C22   C     C_1   0.327643 0.154366 0.345091 0.244489
C23   C     C_3   0.067996 0.621641 0.596975 -0.114546
C24   C     C_1   0.299913 0.875913 0.387009 0.222525
C25   C     C_1   0.113602 0.619093 0.727832 0.188655
C26   C     C_1   0.122896 0.306692 0.683640 0.194052
C27   C     C_3   0.070178 0.354872 0.563135 -0.106586
C28   C     C_3   0.923962 0.621893 0.593322 -0.232833
C29   C     C_3   0.927036 0.361204 0.572003 -0.233165
C30   C     C_3   0.072454 0.518114 0.378213 -0.269278
C31   C     C_3   0.121628 0.498753 0.514439 0.025547
C32   C     C_3   0.877153 0.498459 0.511668 0.020056
Cu1   Cu    Cu3+1 0.499860 0.642410 0.500060 0.924677
Cu2   Cu    Cu3+1 0.499860 0.357590 0.500060 0.935092
H1    H     H_    0.315324 0.383715 0.925614 0.173457
H2    H     H_    0.502630 0.742395 0.923722 0.118822
H3    H     H_    0.687121 0.376985 0.918472 0.117116
H4    H     H_    0.688736 0.616943 0.077849 0.139790
H5    H     H_    0.099077 0.722431 0.557343 0.152464
H6    H     H_    0.095112 0.272501 0.493448 0.152762
H7    H     H_    0.891462 0.723141 0.552829 0.131035
H8    H     H_    0.890415 0.268066 0.523350 0.141878
H9    H     H_    0.102856 0.618931 0.337967 0.166571
H10   H     H_    0.110919 0.435777 0.314840 0.157648
H11   H     H_    0.471007 0.125596 0.701988 0.133492
H12   H     H_    0.892797 0.608387 0.330756 0.164245
H13   H     H_    0.496818 0.887048 0.702781 0.112439
H14   H     H_    0.333442 0.115805 0.610366 0.146751
H15   H     H_    0.347922 0.873705 0.633853 0.143113
H16   H     H_    0.882688 0.614893 0.689750 0.119079
H17   H     H_    0.893516 0.355438 0.671541 0.120524
H18   H     H_    0.900232 0.422114 0.318033 0.160504
H19   H     H_    0.675704 0.111894 0.593397 0.087220
H20   H     H_    0.682771 0.873315 0.578531 0.094557
H21   H     H_    0.504552 0.104453 0.303088 0.096274
H22   H     H_    0.471856 0.875522 0.303112 0.114542
H23   H     H_    0.317192 0.623642 0.082165 0.137176
H24   H     H_    0.501475 0.258320 0.077129 0.128226
N1    N     N_3   0.500250 0.143650 0.502780 -0.264632
N2    N     N_3   0.500250 0.856350 0.502780 -0.265097
N3    N     N_1   0.768952 0.180665 0.318057 -0.312381
N4    N     N_1   0.746139 0.819625 0.292198 -0.324828
N5    N     N_1   0.237307 0.206268 0.308335 -0.324689
N6    N     N_1   0.195657 0.849704 0.379627 -0.341663
N7    N     N_1   0.149396 0.617755 0.830393 -0.308707
N8    N     N_1   0.163227 0.266822 0.777900 -0.325466
O1    O     O_R   0.317570 0.620260 0.500070 -0.499738
O2    O     O_R   0.317570 0.379740 0.500070 -0.496332
O3    O     O_R   0.499850 0.620240 0.316900 -0.505725
O4    O     O_R   0.499850 0.379760 0.316900 -0.500099
O5    O     O_R   0.682190 0.620260 0.500030 -0.511949
O6    O     O_R   0.682190 0.379740 0.500030 -0.505889
O7    O     O_R   0.499910 0.620280 0.683200 -0.518636
O8    O     O_R   0.499910 0.379720 0.683200 -0.517079

loop_
_geom_bond_atom_site_label_1
_geom_bond_atom_site_label_2
_ccdc_geom_bond_type
C29   H8    S    
C27   C29   S    
C14   C18   S    
C7    H21   S    
C8    H22   S    
C7    C8    S    
C2    H12   S    
C26   C27   S    
C18   H3    S    
C9    O3    A    
C29   C32   S    
C30   C31   S    
C13   H23   S    
C15   C16   S    
C28   H7    S    
C1    C31   S    
C1    O2    A    
C2    C32   S    
C18   C19   S    
C7    N1    S    
C20   N3    T    
C17   C19   S    
C22   N5    T    
C28   H16   S    
C16   C17   S    
C17   H2    S    
Cu2   O4    S    
Cu1   O3    S    
C10   O5    A    
C24   N6    T    
C30   H10   S    
C15   H1    S    
C14   H24   S    
C5    H14   S    
C6    H13   S    
C5    N1    S    
C27   C31   S    
C26   N8    T    
C6    N2    S    
C28   C32   S    
C25   N7    T    
C9    O4    A    
C11   O7    A    
Cu2   O2    S    
C5    H11   S    
C23   C31   S    
C19   H4    S    
C11   C16   S    
C27   H6    S    
C4    N2    S    
Cu1   Cu2   S    
C3    C20   S    
C23   C28   S    
C21   N4    T    
C2    H18   S    
Cu2   O8    S    
Cu1   O7    S    
C12   C14   S    
Cu1   N2    S    
C13   C15   S    
Cu2   N1    S    
C30   H9    S    
C3    C4    S    
Cu2   O6    S    
Cu1   O1    S    
C29   H17   S    
C4    H20   S    
C11   O8    A    
C1    O1    A    
C7    C22   S    
C13   C17   S    
C2    C30   S    
C8    N2    S    
C4    C21   S    
C3    H19   S    
C5    C6    S    
C23   H5    S    
C12   C19   S    
C8    C24   S    
C23   C25   S    
C6    H15   S    
C9    C12   S    
Cu1   O5    S    
C10   C32   S    
C12   C13   S    
C16   C18   S    
C14   C15   S    
C3    N1    S    
C10   O6    A    
