data_mof_unit_36616.cif
_audit_creation_date              2012-12-10T20:29:24-0500
_audit_creation_method            fapswitch 2.2
_symmetry_space_group_name_H-M    P1
_symmetry_Int_Tables_number       1
_space_group_crystal_system       triclinic
_cell_length_a                    18.638175
_cell_length_b                    18.560854
_cell_length_c                    18.968941
_cell_angle_alpha                 109.736975
_cell_angle_beta                  109.667357
_cell_angle_gamma                 108.926488
_cell_volume                      5056.45061823

loop_
_atom_site_label
_atom_site_type_symbol
_atom_type_description
_atom_site_fract_x
_atom_site_fract_y
_atom_site_fract_z
_atom_type_partial_charge
C1    C     C_R   0.380125 0.501014 0.380089 0.896060
C2    C     C_R   0.818241 0.770677 0.820365 -0.096638
C3    C     C_R   0.317481 0.343070 0.740667 -0.138144
C4    C     C_R   0.073632 0.331100 0.807770 -0.249309
C5    C     C_R   0.995193 0.312693 0.808999 -0.088300
C6    C     C_R   0.917453 0.231775 0.745498 0.025182
C7    C     C_R   0.921640 0.169334 0.683866 -0.193958
C8    C     C_R   0.000541 0.187650 0.684448 -0.055762
C9    C     C_R   0.077161 0.268976 0.745649 0.016187
C10   C     C_R   0.780499 0.135741 0.736782 -0.150865
C11   C     C_R   0.697216 0.115279 0.726468 -0.165723
C12   C     C_R   0.663031 0.170307 0.716822 -0.121576
C13   C     C_R   0.825028 0.817805 0.574937 -0.249825
C14   C     C_R   0.712005 0.245823 0.717310 -0.117401
C15   C     C_R   0.795277 0.266418 0.727482 -0.110059
C16   C     C_R   0.830581 0.211968 0.738145 0.132737
C17   C     C_R   0.812054 0.811511 0.495962 -0.075031
C18   C     C_R   0.733948 0.744376 0.417796 0.014224
C19   C     C_R   0.671728 0.681476 0.420762 -0.253623
C20   C     C_R   0.685020 0.688005 0.500086 -0.064795
C21   C     C_R   0.760928 0.757603 0.577888 0.011267
C22   C     C_R   0.646114 0.749060 0.288541 -0.219063
C23   C     C_R   0.628877 0.745330 0.209372 -0.135222
C24   C     C_R   0.681460 0.731419 0.173353 0.250554
C25   C     C_R   0.619833 0.620642 0.500036 0.866294
C26   C     C_R   0.751188 0.721418 0.218637 -0.196873
C27   C     C_R   0.768016 0.725090 0.297700 -0.148161
C28   C     C_R   0.715363 0.738417 0.332980 0.131515
C29   C     C_R   0.477780 0.789341 0.542329 -0.162074
C30   C     C_R   0.405408 0.706604 0.478049 -0.165862
C31   C     C_R   0.391824 0.668019 0.393640 0.016933
C32   C     C_R   0.451481 0.715140 0.373656 0.543494
C33   C     C_R   0.522750 0.798910 0.438727 -0.203655
C34   C     C_R   0.536506 0.835304 0.522782 -0.210944
C35   C     C_R   0.248223 0.578076 0.261107 -0.199149
C36   C     C_R   0.622477 0.501746 0.619499 0.883844
C37   C     C_R   0.185087 0.498787 0.185009 -0.176764
C38   C     C_R   0.185950 0.419888 0.170336 -0.109761
C39   C     C_R   0.249385 0.420339 0.235646 0.470672
C40   C     C_R   0.312417 0.500611 0.314148 -0.218106
C41   C     C_R   0.313879 0.580552 0.325523 -0.015011
C42   C     C_R   0.043604 0.279206 0.062758 -0.192540
C43   C     C_R   0.989015 0.202317 0.981769 -0.263076
C44   C     C_R   0.018293 0.182905 0.921540 0.631559
C45   C     C_R   0.101063 0.244058 0.943069 -0.211875
C46   C     C_R   0.155272 0.321151 0.023736 -0.225947
C47   C     C_R   0.376278 0.380008 0.496202 0.871687
C48   C     C_R   0.127098 0.338801 0.084217 0.190955
C49   C     C_R   0.212236 0.509390 0.474785 -0.162787
C50   C     C_R   0.241805 0.458767 0.503459 -0.138183
C51   C     C_R   0.200183 0.367231 0.449795 0.084833
C52   C     C_R   0.125641 0.326906 0.368530 -0.248342
C53   C     C_R   0.096152 0.377228 0.339645 -0.221034
C54   C     C_R   0.139007 0.469015 0.392002 0.270004
C55   C     C_R   0.168380 0.245858 0.481157 -0.221007
C56   C     C_R   0.186995 0.184375 0.498097 -0.110480
C57   C     C_R   0.267462 0.186765 0.513324 0.097574
C58   C     C_R   0.762192 0.801718 0.788437 0.228891
C59   C     C_R   0.328443 0.252797 0.512364 -0.192048
C60   C     C_R   0.309657 0.314174 0.495691 -0.088492
C61   C     C_R   0.228676 0.311112 0.478922 0.052390
C62   C     C_R   0.362026 0.145524 0.603194 0.552839
C63   C     C_R   0.380510 0.080859 0.614006 -0.362069
C64   C     C_R   0.329646 0.992186 0.547985 0.075634
C65   C     C_R   0.259555 0.968060 0.469284 0.552268
C66   C     C_R   0.238471 0.031552 0.459918 -0.352100
C67   C     C_R   0.288726 0.119963 0.526443 -0.044513
C68   C     C_R   0.781252 0.518475 0.613157 -0.178995
C69   C     C_R   0.744392 0.798384 0.708962 -0.197718
C70   C     C_R   0.853249 0.517920 0.606390 -0.159809
C71   C     C_R   0.910324 0.503951 0.662396 -0.135226
C72   C     C_R   0.897247 0.493302 0.727180 -0.191677
C73   C     C_R   0.826468 0.497090 0.737383 0.067640
C74   C     C_R   0.765520 0.505590 0.677104 0.107355
C75   C     C_R   0.691361 0.502484 0.683702 -0.090890
C76   C     C_R   0.679006 0.493855 0.749464 -0.260097
C77   C     C_R   0.739434 0.487573 0.809433 -0.187124
C78   C     C_R   0.813772 0.491395 0.805280 -0.133275
C79   C     C_R   0.998262 0.877327 0.380809 0.861587
C80   C     C_R   0.780123 0.763007 0.661702 0.087331
C81   C     C_R   0.879531 0.878315 0.498015 0.876557
C82   C     C_R   0.000754 0.121136 0.619463 0.893941
C83   C     C_R   0.120510 0.118881 0.498920 0.888354
C84   C     C_R   0.997756 0.379305 0.877862 0.858801
C85   C     C_R   0.119930 0.499990 0.119907 0.912321
C86   C     C_R   0.000670 0.620557 0.120576 0.927679
C87   C     C_R   0.879830 0.496168 0.876331 0.922487
C88   C     C_R   0.068136 0.750532 0.539305 -0.161062
C89   C     C_R   0.070223 0.768280 0.473792 -0.075309
C90   C     C_R   0.995859 0.718882 0.390764 0.086648
C91   C     C_R   0.836167 0.733621 0.694702 -0.186508
C92   C     C_R   0.921441 0.647847 0.372981 -0.201657
C93   C     C_R   0.919390 0.630411 0.438677 -0.122452
C94   C     C_R   0.992509 0.682087 0.521943 -0.103201
C95   C     C_R   0.996283 0.673306 0.253374 -0.256954
C96   C     C_R   0.000854 0.687267 0.186863 -0.051148
C97   C     C_R   0.006436 0.764227 0.185428 0.059708
C98   C     C_R   0.005553 0.825594 0.250628 -0.241879
C99   C     C_R   0.000861 0.811631 0.317013 -0.030062
C100  C     C_R   0.998349 0.736032 0.320444 0.033717
C101  C     C_R   0.082842 0.854263 0.134512 -0.234881
C102  C     C_R   0.854970 0.737314 0.773417 -0.201385
C103  C     C_R   0.091251 0.864883 0.067736 -0.136826
C104  C     C_R   0.027689 0.801590 0.981698 -0.206163
C105  C     C_R   0.954071 0.729370 0.962566 -0.203685
C106  C     C_R   0.942982 0.720423 0.028910 0.578493
C107  C     C_R   0.010164 0.780457 0.115363 0.009623
C108  C     C_R   0.292045 0.283730 0.768824 -0.202528
C109  C     C_R   0.214177 0.259951 0.771404 -0.129230
C110  C     C_R   0.159706 0.293199 0.742955 0.034140
C111  C     C_R   0.185419 0.352800 0.714723 -0.305316
C112  C     C_R   0.266111 0.380204 0.715742 0.588322
H1    H     H_    0.834299 0.772421 0.881297 0.139796
H2    H     H_    0.793137 0.711384 0.192889 0.140890
H3    H     H_    0.822949 0.719197 0.332313 0.118951
H4    H     H_    0.592206 0.899741 0.572581 0.149010
H5    H     H_    0.488094 0.818062 0.607335 0.130861
H6    H     H_    0.360704 0.672086 0.494581 0.146936
H7    H     H_    0.567624 0.836199 0.423912 0.148953
H8    H     H_    0.248390 0.638795 0.268703 0.160414
H9    H     H_    0.020674 0.292660 0.108587 0.135204
H10   H     H_    0.924159 0.158852 0.966433 0.134314
H11   H     H_    0.123795 0.231342 0.897052 0.157542
H12   H     H_    0.219343 0.367057 0.039203 0.150582
H13   H     H_    0.246474 0.579649 0.518280 0.128824
H14   H     H_    0.296099 0.491250 0.568252 0.192147
H15   H     H_    0.091008 0.256128 0.326595 0.144010
H16   H     H_    0.039335 0.344309 0.276000 0.127092
H17   H     H_    0.701942 0.822355 0.683322 0.132303
H18   H     H_    0.106049 0.242924 0.469278 0.165075
H19   H     H_    0.390772 0.255952 0.523714 0.149335
H20   H     H_    0.434193 0.099393 0.674371 0.168694
H21   H     H_    0.183213 0.011876 0.399967 0.156794
H22   H     H_    0.621655 0.490908 0.753728 0.158703
H23   H     H_    0.739403 0.530711 0.568880 0.151719
H24   H     H_    0.864362 0.527673 0.557056 0.127869
H25   H     H_    0.865040 0.707443 0.659097 0.144312
H26   H     H_    0.965155 0.501652 0.655841 0.131622
H27   H     H_    0.942243 0.480570 0.767693 0.148965
H28   H     H_    0.729237 0.482051 0.860770 0.186048
H29   H     H_    0.990916 0.668462 0.572724 0.115736
H30   H     H_    0.125329 0.789478 0.603392 0.118507
H31   H     H_    0.129819 0.820150 0.487546 0.175686
H32   H     H_    0.864784 0.606484 0.308405 0.133793
H33   H     H_    0.861262 0.576594 0.424938 0.126564
H34   H     H_    0.992970 0.614022 0.253849 0.150606
H35   H     H_    0.008429 0.884585 0.249633 0.140311
H36   H     H_    0.898151 0.713657 0.796764 0.147486
H37   H     H_    0.133807 0.902393 0.200861 0.144017
H38   H     H_    0.147963 0.921171 0.082658 0.142182
H39   H     H_    0.035731 0.808639 0.930106 0.148813
H40   H     H_    0.905125 0.679302 0.896517 0.149916
H41   H     H_    0.378443 0.361889 0.739857 0.192148
H42   H     H_    0.333200 0.256748 0.789421 0.176694
H43   H     H_    0.196167 0.215414 0.795166 0.149410
H44   H     H_    0.142441 0.377370 0.692123 0.146867
H45   H     H_    0.884951 0.870403 0.634699 0.163456
H46   H     H_    0.132876 0.393737 0.856124 0.167916
H47   H     H_    0.863009 0.106518 0.634392 0.137837
H48   H     H_    0.805783 0.092097 0.743403 0.161697
H49   H     H_    0.658988 0.056501 0.725510 0.120929
H50   H     H_    0.598392 0.154043 0.708406 0.113804
H51   H     H_    0.685219 0.288066 0.709192 0.130904
H52   H     H_    0.831893 0.324168 0.726173 0.093012
H53   H     H_    0.613182 0.627152 0.361181 0.144751
H54   H     H_    0.606267 0.761720 0.316025 0.173313
H55   H     H_    0.574791 0.753978 0.177498 0.155410
O1    O     O_R   0.408360 0.551710 0.460090 -0.634304
O2    O     O_R   0.948280 0.908380 0.356650 -0.627772
O3    O     O_R   0.960110 0.908350 0.551690 -0.620604
O4    O     O_R   0.856660 0.908370 0.448270 -0.613872
O5    O     O_R   0.051720 0.091580 0.643310 -0.619749
O6    O     O_R   0.948270 0.091600 0.539890 -0.627959
O7    O     O_R   0.143340 0.091590 0.551680 -0.601658
O8    O     O_R   0.039890 0.091610 0.448270 -0.635245
O9    O     O_R   0.051710 0.460040 0.908380 -0.642219
O10   O     O_R   0.948270 0.356620 0.908410 -0.606561
O11   O     O_R   0.143330 0.551680 0.091590 -0.615338
O12   O     O_R   0.408390 0.448280 0.356670 -0.574480
O13   O     O_R   0.039890 0.448260 0.091620 -0.634974
O14   O     O_R   0.051700 0.643310 0.091570 -0.630138
O15   O     O_R   0.948260 0.539890 0.091600 -0.615680
O16   O     O_R   0.960080 0.551670 0.908360 -0.628626
O17   O     O_R   0.856640 0.448250 0.908390 -0.611533
O18   O     O_R   0.591600 0.643340 0.551710 -0.615060
O19   O     O_R   0.591630 0.539900 0.448290 -0.637590
O20   O     O_R   0.591610 0.551720 0.643330 -0.609294
O21   O     O_R   0.591640 0.448290 0.539910 -0.630855
O22   O     O_R   0.408370 0.460100 0.551710 -0.616918
O23   O     O_R   0.408400 0.356660 0.448290 -0.627380
O24   O     O_R   0.051730 0.908360 0.460070 -0.618403
Zn1   Zn    Zn3+2 0.499980 0.569070 0.569050 0.938959
Zn2   Zn    Zn3+2 0.500020 0.430930 0.430950 0.963027
Zn3   Zn    Zn3+2 0.069080 0.999960 0.569030 0.962069
Zn4   Zn    Zn3+2 0.930920 0.999990 0.430930 0.953774
Zn5   Zn    Zn3+2 0.069060 0.569020 0.999970 0.955914
Zn6   Zn    Zn3+2 0.930920 0.430910 0.000010 0.962292
C113  C     C_3   0.667229 0.727389 0.088251 -0.439602
C114  C     C_3   0.590586 0.738885 0.041953 -0.894782
H56   H     H_    0.527868 0.685942 0.025647 0.260297
H57   H     H_    0.600660 0.804424 0.082888 0.257203
H58   H     H_    0.586445 0.734653 0.980759 0.256200
H59   H     H_    0.727954 0.779615 0.100428 0.206054
H60   H     H_    0.656109 0.662655 0.043815 0.202407
O25   O     O_3   0.437139 0.685993 0.289902 -0.626132
C115  C     C_3   0.439274 0.606512 0.256993 -0.319164
H61   H     H_    0.372006 0.551489 0.206917 0.199115
H62   H     H_    0.468373 0.590079 0.306892 0.133026
H63   H     H_    0.478365 0.611184 0.224166 0.185190
O26   O     O_3   0.257796 0.345570 0.216890 -0.588576
C116  C     C_3   0.212278 0.295558 0.244643 -0.262372
H64   H     H_    0.142434 0.279062 0.215809 0.144352
H65   H     H_    0.245328 0.330237 0.316311 0.162576
H66   H     H_    0.213307 0.232612 0.223044 0.183918
C117  C     C_3   0.719921 0.838752 0.835474 -0.430329
C118  C     C_3   0.736970 0.835123 0.918606 -0.907294
H67   H     H_    0.712022 0.765950 0.904508 0.257733
H68   H     H_    0.808071 0.875236 0.967137 0.256260
H69   H     H_    0.701968 0.862442 0.946712 0.255593
H70   H     H_    0.743434 0.908475 0.851560 0.191702
H71   H     H_    0.647844 0.801507 0.790804 0.204763
O27   O     O_3   0.966862 0.109000 0.839170 -0.624185
C119  C     C_3   0.919507 0.032826 0.840005 -0.366887
H72   H     H_    0.858971 0.029578 0.840033 0.154062
H73   H     H_    0.959969 0.028341 0.895252 0.171244
H74   H     H_    0.898828 0.974295 0.779702 0.204079
C120  C     C_3   0.102332 0.519030 0.356613 -0.433257
C121  C     C_3   0.151748 0.618899 0.415727 -0.875926
H75   H     H_    0.151125 0.636375 0.477499 0.262032
H76   H     H_    0.219962 0.647342 0.428528 0.253561
H77   H     H_    0.119530 0.648276 0.383231 0.264616
H78   H     H_    0.101508 0.504804 0.294471 0.213854
H79   H     H_    0.033324 0.493845 0.342303 0.208734
O28   O     O_3   0.409298 0.232549 0.669504 -0.617351
C122  C     C_3   0.499740 0.266987 0.698461 -0.382882
H80   H     H_    0.513283 0.246820 0.644105 0.158622
H81   H     H_    0.529979 0.248298 0.745511 0.172000
H82   H     H_    0.531708 0.339838 0.733055 0.197288
C123  C     C_3   0.352415 0.925057 0.562036 -0.372046
C124  C     C_3   0.339231 0.914265 0.633807 -0.895551
H83   H     H_    0.386087 0.975747 0.697276 0.255972
H84   H     H_    0.271340 0.897393 0.619896 0.256150
H85   H     H_    0.350694 0.860383 0.638038 0.241897
H86   H     H_    0.311684 0.859363 0.502420 0.241836
H87   H     H_    0.421882 0.946265 0.579267 0.197395
O29   O     O_3   0.208095 0.881551 0.402793 -0.621017
C125  C     C_3   0.242277 0.869187 0.346464 -0.354948
H88   H     H_    0.243711 0.914210 0.319747 0.160680
H89   H     H_    0.199320 0.800650 0.291316 0.206924
H90   H     H_    0.309103 0.878302 0.379363 0.160386
O30   O     O_3   0.869652 0.649034 0.009022 -0.630949
C126  C     C_3   0.801823 0.669870 0.996802 -0.409332
H91   H     H_    0.780246 0.676208 0.938031 0.178724
H92   H     H_    0.821648 0.730886 0.054675 0.164750
H93   H     H_    0.744816 0.615173 0.986751 0.198014
O31   O     O_3   0.295151 0.438902 0.688589 -0.611309
C127  C     C_3   0.281964 0.511167 0.720868 -0.377369
H94   H     H_    0.296765 0.534928 0.789141 0.163321
H95   H     H_    0.214187 0.494392 0.678260 0.173264
H96   H     H_    0.327344 0.566652 0.720074 0.185816

loop_
_geom_bond_atom_site_label_1
_geom_bond_atom_site_label_2
_ccdc_geom_bond_type
C78   C87   S    
C101  C107  A    
C55   C56   A    
C4    C9    A    
C93   C94   A    
C62   O28   S    
C83   O8    A    
C73   C74   A    
O19   Zn2   S    
O5    Zn3   S    
C95   C96   A    
C51   C61   S    
C77   H28   S    
C3    H41   S    
C117  C118  S    
C121  H76   S    
C97   C98   A    
C119  H74   S    
O30   C126  S    
O2    Zn4   S    
C123  H86   S    
C77   C78   A    
C45   H11   S    
C95   H34   S    
C59   H19   S    
C26   C27   A    
C37   C38   A    
C62   C67   A    
O18   Zn1   S    
C8    C82   S    
C104  H39   S    
C37   C85   S    
C53   H16   S    
C123  C124  S    
C24   C26   A    
C18   C19   A    
C88   C89   A    
C87   O16   A    
C5    C6    A    
C25   O18   A    
C2    H1    S    
C115  H62   S    
C112  O31   S    
C7    H47   S    
C20   C25   S    
C2    C102  A    
C34   H4    S    
C15   C16   A    
C11   H49   S    
C108  C109  A    
C79   O24   A    
C127  H94   S    
C88   H30   S    
C14   H51   S    
C49   C50   A    
O14   Zn5   S    
C110  C111  A    
C104  C105  A    
C64   C123  S    
O13   Zn6   S    
C103  H38   S    
C102  H36   S    
C47   C60   S    
C91   H25   S    
O26   C116  S    
C72   H27   S    
C4    H46   S    
C19   C20   A    
C8    C9    A    
O6    Zn4   S    
C86   O14   A    
C122  H80   S    
C118  H69   S    
C93   H33   S    
C113  C114  S    
C50   H14   S    
C2    C58   A    
C86   O15   A    
C111  H44   S    
C38   C48   S    
C1    C40   S    
C58   C117  S    
C12   H50   S    
C66   C67   A    
C24   C113  S    
C59   C60   A    
C101  C103  A    
O10   Zn6   S    
C96   C97   A    
C70   H24   S    
C122  H81   S    
C46   H12   S    
C35   H8    S    
C13   H45   S    
O15   Zn6   S    
C57   C67   S    
C92   H32   S    
C117  H71   S    
C90   C100  S    
C121  H75   S    
C52   H15   S    
C50   C51   A    
C71   H26   S    
C88   C94   A    
C125  H89   S    
C38   C39   A    
C120  H79   S    
C46   C48   A    
O16   Zn5   S    
C74   C75   A    
C51   C52   A    
C11   C12   A    
C15   H52   S    
C7    C8    A    
C18   C28   S    
C76   C77   A    
C119  H72   S    
O4    Zn4   S    
C25   O19   A    
C39   C40   A    
O3    Zn3   S    
C5    C84   S    
C76   H22   S    
C115  H61   S    
C4    C5    A    
C30   H6    S    
C1    O1    A    
C45   C46   A    
O11   Zn5   S    
C29   C34   A    
C124  H85   S    
C63   C64   A    
C39   O26   S    
C60   C61   A    
C36   O21   A    
C22   H54   S    
C106  O30   S    
C47   O22   A    
O22   Zn1   S    
C75   C76   A    
C26   H2    S    
C116  H64   S    
C29   C30   A    
C98   H35   S    
C36   C75   S    
C114  H58   S    
C66   H21   S    
C90   C92   A    
C31   C32   A    
C14   C15   A    
C82   O6    A    
C3    C112  A    
C73   C78   A    
C55   H18   S    
O31   C127  S    
C62   C63   A    
C124  H84   S    
C17   C18   A    
C13   C21   A    
C42   C48   A    
C81   O3    A    
O9    Zn5   S    
C43   H10   S    
O20   Zn1   S    
C70   C71   A    
C35   C41   A    
C86   C96   S    
C63   H20   S    
C82   O5    A    
C23   H55   S    
C69   H17   S    
C40   C41   A    
C116  H65   S    
C113  H59   S    
C12   C14   A    
O21   Zn2   S    
O7    Zn3   S    
C117  H70   S    
C126  H93   S    
C43   C44   A    
C113  H60   S    
C122  H82   S    
O23   Zn2   S    
C44   O27   S    
O28   C122  S    
C91   C102  A    
C10   H48   S    
C87   O17   A    
C52   C53   A    
C120  C121  S    
C56   C83   S    
C126  H92   S    
O12   Zn2   S    
C125  H90   S    
C79   C99   S    
C9    C110  S    
C56   C57   A    
C105  H40   S    
O25   C115  S    
O29   C125  S    
O17   Zn6   S    
C31   C41   S    
C111  C112  A    
C35   C37   A    
C95   C100  A    
C94   H29   S    
C68   H23   S    
C44   C45   A    
C118  H68   S    
C72   C73   A    
C125  H88   S    
C119  H73   S    
C58   C69   A    
C53   C54   A    
C6    C7    A    
C3    C108  A    
C49   H13   S    
C105  C106  A    
O1    Zn1   S    
C99   C100  A    
C13   C17   A    
C123  H87   S    
C127  H96   S    
C64   C65   A    
C36   O20   A    
C80   C91   A    
C106  C107  A    
C89   C90   A    
O24   Zn3   S    
C71   C72   A    
C65   C66   A    
C89   H31   S    
C109  C110  A    
C32   C33   A    
C124  H83   S    
C1    O12   A    
C115  H63   S    
C79   O2    A    
C30   C31   A    
C10   C16   A    
C29   H5    S    
C47   O23   A    
C85   O13   A    
C55   C61   A    
C21   C80   S    
C101  H37   S    
C92   C93   A    
C85   O11   A    
C33   C34   A    
C120  H78   S    
C17   C81   S    
C81   O4    A    
O27   C119  S    
C109  H43   S    
C54   C120  S    
C65   O29   S    
C57   C59   A    
C10   C11   A    
C23   C24   A    
C6    C16   S    
C84   O10   A    
C97   C107  S    
C118  H67   S    
C114  H56   S    
C116  H66   S    
C108  H42   S    
C20   C21   A    
C33   H7    S    
C68   C70   A    
C98   C99   A    
C42   C43   A    
C83   O7    A    
C103  C104  A    
C114  H57   S    
C22   C23   A    
C69   C80   A    
C22   C28   A    
C19   H53   S    
C127  H95   S    
C32   O25   S    
C84   O9    A    
C68   C74   A    
O8    Zn4   S    
C121  H77   S    
C49   C54   A    
C42   H9    S    
C126  H91   S    
C27   C28   A    
C27   H3    S    
