data_mof_unit_31804.cif
_audit_creation_date              2012-12-10T19:09:32-0500
_audit_creation_method            fapswitch 2.2
_symmetry_space_group_name_H-M    P1
_symmetry_Int_Tables_number       1
_space_group_crystal_system       triclinic
_cell_length_a                    16.112489
_cell_length_b                    16.424738
_cell_length_c                    10.505643
_cell_angle_alpha                 89.973469
_cell_angle_beta                  89.99649
_cell_angle_gamma                 89.999511
_cell_volume                      2780.24888808

loop_
_atom_site_label
_atom_site_type_symbol
_atom_type_description
_atom_site_fract_x
_atom_site_fract_y
_atom_site_fract_z
_atom_type_partial_charge
C1    C     C_R   0.122213 0.380900 0.499760 1.082628
C2    C     C_R   0.878545 0.619753 0.500707 1.044814
C3    C     C_R   0.378531 0.880262 0.499301 1.044827
C4    C     C_R   0.382018 0.122391 0.498850 1.057244
C5    C     C_3   0.814257 0.252037 0.629052 0.195407
C6    C     C_3   0.822475 0.250351 0.387815 0.107649
C7    C     C_3   0.827191 0.751657 0.395286 0.107729
C8    C     C_3   0.801783 0.738664 0.631519 0.172385
C9    C     C_3   0.327140 0.748389 0.604786 0.107860
C10   C     C_3   0.301793 0.761355 0.368525 0.172189
C11   C     C_3   0.314275 0.247966 0.370967 0.195550
C12   C     C_R   0.121727 0.618892 0.501132 1.050592
C13   C     C_3   0.322472 0.249661 0.612196 0.107717
C14   C     C_3   0.252890 0.687970 0.623741 -0.362286
C15   C     C_3   0.248074 0.683021 0.383127 -0.284317
C16   C     C_3   0.257835 0.324440 0.383777 -0.381846
C17   C     C_3   0.247641 0.309793 0.624972 -0.314920
C18   C     C_3   0.757813 0.175567 0.616238 -0.381825
C19   C     C_3   0.747650 0.190215 0.375033 -0.315051
C20   C     C_3   0.752920 0.812044 0.376285 -0.362005
C21   C     C_3   0.748069 0.817012 0.616909 -0.284250
C22   C     C_3   0.725645 0.345088 0.506090 0.469136
C23   C     C_R   0.621714 0.881097 0.498866 1.051130
C24   C     C_3   0.718267 0.657113 0.476380 0.474358
C25   C     C_3   0.218233 0.842906 0.523622 0.474376
C26   C     C_3   0.225649 0.154921 0.493933 0.469105
C27   C     C_3   0.814307 0.307687 0.505541 -0.299824
C28   C     C_3   0.809440 0.689238 0.502258 -0.282693
C29   C     C_3   0.309416 0.810787 0.497773 -0.282773
C30   C     C_3   0.314312 0.192319 0.494476 -0.299878
C31   C     C_3   0.191861 0.687139 0.503880 -0.312402
C32   C     C_3   0.194842 0.313955 0.498790 -0.280251
C33   C     C_3   0.694837 0.186052 0.501211 -0.280216
C34   C     C_R   0.622211 0.119104 0.500237 1.082841
C35   C     C_3   0.691868 0.812871 0.496135 -0.311786
C36   C     C_3   0.150320 0.773260 0.501256 0.539180
C37   C     C_3   0.157033 0.225297 0.484971 0.540200
C38   C     C_3   0.657028 0.274712 0.515027 0.540152
C39   C     C_3   0.650342 0.726742 0.498764 0.538749
C40   C     C_3   0.058759 0.436221 0.078570 -0.075202
C41   C     C_3   0.047246 0.427723 0.921131 -0.220948
C42   C     C_3   0.038763 0.578385 0.922841 -0.217232
C43   C     C_3   0.025682 0.584214 0.081196 -0.141539
C44   C     C_3   0.538731 0.921603 0.077151 -0.217303
C45   C     C_3   0.911206 0.483714 0.077187 -0.200459
C46   C     C_3   0.525647 0.915773 0.918801 -0.141472
C47   C     C_3   0.558785 0.063755 0.921406 -0.075012
C48   C     C_3   0.547279 0.072257 0.078857 -0.220972
C49   C     C_2   0.287952 0.608206 0.669345 0.710333
C50   C     C_2   0.292791 0.603570 0.377547 0.522437
C51   C     C_2   0.312622 0.398795 0.381456 0.851428
C52   C     C_2   0.274659 0.390230 0.677053 0.524013
C53   C     C_2   0.812604 0.101218 0.618552 0.851517
C54   C     C_2   0.774680 0.109782 0.322953 0.524177
C55   C     C_2   0.787967 0.891809 0.330644 0.710752
C56   C     C_3   0.909291 0.496649 0.919852 -0.150909
C57   C     C_2   0.792764 0.896490 0.622536 0.522248
C58   C     C_2   0.052726 0.353134 0.140177 0.709353
C59   C     C_2   0.014032 0.348151 0.869452 0.743781
C60   C     C_2   0.008777 0.653610 0.855624 0.630893
C61   C     C_2   0.971057 0.652697 0.138160 0.471081
C62   C     C_2   0.508728 0.846380 0.144364 0.630876
C63   C     C_2   0.471001 0.847312 0.861829 0.471143
C64   C     C_2   0.552770 0.146843 0.859805 0.709192
C65   C     C_2   0.514093 0.151843 0.130539 0.743742
C66   C     C_2   0.150652 0.453433 0.112981 0.228592
C67   C     C_3   0.409293 0.003380 0.080165 -0.150826
C68   C     C_2   0.131012 0.415581 0.860358 0.171790
C69   C     C_2   0.133055 0.588486 0.893650 0.447686
C70   C     C_2   0.106644 0.621236 0.134383 0.394243
C71   C     C_2   0.633021 0.911494 0.106313 0.448001
C72   C     C_2   0.606595 0.878701 0.865631 0.394058
C73   C     C_2   0.650670 0.046518 0.886925 0.228038
C74   C     C_2   0.631054 0.084359 0.139622 0.171872
C75   C     C_2   0.874990 0.400641 0.119442 0.555730
C76   C     C_2   0.846526 0.433457 0.869277 0.643523
C77   C     C_2   0.859872 0.574276 0.880151 0.382449
C78   C     C_3   0.411209 0.016309 0.922827 -0.200490
C79   C     C_2   0.840918 0.536775 0.130334 0.322336
C80   C     C_2   0.359847 0.925774 0.119899 0.382478
C81   C     C_2   0.340907 0.963260 0.869693 0.322314
C82   C     C_2   0.375007 0.099387 0.880570 0.555735
C83   C     C_2   0.346551 0.066596 0.130739 0.643448
C84   C     C_R   0.882015 0.377611 0.501156 1.057308
Cl1   Cl    Cl    0.912267 0.229848 0.694833 -0.371266
Cl2   Cl    Cl    0.713012 0.411903 0.371314 -0.396292
Cl3   Cl    Cl    0.710519 0.612384 0.321579 -0.374824
Cl4   Cl    Cl    0.694935 0.576126 0.576183 -0.279945
Cl5   Cl    Cl    0.210464 0.887669 0.678405 -0.374770
Cl6   Cl    Cl    0.194890 0.923867 0.423779 -0.279910
Cl7   Cl    Cl    0.218816 0.089196 0.358523 -0.394442
Cl8   Cl    Cl    0.213004 0.088125 0.628728 -0.396344
Cl9   Cl    Cl    0.070945 0.779027 0.619209 -0.346546
Cl10  Cl    Cl    0.097231 0.784132 0.349930 -0.393312
Cl11  Cl    Cl    0.102126 0.219258 0.338088 -0.413552
Cl12  Cl    Cl    0.920126 0.199646 0.390733 -0.401010
Cl13  Cl    Cl    0.080837 0.209853 0.602828 -0.366800
Cl14  Cl    Cl    0.602097 0.280750 0.661894 -0.413481
Cl15  Cl    Cl    0.580857 0.290162 0.397150 -0.366808
Cl16  Cl    Cl    0.570961 0.720962 0.380838 -0.346471
Cl17  Cl    Cl    0.597263 0.715844 0.650099 -0.393257
Cl18  Cl    Cl    0.922545 0.801922 0.426240 -0.443399
Cl19  Cl    Cl    0.891673 0.761712 0.718137 -0.472419
Cl20  Cl    Cl    0.422544 0.698184 0.573987 -0.443595
Cl21  Cl    Cl    0.391713 0.738251 0.281993 -0.472064
Cl22  Cl    Cl    0.412295 0.270144 0.305197 -0.371128
Cl23  Cl    Cl    0.420114 0.300380 0.609260 -0.400947
Cl24  Cl    Cl    0.718799 0.410801 0.641519 -0.394400
H1    H     H_    0.785712 0.283844 0.709277 0.230315
H2    H     H_    0.210006 0.681792 0.297748 0.220131
H3    H     H_    0.220348 0.328237 0.295334 0.222387
H4    H     H_    0.207641 0.284324 0.700619 0.233136
H5    H     H_    0.720314 0.171756 0.704679 0.222241
H6    H     H_    0.707657 0.215676 0.299376 0.233115
H7    H     H_    0.717494 0.785321 0.297932 0.271796
H8    H     H_    0.709987 0.818230 0.702270 0.219715
H9    H     H_    0.319898 0.569670 0.602942 0.139376
H10   H     H_    0.359322 0.596954 0.367972 0.212687
H11   H     H_    0.344645 0.420682 0.464526 0.122932
H12   H     H_    0.823913 0.286422 0.299717 0.189689
H13   H     H_    0.313823 0.393500 0.761008 0.192249
H14   H     H_    0.844696 0.079393 0.535495 0.123232
H15   H     H_    0.813856 0.106514 0.239002 0.192210
H16   H     H_    0.819958 0.930334 0.397011 0.140146
H17   H     H_    0.859242 0.903146 0.633230 0.213116
H18   H     H_    0.095886 0.305800 0.110911 0.135078
H19   H     H_    0.001586 0.347230 0.769138 0.171342
H20   H     H_    0.991295 0.647035 0.759450 0.153170
H21   H     H_    0.977473 0.665833 0.238236 0.168252
H22   H     H_    0.491298 0.852945 0.240565 0.153173
H23   H     H_    0.837467 0.719869 0.303430 0.200356
H24   H     H_    0.477450 0.834150 0.761756 0.168328
H25   H     H_    0.595951 0.194162 0.889047 0.134982
H26   H     H_    0.501643 0.152775 0.230853 0.171332
H27   H     H_    0.201947 0.454940 0.048164 0.181173
H28   H     H_    0.151859 0.456926 0.789299 0.189477
H29   H     H_    0.178957 0.545808 0.919459 0.067109
H30   H     H_    0.151055 0.589788 0.188162 0.167540
H31   H     H_    0.678924 0.954135 0.080306 0.067069
H32   H     H_    0.651031 0.910115 0.811866 0.167226
H33   H     H_    0.701989 0.045120 0.951705 0.181343
H34   H     H_    0.768563 0.699468 0.700078 0.239432
H35   H     H_    0.651890 0.043003 0.210682 0.189496
H36   H     H_    0.831017 0.398025 0.196197 0.141073
H37   H     H_    0.780548 0.444439 0.883564 0.186693
H38   H     H_    0.865165 0.629974 0.929700 0.171623
H39   H     H_    0.849315 0.583519 0.196971 0.169766
H40   H     H_    0.365119 0.870067 0.070378 0.171649
H41   H     H_    0.349289 0.916543 0.803002 0.169815
H42   H     H_    0.331026 0.102008 0.803832 0.141019
H43   H     H_    0.280568 0.055638 0.116467 0.186667
H44   H     H_    0.337351 0.780197 0.696640 0.200483
H45   H     H_    0.268606 0.800550 0.299930 0.239401
H46   H     H_    0.285734 0.216155 0.290748 0.230256
H47   H     H_    0.323912 0.213595 0.700298 0.189666
H48   H     H_    0.217432 0.714659 0.702096 0.271869
N1    N     N_3   0.998760 0.500000 0.138610 -0.195509
N2    N     N_3   0.998760 0.500000 0.861390 -0.251070
N3    N     N_3   0.498760 1.000000 0.138610 -0.251064
N4    N     N_3   0.498760 0.000000 0.861390 -0.195426
O1    O     O_R   0.092530 0.407440 0.616040 -0.674389
O2    O     O_R   0.907330 0.407420 0.383960 -0.614812
O3    O     O_R   0.907330 0.592580 0.383960 -0.713966
O4    O     O_R   0.907330 0.592580 0.616040 -0.597542
O5    O     O_R   0.407330 0.907420 0.616040 -0.713984
O6    O     O_R   0.407330 0.907420 0.383960 -0.597643
O7    O     O_R   0.407330 0.092580 0.383960 -0.594151
O8    O     O_R   0.407330 0.092580 0.616040 -0.614850
O9    O     O_2   0.298241 0.594311 0.782205 -0.486136
O10   O     O_2   0.251447 0.542817 0.389555 -0.583190
O11   O     O_2   0.332516 0.428458 0.279015 -0.449335
O12   O     O_R   0.092530 0.407440 0.383960 -0.530631
O13   O     O_2   0.250533 0.452532 0.628291 -0.672091
O14   O     O_2   0.832413 0.071487 0.720979 -0.450049
O15   O     O_2   0.750556 0.047479 0.371713 -0.671582
O16   O     O_2   0.798185 0.905722 0.217775 -0.486555
O17   O     O_2   0.751479 0.957233 0.609626 -0.583631
O18   O     O_2   0.004842 0.337637 0.225825 -0.460382
O19   O     O_2   0.011605 0.283574 0.926880 -0.443447
O20   O     O_2   0.020854 0.722315 0.896811 -0.316987
O21   O     O_2   0.926810 0.699458 0.079494 -0.507413
O22   O     O_2   0.520764 0.777678 0.103134 -0.316989
O23   O     O_R   0.092530 0.592560 0.383960 -0.627285
O24   O     O_2   0.426683 0.800596 0.920503 -0.507438
O25   O     O_2   0.504872 0.162358 0.774190 -0.460346
O26   O     O_2   0.511673 0.216417 0.073102 -0.443429
O27   O     O_2   0.173620 0.460465 0.221345 -0.508413
O28   O     O_2   0.176170 0.358798 0.891624 -0.591432
O29   O     O_2   0.163818 0.654788 0.871367 -0.452283
O30   O     O_2   0.126382 0.691436 0.108203 -0.419420
O31   O     O_2   0.663760 0.845211 0.128796 -0.452483
O32   O     O_2   0.626302 0.808499 0.891857 -0.419401
O33   O     O_2   0.673599 0.039363 0.778544 -0.508519
O34   O     O_R   0.092530 0.592560 0.616040 -0.663620
O35   O     O_2   0.676227 0.141135 0.108373 -0.591496
O36   O     O_2   0.888204 0.336156 0.066053 -0.489268
O37   O     O_2   0.862560 0.366012 0.833897 -0.559739
O38   O     O_2   0.806453 0.574584 0.797726 -0.485372
O39   O     O_2   0.769319 0.526752 0.094138 -0.448999
O40   O     O_2   0.306432 0.925493 0.202340 -0.485355
O41   O     O_2   0.269313 0.973281 0.905922 -0.449026
O42   O     O_2   0.388242 0.163874 0.933943 -0.489159
O43   O     O_2   0.362612 0.134039 0.166093 -0.559720
O44   O     O_R   0.592530 0.907440 0.616040 -0.627313
O45   O     O_R   0.592530 0.907440 0.383960 -0.663534
O46   O     O_R   0.592530 0.092560 0.383960 -0.674390
O47   O     O_R   0.592530 0.092560 0.616040 -0.530658
O48   O     O_R   0.907330 0.407420 0.616040 -0.594152
Zn1   Zn    Zn3+2 0.999890 0.500000 0.654960 0.975227
Zn2   Zn    Zn3+2 0.999890 0.500000 0.345040 1.011754
Zn3   Zn    Zn3+2 0.499890 1.000000 0.654960 1.011774
Zn4   Zn    Zn3+2 0.499890 0.000000 0.345040 0.975275

loop_
_geom_bond_atom_site_label_1
_geom_bond_atom_site_label_2
_ccdc_geom_bond_type
C57   O17   D    
C54   H15   S    
C9    H44   S    
C67   C83   S    
C56   C76   S    
C73   O33   D    
C2    C28   S    
C62   H22   S    
O8    Zn3   S    
C16   C51   S    
C14   C31   S    
C38   Cl14  S    
C37   Cl13  S    
C73   H33   S    
C34   O46   A    
O23   Zn2   S    
C6    C19   S    
C70   O30   D    
C25   Cl6   S    
C10   H45   S    
C27   C84   S    
O7    Zn4   S    
O12   Zn2   S    
C10   C15   S    
C20   C55   S    
C57   H17   S    
C81   H41   S    
C66   H27   S    
C14   C49   S    
C59   H19   S    
C22   C38   S    
C24   C39   S    
C37   Cl11  S    
C44   C71   S    
C52   H13   S    
C15   C50   S    
C3    C29   S    
C78   C82   S    
C13   H47   S    
C56   N2    S    
C18   C53   S    
O6    Zn4   S    
C5    C27   S    
C20   C35   S    
C43   C61   S    
C36   Cl9   S    
C49   H9    S    
C47   C48   S    
C11   C30   S    
O48   Zn1   S    
C7    Cl18  S    
C51   H11   S    
C48   C65   S    
C56   C77   S    
C77   O38   D    
C65   O26   D    
C7    H23   S    
C64   O25   D    
C11   H46   S    
C9    C29   S    
C6    Cl12  S    
C5    Cl1   S    
C75   O36   D    
N2    Zn1   S    
C22   Cl2   S    
C8    Cl19  S    
C1    O1    A    
N1    Zn2   S    
C40   C66   S    
C66   O27   D    
C23   O45   A    
C61   O21   D    
O47   Zn3   S    
C15   H2    S    
C42   N2    S    
C67   C78   S    
C21   H8    S    
C17   C52   S    
C6    H12   S    
C18   C33   S    
O3    Zn2   S    
C44   C46   S    
C53   O14   D    
C39   Cl17  S    
C41   C68   S    
C83   H43   S    
C47   N4    S    
C69   H29   S    
C48   N3    S    
C40   C58   S    
C48   C74   S    
C40   N1    S    
C68   H28   S    
C79   O39   D    
C47   C73   S    
C83   O43   D    
C19   C33   S    
C42   C60   S    
C47   C64   S    
C82   O42   D    
O5    Zn3   S    
C71   H31   S    
C5    C18   S    
O2    Zn2   S    
O45   Zn4   S    
C44   C62   S    
C26   Cl7   S    
C32   C37   S    
O1    Zn1   S    
C58   O18   D    
C42   C69   S    
N3    Zn4   S    
C4    O8    A    
C54   O15   D    
C35   C39   S    
C9    C14   S    
C45   C79   S    
C21   C57   S    
C36   Cl10  S    
C62   O22   D    
C11   C16   S    
C84   O48   A    
C6    C27   S    
C60   H20   S    
O4    Zn1   S    
C46   N4    S    
C11   Cl22  S    
C33   C34   S    
C10   C29   S    
C45   N1    S    
C50   O10   D    
C63   H24   S    
C15   C31   S    
C24   Cl4   S    
C41   C59   S    
C45   C75   S    
C82   H42   S    
C79   H39   S    
C19   C54   S    
C78   N4    S    
C40   C41   S    
C76   H37   S    
C70   H30   S    
C43   C70   S    
C23   C35   S    
C22   C27   S    
C12   C31   S    
C8    C28   S    
C74   H35   S    
C16   C32   S    
C42   C43   S    
C72   H32   S    
C2    O4    A    
C17   H4    S    
C84   O2    A    
C3    O5    A    
C64   H25   S    
C44   N3    S    
N4    Zn3   S    
C45   C56   S    
C74   O35   D    
C63   O24   D    
C14   H48   S    
C50   H10   S    
C12   O34   A    
C67   C80   S    
C24   C28   S    
C38   Cl15  S    
C43   N1    S    
C8    C21   S    
C2    O3    A    
C20   H7    S    
C67   N3    S    
C26   C37   S    
C58   H18   S    
C21   C35   S    
C61   H21   S    
C34   O47   A    
C60   O20   D    
C46   C63   S    
C1    O12   A    
C25   Cl5   S    
C33   C38   S    
C19   H6    S    
C4    O7    A    
C13   C17   S    
C23   O44   A    
C53   H14   S    
C51   O11   D    
C69   O29   D    
O34   Zn1   S    
C49   O9    D    
C78   C81   S    
C25   C29   S    
C39   Cl16  S    
C5    H1    S    
C76   O37   D    
C9    Cl20  S    
C22   Cl24  S    
C52   O13   D    
O44   Zn3   S    
C59   O19   D    
C65   H26   S    
C1    C32   S    
C3    O6    A    
C24   Cl3   S    
C55   O16   D    
C75   H36   S    
C7    C28   S    
C25   C36   S    
C41   N2    S    
C12   O23   A    
O46   Zn4   S    
C80   H40   S    
C13   C30   S    
C68   O28   D    
C7    C20   S    
C55   H16   S    
C13   Cl23  S    
C17   C32   S    
C18   H5    S    
C31   C36   S    
C10   Cl21  S    
C8    H34   S    
C46   C72   S    
C71   O31   D    
C26   Cl8   S    
C77   H38   S    
C72   O32   D    
C4    C30   S    
C81   O41   D    
C16   H3    S    
C26   C30   S    
C80   O40   D    
