data_mof_unit_37827.cif
_audit_creation_date              2012-12-11T17:07:58-0500
_audit_creation_method            fapswitch 2.2
_symmetry_space_group_name_H-M    P1
_symmetry_Int_Tables_number       1
_space_group_crystal_system       triclinic
_cell_length_a                    17.15365
_cell_length_b                    17.254279
_cell_length_c                    17.315756
_cell_angle_alpha                 89.996288
_cell_angle_beta                  89.998179
_cell_angle_gamma                 90.007894
_cell_volume                      5125.01113155

loop_
_atom_site_label
_atom_site_type_symbol
_atom_type_description
_atom_site_fract_x
_atom_site_fract_y
_atom_site_fract_z
_atom_type_partial_charge
C1    C     C_R   0.394765 0.302894 0.897040 -0.095328
C2    C     C_R   0.168091 0.925024 0.355291 -0.131032
C3    C     C_R   0.683275 0.771541 0.347619 -0.132594
C4    C     C_R   0.137138 0.223718 0.801040 -0.116104
C5    C     C_R   0.316604 0.771374 0.652261 -0.132298
C6    C     C_R   0.863032 0.775984 0.800890 -0.115900
C7    C     C_R   0.683343 0.228529 0.652339 -0.132255
C8    C     C_R   0.637228 0.276356 0.698928 -0.115981
C9    C     C_R   0.816841 0.728146 0.847419 -0.132617
C10   C     C_R   0.362696 0.723563 0.698881 -0.116117
C11   C     C_R   0.183279 0.271549 0.847611 -0.132603
C12   C     C_R   0.637130 0.723703 0.301054 -0.116149
C13   C     C_R   0.105242 0.197110 0.397043 -0.095249
C14   C     C_R   0.816659 0.271460 0.152312 -0.132333
C15   C     C_R   0.362890 0.276263 0.301045 -0.116109
C16   C     C_R   0.183369 0.728625 0.152268 -0.132334
C17   C     C_R   0.831929 0.074977 0.355279 -0.130972
C18   C     C_R   0.894790 0.197100 0.602969 -0.095635
C19   C     C_R   0.168030 0.074964 0.644751 -0.130747
C20   C     C_R   0.105199 0.802897 0.602963 -0.095729
C21   C     C_R   0.832044 0.925050 0.644812 -0.130534
C22   C     C_3   0.864771 0.331313 0.720669 -0.048012
C23   C     C_3   0.685035 0.891481 0.738541 -0.051295
C24   C     C_3   0.135133 0.668985 0.720994 -0.048200
C25   C     C_R   0.668079 0.425020 0.855280 -0.131057
C26   C     C_3   0.315384 0.109534 0.737373 -0.051804
C27   C     C_3   0.864633 0.668308 0.279727 -0.048314
C28   C     C_3   0.684429 0.109905 0.263088 -0.051609
C29   C     C_3   0.135422 0.331833 0.279882 -0.048425
C30   C     C_3   0.315693 0.889834 0.263385 -0.051713
C31   C     C_3   0.364846 0.831050 0.220951 -0.048086
C32   C     C_3   0.184685 0.390594 0.237515 -0.051557
C33   C     C_3   0.635238 0.168679 0.220675 -0.048249
C34   C     C_3   0.815387 0.609542 0.237355 -0.051618
C35   C     C_3   0.364629 0.168295 0.779751 -0.048505
C36   C     C_R   0.605268 0.697110 0.897040 -0.094839
C37   C     C_3   0.184281 0.610201 0.763440 -0.051687
C38   C     C_3   0.635652 0.832744 0.780812 -0.048706
C39   C     C_3   0.815583 0.390087 0.763077 -0.051595
C40   C     C_R   0.420167 0.670234 0.855563 -0.083661
C41   C     C_R   0.302666 0.393297 0.895780 -0.109934
C42   C     C_R   0.579810 0.329778 0.855562 -0.083236
C43   C     C_R   0.697335 0.606686 0.895765 -0.110326
C44   C     C_R   0.420229 0.329804 0.144460 -0.083542
C45   C     C_R   0.302668 0.606703 0.104217 -0.109552
C46   C     C_R   0.579779 0.670199 0.144453 -0.083461
C47   C     C_R   0.331898 0.574987 0.855304 -0.131005
C48   C     C_R   0.697331 0.393302 0.104220 -0.109648
C49   C     C_R   0.920195 0.170222 0.355555 -0.083503
C50   C     C_R   0.802666 0.893298 0.395776 -0.109840
C51   C     C_R   0.079820 0.829782 0.355557 -0.083423
C52   C     C_R   0.197337 0.106704 0.395780 -0.109984
C53   C     C_R   0.920269 0.829803 0.644454 -0.083463
C54   C     C_R   0.802669 0.106695 0.604225 -0.109480
C55   C     C_R   0.079783 0.170202 0.644450 -0.083545
C56   C     C_R   0.197328 0.893297 0.604219 -0.109515
C57   C     C_R   0.318122 0.316656 0.878430 0.109576
C58   C     C_R   0.394799 0.697099 0.102969 -0.095665
C59   C     C_R   0.638505 0.364847 0.812033 0.075186
C60   C     C_R   0.681921 0.683342 0.878413 0.109670
C61   C     C_R   0.361453 0.635165 0.812057 0.075157
C62   C     C_R   0.318162 0.683334 0.121573 0.109589
C63   C     C_R   0.638435 0.635123 0.188009 0.075325
C64   C     C_R   0.681849 0.316665 0.121574 0.109589
C65   C     C_R   0.361584 0.364883 0.188027 0.075335
C66   C     C_R   0.818124 0.816660 0.378420 0.109595
C67   C     C_R   0.138526 0.864856 0.312041 0.075167
C68   C     C_R   0.181887 0.183349 0.378435 0.109558
C69   C     C_R   0.668025 0.574961 0.144753 -0.130780
C70   C     C_R   0.861504 0.135151 0.312026 0.075247
C71   C     C_R   0.818152 0.183329 0.621581 0.109723
C72   C     C_R   0.138442 0.135129 0.688006 0.075348
C73   C     C_R   0.181829 0.816663 0.621568 0.109594
C74   C     C_R   0.861668 0.864878 0.688073 0.075540
C75   C     C_R   0.746540 0.362625 0.716737 0.100367
C76   C     C_R   0.707852 0.813012 0.825473 0.033113
C77   C     C_R   0.253299 0.637444 0.716927 0.100414
C78   C     C_R   0.292568 0.187287 0.824884 0.033167
C79   C     C_R   0.746317 0.637255 0.283505 0.100713
C80   C     C_R   0.605211 0.302897 0.102967 -0.095486
C81   C     C_R   0.707248 0.187413 0.175365 0.033210
C82   C     C_R   0.253763 0.362799 0.283610 0.100841
C83   C     C_R   0.292866 0.812513 0.175513 0.033074
C84   C     C_R   0.246671 0.862567 0.216894 0.100406
C85   C     C_R   0.207492 0.312760 0.324970 0.033036
C86   C     C_R   0.753467 0.137369 0.216741 0.100579
C87   C     C_R   0.792573 0.687298 0.324860 0.033017
C88   C     C_R   0.246312 0.137249 0.783518 0.100927
C89   C     C_R   0.207107 0.687493 0.675532 0.033143
C90   C     C_R   0.754201 0.863027 0.784150 0.101243
C91   C     C_R   0.331991 0.425046 0.144767 -0.130742
C92   C     C_R   0.792757 0.312580 0.675365 0.032980
C93   C     C_R   0.671500 0.338648 0.738981 0.039263
C94   C     C_R   0.736379 0.742476 0.852998 0.059140
C95   C     C_R   0.328397 0.661356 0.739039 0.039063
C96   C     C_R   0.263799 0.257511 0.852875 0.059139
C97   C     C_R   0.671355 0.661315 0.261109 0.039343
C98   C     C_R   0.736115 0.257525 0.147186 0.059291
C99   C     C_R   0.328689 0.338695 0.261148 0.039299
C100  C     C_R   0.263932 0.742480 0.147222 0.059303
C101  C     C_R   0.171571 0.838662 0.239016 0.039202
C102  C     C_R   0.894767 0.802897 0.397031 -0.095345
C103  C     C_R   0.236229 0.242496 0.352904 0.059173
C104  C     C_R   0.828507 0.161347 0.238974 0.039178
C105  C     C_R   0.763800 0.757516 0.352861 0.059223
C106  C     C_R   0.171358 0.161322 0.761108 0.039270
C107  C     C_R   0.236047 0.757516 0.647218 0.059237
C108  C     C_R   0.828938 0.838683 0.761290 0.039384
C109  C     C_R   0.763887 0.242467 0.647199 0.059394
C110  C     C_R   0.137263 0.776453 0.198867 -0.116063
C111  C     C_R   0.316740 0.228427 0.347610 -0.132626
C112  C     C_R   0.862777 0.223635 0.198905 -0.116069
H1    H     H_    0.422576 0.247106 0.903485 0.098405
H2    H     H_    0.210908 0.966912 0.338143 0.139399
H3    H     H_    0.077433 0.252897 0.403495 0.098366
H4    H     H_    0.789140 0.033071 0.338118 0.139280
H5    H     H_    0.922615 0.252892 0.596539 0.098284
H6    H     H_    0.210772 0.033030 0.661941 0.139165
H7    H     H_    0.077373 0.747104 0.596538 0.098265
H8    H     H_    0.789406 0.967061 0.662065 0.138700
H9    H     H_    0.911573 0.357512 0.684841 0.161722
H10   H     H_    0.688583 0.879962 0.675528 0.154907
H11   H     H_    0.088224 0.642809 0.685298 0.161683
H12   H     H_    0.710874 0.466923 0.838115 0.139265
H13   H     H_    0.311338 0.121408 0.674474 0.155179
H14   H     H_    0.911305 0.642084 0.315694 0.161804
H15   H     H_    0.688665 0.121894 0.325947 0.155221
H16   H     H_    0.088786 0.358069 0.315886 0.161841
H17   H     H_    0.311323 0.877748 0.326222 0.155305
H18   H     H_    0.411743 0.857230 0.185232 0.161707
H19   H     H_    0.188684 0.378760 0.174605 0.155141
H20   H     H_    0.588437 0.142482 0.184856 0.161805
H21   H     H_    0.811335 0.621411 0.174456 0.155185
H22   H     H_    0.411300 0.142066 0.815716 0.161809
H23   H     H_    0.577471 0.752896 0.903522 0.098508
H24   H     H_    0.188665 0.622298 0.826270 0.155315
H25   H     H_    0.589314 0.859055 0.817173 0.161999
H26   H     H_    0.811348 0.378097 0.825940 0.155300
H27   H     H_    0.456015 0.719058 0.839450 0.119528
H28   H     H_    0.245920 0.420287 0.899236 0.112236
H29   H     H_    0.543944 0.280968 0.839455 0.119058
H30   H     H_    0.754067 0.579672 0.899255 0.112096
H31   H     H_    0.456112 0.281015 0.160566 0.118767
H32   H     H_    0.245911 0.579712 0.100800 0.111999
H33   H     H_    0.543901 0.718990 0.160562 0.118673
H34   H     H_    0.289077 0.533103 0.838164 0.139396
H35   H     H_    0.754084 0.420301 0.100790 0.112019
H36   H     H_    0.956060 0.219033 0.339442 0.119092
H37   H     H_    0.745920 0.920289 0.399226 0.112099
H38   H     H_    0.043964 0.780968 0.339438 0.119061
H39   H     H_    0.254080 0.079710 0.399242 0.112198
H40   H     H_    0.956183 0.781029 0.660532 0.118481
H41   H     H_    0.745917 0.079690 0.600813 0.111615
H42   H     H_    0.043905 0.218994 0.660556 0.118759
H43   H     H_    0.254085 0.920289 0.600803 0.112001
H44   H     H_    0.078103 0.758823 0.210671 0.165393
H45   H     H_    0.422630 0.752891 0.096551 0.098278
H46   H     H_    0.342446 0.176543 0.371689 0.149193
H47   H     H_    0.921900 0.241331 0.210777 0.165412
H48   H     H_    0.657547 0.823390 0.371751 0.149109
H49   H     H_    0.078058 0.241497 0.789061 0.165209
H50   H     H_    0.342409 0.823093 0.627920 0.149003
H51   H     H_    0.921992 0.757966 0.788644 0.164934
H52   H     H_    0.657570 0.176749 0.628099 0.148704
H53   H     H_    0.578105 0.258659 0.710810 0.165301
H54   H     H_    0.842451 0.676071 0.871205 0.149214
H55   H     H_    0.421833 0.741216 0.710705 0.165746
H56   H     H_    0.710767 0.533028 0.161944 0.139147
H57   H     H_    0.157554 0.323407 0.871727 0.149219
H58   H     H_    0.578040 0.741465 0.289095 0.165125
H59   H     H_    0.842431 0.323236 0.128057 0.148992
H60   H     H_    0.421952 0.258457 0.289034 0.165211
H61   H     H_    0.157564 0.676904 0.127934 0.148932
H62   H     H_    0.577387 0.247105 0.096540 0.098345
H63   H     H_    0.289268 0.466994 0.161966 0.139111
H64   H     H_    0.922579 0.747109 0.403470 0.098366
I1    I     I_    0.901409 0.240566 0.798433 -0.401541
I2    I     I_    0.154027 0.507880 0.266185 -0.387493
I3    I     I_    0.598601 0.259419 0.298429 -0.402229
I4    I     I_    0.846160 0.492270 0.265951 -0.387778
I5    I     I_    0.401604 0.258791 0.701829 -0.403268
I6    I     I_    0.152794 0.492972 0.735451 -0.388518
I7    I     I_    0.597838 0.742947 0.702421 -0.404220
I8    I     I_    0.846756 0.507332 0.734796 -0.388798
I9    I     I_    0.655329 0.008846 0.768051 -0.386717
I10   I     I_    0.098762 0.759945 0.798615 -0.401619
I11   I     I_    0.346140 0.992259 0.765962 -0.387751
I12   I     I_    0.901603 0.758801 0.201802 -0.402807
I13   I     I_    0.653263 0.992663 0.234826 -0.388061
I14   I     I_    0.098362 0.241427 0.201909 -0.403113
I15   I     I_    0.347150 0.007066 0.235348 -0.388491
I16   I     I_    0.401251 0.740113 0.298602 -0.401852
N1    N     N_R   0.425360 0.368540 0.922560 -0.044608
N2    N     N_R   0.131460 0.925360 0.422560 -0.047966
N3    N     N_R   0.074640 0.131460 0.422560 -0.044593
N4    N     N_R   0.868540 0.074640 0.422560 -0.047973
N5    N     N_R   0.925360 0.131460 0.577440 -0.044527
N6    N     N_R   0.131460 0.074640 0.577440 -0.047977
N7    N     N_R   0.074640 0.868540 0.577440 -0.044507
N8    N     N_R   0.868540 0.925360 0.577440 -0.047983
N9    N     N_R   0.425340 0.631500 0.922560 -0.049683
N10   N     N_R   0.368500 0.425340 0.922560 -0.045222
N11   N     N_R   0.574660 0.368500 0.922560 -0.049691
N12   N     N_R   0.631460 0.425360 0.922560 -0.047937
N13   N     N_R   0.631500 0.574660 0.922560 -0.045234
N14   N     N_R   0.425340 0.368500 0.077440 -0.049678
N15   N     N_R   0.368500 0.574660 0.077440 -0.045218
N16   N     N_R   0.574660 0.631500 0.077440 -0.049689
N17   N     N_R   0.631500 0.425340 0.077440 -0.045218
N18   N     N_R   0.925340 0.131500 0.422560 -0.049680
N19   N     N_R   0.868500 0.925340 0.422560 -0.045226
N20   N     N_R   0.074660 0.868500 0.422560 -0.049676
N21   N     N_R   0.131500 0.074660 0.422560 -0.045211
N22   N     N_R   0.925340 0.868500 0.577440 -0.049679
N23   N     N_R   0.574640 0.631460 0.922560 -0.044695
N24   N     N_R   0.868500 0.074660 0.577440 -0.045246
N25   N     N_R   0.074660 0.131500 0.577440 -0.049677
N26   N     N_R   0.131500 0.925340 0.577440 -0.045211
N27   N     N_R   0.368540 0.574640 0.922560 -0.047955
N28   N     N_R   0.425360 0.631460 0.077440 -0.044513
N29   N     N_R   0.631460 0.574640 0.077440 -0.047953
N30   N     N_R   0.574640 0.368540 0.077440 -0.044548
N31   N     N_R   0.368540 0.425360 0.077440 -0.047970
N32   N     N_R   0.925360 0.868540 0.422560 -0.044586
Ni1   Ni    Ni4+2 0.500000 0.369720 0.000000 0.230031
Ni2   Ni    Ni4+2 0.630280 0.500000 0.000000 0.227931
Ni3   Ni    Ni4+2 0.500000 0.630280 0.000000 0.229965
Ni4   Ni    Ni4+2 0.369720 0.500000 0.000000 0.227922
Ni5   Ni    Ni4+2 0.000000 0.869720 0.500000 0.230017
Ni6   Ni    Ni4+2 0.130280 0.000000 0.500000 0.227926
Ni7   Ni    Ni4+2 0.000000 0.130280 0.500000 0.229981
Ni8   Ni    Ni4+2 0.869720 0.000000 0.500000 0.227882

loop_
_geom_bond_atom_site_label_1
_geom_bond_atom_site_label_2
_ccdc_geom_bond_type
C11   C96   A    
C58   C62   A    
C55   H42   S    
N11   N12   A    
C40   H27   S    
C67   C101  S    
C53   N22   A    
C84   C101  A    
C112  H47   S    
C43   N13   A    
C82   C99   A    
N2    Ni6   S    
C34   I4    S    
C53   C74   A    
C68   C103  S    
C25   N12   A    
C86   C104  A    
C28   I13   S    
C54   H41   S    
C56   N26   A    
C42   N11   A    
C102  N32   A    
C7    C8    A    
C55   N25   A    
C38   C76   S    
C3    C105  A    
C54   N24   A    
C77   C89   A    
N15   N28   A    
C21   H8    S    
C82   C85   A    
C103  C111  A    
C9    H54   S    
C111  H46   S    
C29   C32   S    
C22   I1    S    
C36   N23   A    
C63   C69   A    
C30   C31   S    
C27   H14   S    
C70   C104  S    
C92   C109  A    
C73   C107  S    
C46   H33   S    
C33   I3    S    
C81   C98   A    
N19   N32   A    
C102  H64   S    
C48   H35   S    
C71   C109  S    
C45   C62   A    
C31   C83   S    
C24   I10   S    
C40   N9    A    
C66   C102  A    
N26   Ni6   S    
C41   H28   S    
C80   N30   A    
C3    C12   A    
C76   C94   A    
C33   C81   S    
C58   N28   A    
C51   N20   A    
C54   C71   A    
N4    Ni8   S    
C51   H38   S    
C78   C96   A    
C10   H55   S    
C57   C96   S    
C49   N18   A    
C15   H60   S    
C45   H32   S    
N8    N22   A    
N18   Ni7   S    
C39   C75   S    
N27   Ni4   S    
C29   C85   S    
C39   I8    S    
C52   C68   A    
C28   H15   S    
N4    N18   A    
C64   C98   S    
C47   H34   S    
C17   C70   A    
C45   N15   A    
C24   C89   S    
C30   C84   S    
N17   N30   A    
C64   C80   A    
C32   I2    S    
C44   C65   A    
N7    N26   A    
C1    H1    S    
C6    C9    A    
C56   H43   S    
C35   H22   S    
C79   C87   A    
C90   C108  A    
C14   C98   A    
C23   H10   S    
N5    Ni7   S    
C27   C34   S    
C52   H39   S    
C23   C90   S    
N3    N21   A    
N19   Ni8   S    
C16   C110  A    
C15   C111  A    
C19   C72   A    
C65   C99   S    
C2    C67   A    
C104  C112  A    
N31   Ni4   S    
C16   C100  A    
C12   H58   S    
N30   Ni1   S    
N16   N29   A    
C47   N27   A    
C31   I16   S    
C77   C95   A    
C24   H11   S    
C40   C61   A    
C7    C109  A    
N28   Ni3   S    
C2    N2    A    
C26   H13   S    
C43   H30   S    
C14   C112  A    
C20   N7    A    
C46   N16   A    
C1    C57   A    
C34   C79   S    
C53   H40   S    
C88   C106  A    
C26   I11   S    
N15   Ni4   S    
C55   C72   A    
C83   C84   A    
C87   C105  A    
N14   N31   A    
C91   H63   S    
C89   C107  A    
C18   N5    A    
C44   N14   A    
C24   C37   S    
C37   H24   S    
N3    Ni7   S    
N13   Ni2   S    
C51   C67   A    
C30   I15   S    
C48   N17   A    
C4    C11   A    
C27   C87   S    
C50   C66   A    
C18   H5    S    
N9    N27   A    
C12   C97   A    
C13   H3    S    
N5    N24   A    
C43   C60   A    
C38   I7    S    
C4    C106  A    
C62   C100  S    
C75   C92   A    
C33   H20   S    
C26   C88   S    
C41   C57   A    
C72   C106  S    
C28   C33   S    
C11   H57   S    
C49   C70   A    
C16   H61   S    
C28   C86   S    
C3    H48   S    
N6    N25   A    
C35   I5    S    
N17   Ni2   S    
C66   C105  S    
C91   N31   A    
C21   C74   A    
C36   H23   S    
N6    Ni6   S    
N11   Ni1   S    
C29   I14   S    
C75   C93   A    
C22   H9    S    
C23   I9    S    
C5    C107  A    
C78   C88   A    
C18   C71   A    
C65   C91   A    
C19   N6    A    
C6    C108  A    
C56   C73   A    
C4    H49   S    
N14   Ni1   S    
C22   C39   S    
C79   C97   A    
C110  H44   S    
C8    C93   A    
C81   C86   A    
C15   C99   A    
C14   H59   S    
C36   C60   A    
C58   H45   S    
C85   C103  A    
C42   C59   A    
C47   C61   A    
N10   Ni4   S    
C61   C95   S    
C31   H18   S    
C30   H17   S    
C32   C82   S    
C7    H52   S    
C35   C78   S    
C34   H21   S    
C23   C38   S    
C46   C63   A    
C83   C100  A    
N13   N23   A    
C59   C93   S    
C5    H50   S    
C101  C110  A    
C69   H56   S    
N1    Ni1   S    
C5    C10   A    
N16   Ni3   S    
N32   Ni5   S    
N25   Ni7   S    
N20   Ni5   S    
C2    H2    S    
C50   H37   S    
C37   C77   S    
C10   C95   A    
C44   H31   S    
C37   I6    S    
N29   Ni2   S    
C52   N21   A    
N24   Ni8   S    
C38   H25   S    
N9    Ni3   S    
C20   C73   A    
C69   N29   A    
C27   I12   S    
C20   H7    S    
N7    Ni5   S    
C25   H12   S    
C39   H26   S    
N2    N20   A    
C48   C64   A    
C8    H53   S    
N1    N10   A    
C74   C108  S    
N23   Ni3   S    
C26   C35   S    
N8    Ni8   S    
C6    H51   S    
C49   H36   S    
C63   C97   S    
C13   N3    A    
C29   H16   S    
C19   H6    S    
C22   C92   S    
C1    N1    A    
C80   H62   S    
C17   N4    A    
C25   C59   A    
C21   N8    A    
C41   N10   A    
N22   Ni5   S    
C50   N19   A    
N12   Ni2   S    
C9    C94   A    
C32   H19   S    
N21   Ni6   S    
C42   H29   S    
C17   H4    S    
C76   C90   A    
C13   C68   A    
C60   C94   S    
