data_mof_unit_67453.cif
_audit_creation_date              2013-03-05T15:40:58-0500
_audit_creation_method            fapswitch 2.2
_symmetry_space_group_name_H-M    P1
_symmetry_Int_Tables_number       1
_space_group_crystal_system       triclinic
_cell_length_a                    10.888895
_cell_length_b                    8.735646
_cell_length_c                    7.602243
_cell_angle_alpha                 102.375279
_cell_angle_beta                  96.726562
_cell_angle_gamma                 93.817433
_cell_volume                      698.332736067

loop_
_atom_site_label
_atom_site_type_symbol
_atom_site_description
_atom_site_fract_x
_atom_site_fract_y
_atom_site_fract_z
_atom_type_partial_charge
O1    O     O_R   0.509140 0.286130 0.619770 -0.610652
O2    O     O_R   0.485380 0.256770 0.308360 -0.594910
C1    C     C_R   0.499041 0.200760 0.454688 0.872005
O3    O     O_R   0.329570 0.514650 0.655700 -0.569713
O4    O     O_R   0.305810 0.485300 0.344290 -0.580857
C2    C     C_R   0.259973 0.498508 0.499538 0.799246
Cu1   Cu    Cu3+1 0.514070 0.517380 0.684380 1.001108
Cu2   Cu    Cu3+1 0.485930 0.482620 0.315620 1.001856
O5    O     O_R   0.514620 0.743230 0.691640 -0.535270
O6    O     O_R   0.490860 0.713870 0.380230 -0.575871
O7    O     O_R   0.694190 0.514700 0.655710 -0.577729
O8    O     O_R   0.670430 0.485350 0.344300 -0.584685
C3    C     C_R   0.514294 0.799235 0.545583 0.894474
C4    C     C_R   0.739337 0.501854 0.502088 0.804763
C5    C     C_3   0.086054 0.513081 0.702014 -0.196806
H1    H     H_    0.122879 0.410940 0.749723 0.169084
C6    C     C_3   0.942658 0.491624 0.694503 -0.453006
H2    H     H_    0.915346 0.376649 0.725239 0.211490
H3    H     H_    0.911200 0.582599 0.800841 0.223794
H4    H     H_    0.932516 0.750727 0.586443 0.180124
C7    C     C_3   0.070723 0.643567 0.425525 -0.214970
C8    C     C_3   0.049088 0.342067 0.387321 -0.277489
C9    C     C_3   0.121622 0.502965 0.502527 -0.122474
H5    H     H_    0.065621 0.255548 0.474319 0.184047
C10   C     C_3   0.876928 0.500088 0.503792 -0.014221
C11   C     C_3   0.933110 0.656658 0.461666 -0.238725
C12   C     C_3   0.906948 0.355364 0.360116 -0.112290
H6    H     H_    0.877547 0.381206 0.225536 0.189802
H7    H     H_    0.074688 0.614404 0.278042 0.164745
C13   C     C_2   0.497010 0.032887 0.433239 -0.393826
H8    H     H_    0.443816 0.962006 0.309138 0.180049
C14   C     C_2   0.544085 0.966264 0.567106 -0.185745
N1    N     N_2   0.464720 0.456420 0.038520 -0.068373
N2    N     N_2   0.535280 0.543580 0.961480 -0.196873
H9    H     H_    0.580055 0.643112 0.049393 0.234951
C15   C     C_2   0.141357 0.656334 0.848923 0.970314
O9    O     O_2   0.098955 0.783582 0.858322 -0.568235
O10   O     O_R   0.236172 0.639237 0.982187 -0.724227
H10   H     H_    0.263685 0.740969 0.075620 0.338144
C16   C     C_2   0.854928 0.710740 0.312936 0.848449
O11   O     O_2   0.776172 0.800205 0.354579 -0.633609
O12   O     O_R   0.867111 0.653874 0.130304 -0.800477
H11   H     H_    0.807586 0.698658 0.046089 0.330861
C17   C     C_2   0.633418 0.050235 0.727939 0.846460
O13   O     O_2   0.634038 0.009620 0.871987 -0.632172
O14   O     O_R   0.717207 0.174238 0.715409 -0.768501
H12   H     H_    0.767139 0.227097 0.836636 0.322830
C18   C     C_3   0.417882 0.303442 0.923306 -0.078525
C19   C     C_3   0.327931 0.201720 0.995813 -0.695500
H13   H     H_    0.369284 0.094500 0.022329 0.242951
H14   H     H_    0.302680 0.270006 0.119401 0.318242
H15   H     H_    0.242457 0.160671 0.896709 0.251425
H16   H     H_    0.363067 0.319451 0.799873 0.206070
H17   H     H_    0.498067 0.235648 0.900258 0.200614
C20   C     C_2   0.145402 0.803671 0.488924 0.866227
O15   O     O_2   0.110220 0.913832 0.427174 -0.586048
O16   O     O_R   0.253324 0.827577 0.613740 -0.750521
H18   H     H_    0.290390 0.941174 0.646026 0.317014
C21   C     C_2   0.090200 0.263567 0.209172 0.860062
O17   O     O_2   0.131314 0.135596 0.198652 -0.538680
O18   O     O_R   0.073757 0.322867 0.051853 -0.765686
H19   H     H_    0.024768 0.417264 0.060817 0.307551
C22   C     C_3   0.833263 0.196381 0.360655 -0.383680
C23   C     C_3   0.840966 0.068932 0.190714 -0.636601
H20   H     H_    0.849109 0.119335 0.070446 0.245109
H21   H     H_    0.921614 0.001239 0.212514 0.299098
H22   H     H_    0.755670 0.986432 0.160360 0.285992
H23   H     H_    0.866864 0.152369 0.482462 0.261243
H24   H     H_    0.733671 0.211510 0.363715 0.236750

loop_
_geom_bond_atom_site_label_1
_geom_bond_atom_site_label_2
_geom_bond_distance
_ccdc_geom_bond_type
O1    C1    1.303400 A    
C1    C13   1.438748 S    
Cu1   O7    1.999714 S    
C20   O15   1.222213 D    
C5    C6    1.553063 S    
C18   H16   1.092023 S    
C10   C12   1.563656 S    
C22   H23   1.109568 S    
C3    C14   1.443328 S    
C8    C12   1.552750 S    
Cu2   O8    1.993230 S    
C19   H15   1.112628 S    
C6    C10   1.558737 S    
C23   H20   1.106366 S    
C19   H13   1.111982 S    
C16   O12   1.395836 S    
C6    H2    1.108558 S    
C14   C17   1.490372 S    
C7    C20   1.522328 S    
Cu1   Cu2   2.732520 S    
C17   O13   1.220762 D    
C18   H17   1.097273 S    
C11   C16   1.511097 S    
O16   H18   1.013382 S    
C13   H8    1.087578 S    
H4    C11   1.114973 S    
O3    Cu1   1.993231 S    
O4    C2    1.320100 A    
C2    C9    1.512285 S    
C15   O10   1.398204 S    
C16   O11   1.221975 D    
C6    H3    1.108234 S    
C7    C11   1.561957 S    
C17   O14   1.395674 S    
N1    N2    1.315949 D    
O2    C1    1.305074 A    
Cu2   N1    2.053226 S    
C20   O16   1.395038 S    
C4    C10   1.497884 S    
O18   H19   1.006080 S    
O7    C4    1.305320 A    
C8    H5    1.116046 S    
C21   O18   1.399466 S    
O4    Cu2   1.999714 S    
O12   H11   1.013387 S    
C5    C9    1.594501 S    
O3    C2    1.306466 A    
C22   C23   1.528711 S    
C13   C14   1.344822 D    
C23   H22   1.106640 S    
C22   H24   1.103503 S    
C5    C15   1.522834 S    
C21   O17   1.221986 D    
O10   H10   1.013997 S    
Cu1   N2    2.053226 S    
Cu2   O6    1.969543 S    
N2    H9    1.028840 S    
C18   C19   1.507753 S    
C8    C21   1.513170 S    
Cu1   O5    1.961446 S    
N1    C18   1.454662 S    
O5    C3    1.305535 A    
O14   H12   1.012405 S    
C15   O9    1.223097 D    
C12   C22   1.558020 S    
C19   H14   1.075321 S    
C10   C11   1.571551 S    
O1    Cu1   1.969543 S    
C7    H7    1.101922 S    
C7    C9    1.575201 S    
C8    C9    1.590259 S    
O2    Cu2   1.961447 S    
C5    H1    1.113888 S    
O8    C4    1.312743 A    
C12   H6    1.110002 S    
O6    C3    1.303503 A    
C23   H21   1.106976 S    
