data_mof_unit_10142.cif
_audit_creation_date              2013-03-05T15:40:09-0500
_audit_creation_method            fapswitch 2.2
_symmetry_space_group_name_H-M    P1
_symmetry_Int_Tables_number       1
_space_group_crystal_system       triclinic
_cell_length_a                    27.979468
_cell_length_b                    18.765556
_cell_length_c                    16.846289
_cell_angle_alpha                 89.999629
_cell_angle_beta                  62.655218
_cell_angle_gamma                 89.998487
_cell_volume                      7856.77832501

loop_
_atom_site_label
_atom_site_type_symbol
_atom_site_description
_atom_site_fract_x
_atom_site_fract_y
_atom_site_fract_z
_atom_type_partial_charge
O1    O     O_R   0.255040 0.869590 0.478480 -0.521015
O2    O     O_R   0.744960 0.130410 0.521520 -0.520806
O3    O     O_R   0.744960 0.869590 0.521520 -0.521018
O4    O     O_R   0.255040 0.130410 0.478480 -0.520821
O5    O     O_R   0.755040 0.369590 0.478480 -0.521352
O6    O     O_R   0.244960 0.630410 0.521520 -0.520556
O7    O     O_R   0.244960 0.369590 0.521520 -0.521276
O8    O     O_R   0.755040 0.630410 0.478480 -0.520545
O9    O     O_R   0.182050 0.796550 0.624440 -0.584326
O10   O     O_R   0.817950 0.203450 0.375560 -0.586650
O11   O     O_R   0.817950 0.796550 0.375560 -0.584274
O12   O     O_R   0.182050 0.203450 0.624440 -0.586444
O13   O     O_R   0.682050 0.296550 0.624440 -0.574014
O14   O     O_R   0.317950 0.703450 0.375560 -0.572916
O15   O     O_R   0.317950 0.296550 0.375560 -0.574072
O16   O     O_R   0.682050 0.703450 0.624440 -0.572858
Cu1   Cu    Cu3+1 0.209920 0.785290 0.495070 1.060311
Cu2   Cu    Cu3+1 0.790080 0.214710 0.504930 1.057719
Cu3   Cu    Cu3+1 0.790080 0.785290 0.504930 1.060296
Cu4   Cu    Cu3+1 0.209920 0.214710 0.495070 1.057262
Cu5   Cu    Cu3+1 0.709920 0.285290 0.495070 1.073813
Cu6   Cu    Cu3+1 0.290080 0.714710 0.504930 1.054216
Cu7   Cu    Cu3+1 0.290080 0.285290 0.504930 1.073882
Cu8   Cu    Cu3+1 0.709920 0.714710 0.495070 1.054118
C1    C     C_R   0.294821 0.727956 0.329800 0.786818
C2    C     C_R   0.704977 0.271696 0.670449 0.777066
C3    C     C_R   0.705163 0.727986 0.670208 0.786701
C4    C     C_R   0.295029 0.271686 0.329549 0.776875
C5    C     C_R   0.794783 0.227875 0.329861 0.761342
C6    C     C_R   0.205050 0.771848 0.670377 0.758371
C7    C     C_R   0.205200 0.227909 0.670145 0.761332
C8    C     C_R   0.794939 0.771868 0.329630 0.758460
O17   O     O_R   0.250530 0.763330 0.367210 -0.577628
O18   O     O_R   0.749470 0.236670 0.632790 -0.584002
O19   O     O_R   0.749470 0.763330 0.632790 -0.577634
O20   O     O_R   0.250530 0.236670 0.367210 -0.583907
O21   O     O_R   0.750530 0.263330 0.367210 -0.578336
O22   O     O_R   0.249470 0.736670 0.632790 -0.591778
O23   O     O_R   0.249470 0.263330 0.632790 -0.578105
O24   O     O_R   0.750530 0.736670 0.367210 -0.591890
O25   O     O_R   0.177260 0.690030 0.513710 -0.593656
O26   O     O_R   0.822740 0.309970 0.486290 -0.585323
O27   O     O_R   0.822740 0.690030 0.486290 -0.593602
O28   O     O_R   0.177260 0.309970 0.513710 -0.585443
O29   O     O_R   0.677260 0.190030 0.513710 -0.581323
O30   O     O_R   0.322740 0.809970 0.486290 -0.588450
O31   O     O_R   0.322740 0.190030 0.486290 -0.581421
O32   O     O_R   0.677260 0.809970 0.513710 -0.588444
C9    C     C_R   0.196278 0.631750 0.528412 0.809904
C10   C     C_R   0.803786 0.368152 0.471288 0.803506
C11   C     C_R   0.803731 0.631754 0.471542 0.809786
C12   C     C_R   0.196218 0.368156 0.528682 0.803252
C13   C     C_R   0.697328 0.131555 0.524342 0.805194
C14   C     C_R   0.302735 0.868387 0.475454 0.803363
C15   C     C_R   0.302662 0.131553 0.475705 0.805190
C16   C     C_R   0.697259 0.868383 0.524581 0.803323
C17   C     C_R   0.040940 0.629198 0.526504 -0.084749
C18   C     C_R   0.959133 0.369987 0.472848 -0.095219
C19   C     C_R   0.959255 0.629194 0.472782 -0.084709
C20   C     C_R   0.040944 0.369989 0.526818 -0.095376
C21   C     C_R   0.541718 0.129467 0.524964 -0.085246
C22   C     C_R   0.459265 0.870298 0.472678 -0.097034
C23   C     C_R   0.458114 0.129470 0.475675 -0.085709
C24   C     C_R   0.540640 0.870294 0.527763 -0.096875
C25   C     C_R   0.019615 0.694459 0.514998 0.254947
C26   C     C_R   0.980754 0.304658 0.483837 0.211217
C27   C     C_R   0.980616 0.694456 0.484187 0.254945
C28   C     C_R   0.019161 0.304664 0.516202 0.210365
C29   C     C_R   0.520388 0.194830 0.513664 0.249765
C30   C     C_R   0.480819 0.804958 0.483845 0.212253
C31   C     C_R   0.479385 0.194833 0.487117 0.249713
C32   C     C_R   0.519082 0.804957 0.516608 0.212341
C33   C     C_R   0.978755 0.564428 0.488331 -0.026518
C34   C     C_R   0.021525 0.434705 0.510866 -0.020702
C35   C     C_R   0.021456 0.564429 0.510942 -0.026521
C36   C     C_R   0.978647 0.434707 0.488554 -0.020931
C37   C     C_R   0.478295 0.064731 0.489777 -0.028408
C38   C     C_R   0.521299 0.934939 0.511491 -0.019586
C39   C     C_R   0.521544 0.064731 0.510829 -0.028133
C40   C     C_R   0.478580 0.934939 0.489007 -0.019551
C41   C     C_R   0.456217 0.999840 0.480035 0.050754
C42   C     C_R   0.543655 0.999839 0.520478 0.050633
C43   C     C_R   0.956459 0.499604 0.478856 0.049827
C44   C     C_R   0.043724 0.499605 0.520513 0.049808
C45   C     C_R   0.387068 0.934853 0.458595 -0.038350
C46   C     C_R   0.613187 0.064939 0.540742 -0.040359
C47   C     C_R   0.612877 0.934850 0.541700 -0.038407
C48   C     C_R   0.386743 0.064942 0.459601 -0.040512
C49   C     C_R   0.887939 0.434575 0.455375 -0.038103
C50   C     C_R   0.112353 0.564970 0.543511 -0.038552
C51   C     C_R   0.112126 0.434586 0.544330 -0.037975
C52   C     C_R   0.887736 0.564965 0.456100 -0.038565
C53   C     C_R   0.333727 0.934861 0.466644 -0.221158
C54   C     C_R   0.666379 0.064992 0.533088 -0.222068
C55   C     C_R   0.666252 0.934858 0.533487 -0.221126
C56   C     C_R   0.333594 0.064992 0.467062 -0.222168
C57   C     C_R   0.837060 0.434465 0.454052 -0.227173
C58   C     C_R   0.163095 0.565288 0.545286 -0.227374
C59   C     C_R   0.162958 0.434472 0.545822 -0.227266
C60   C     C_R   0.836932 0.565288 0.454552 -0.227405
C61   C     C_R   0.306003 0.999921 0.481141 0.369019
C62   C     C_R   0.693981 0.999919 0.518932 0.369102
C63   C     C_R   0.814598 0.499915 0.446548 0.367824
C64   C     C_R   0.185398 0.499918 0.553383 0.367782
C65   C     C_R   0.409794 0.999863 0.466470 0.065063
C66   C     C_R   0.590116 0.999861 0.533929 0.065037
C67   C     C_R   0.910503 0.499707 0.463564 0.072462
C68   C     C_R   0.089618 0.499713 0.535974 0.072582
C69   C     C_R   0.582052 0.872353 0.552844 -0.134126
C70   C     C_R   0.417022 0.127553 0.450144 -0.118002
C71   C     C_R   0.417891 0.872359 0.447507 -0.134158
C72   C     C_R   0.582880 0.127546 0.550335 -0.118144
C73   C     C_R   0.082155 0.371877 0.552261 -0.137088
C74   C     C_R   0.917433 0.627677 0.449042 -0.133006
C75   C     C_R   0.917887 0.371852 0.447495 -0.136294
C76   C     C_R   0.082681 0.627684 0.550431 -0.132890
H1    H     H_    0.589317 0.824856 0.581202 0.211506
H2    H     H_    0.410196 0.175216 0.421533 0.204506
H3    H     H_    0.410671 0.824869 0.419084 0.211561
H4    H     H_    0.589773 0.175204 0.578877 0.204409
H5    H     H_    0.089024 0.324402 0.581211 0.209163
H6    H     H_    0.910021 0.675652 0.421941 0.213183
H7    H     H_    0.910965 0.324319 0.418704 0.208660
H8    H     H_    0.090011 0.675655 0.577636 0.213195
H9    H     H_    0.151794 0.714093 0.062902 0.177722
H10   H     H_    0.843146 0.283430 0.945018 0.160977
H11   H     H_    0.848097 0.714663 0.937033 0.177719
H12   H     H_    0.156596 0.283042 0.055563 0.161501
H13   H     H_    0.651203 0.214902 0.064481 0.177078
H14   H     H_    0.343199 0.784888 0.945299 0.163208
H15   H     H_    0.348864 0.215810 0.935122 0.177011
H16   H     H_    0.656572 0.785006 0.055008 0.163094
C77   C     C_R   0.219386 0.765567 0.954796 -0.052193
C78   C     C_R   0.776572 0.228987 0.049742 -0.059472
C79   C     C_R   0.780453 0.765890 0.045330 -0.052095
C80   C     C_R   0.223346 0.229191 0.950301 -0.059637
C81   C     C_R   0.719065 0.265008 0.955266 -0.050255
C82   C     C_R   0.276837 0.729301 0.049261 -0.058811
C83   C     C_R   0.280833 0.265204 0.044822 -0.050712
C84   C     C_R   0.722996 0.729651 0.950865 -0.058770
C85   C     C_R   0.273707 0.785681 0.921202 0.468001
C86   C     C_R   0.721800 0.210083 0.084212 0.460409
C87   C     C_R   0.726099 0.785891 0.079031 0.467951
C88   C     C_R   0.278227 0.210732 0.915533 0.460162
C89   C     C_R   0.773550 0.284505 0.921128 0.468682
C90   C     C_R   0.222257 0.709746 0.083095 0.463413
C91   C     C_R   0.226275 0.284405 0.079125 0.467842
C92   C     C_R   0.777614 0.710243 0.916920 0.463251
C93   C     C_R   0.302051 0.767285 0.968884 -0.343927
C94   C     C_R   0.693391 0.228801 0.037125 -0.324344
C95   C     C_R   0.697750 0.767500 0.031347 -0.344022
C96   C     C_R   0.306604 0.229385 0.962693 -0.323957
C97   C     C_R   0.801886 0.266248 0.968882 -0.347049
C98   C     C_R   0.193851 0.728570 0.036034 -0.328374
C99   C     C_R   0.197935 0.266093 0.031432 -0.345563
C100  C     C_R   0.806016 0.729044 0.963985 -0.328246
C101  C     C_R   0.143229 0.827435 0.945321 -0.189023
C102  C     C_R   0.854098 0.169001 0.057114 -0.225711
C103  C     C_R   0.856661 0.827635 0.054767 -0.189416
C104  C     C_R   0.145867 0.169077 0.942901 -0.225473
C105  C     C_R   0.642901 0.326880 0.945677 -0.193377
C106  C     C_R   0.354285 0.669246 0.056822 -0.226186
C107  C     C_R   0.356986 0.327091 0.054421 -0.193361
C108  C     C_R   0.645597 0.669466 0.943270 -0.226198
H17   H     H_    0.129309 0.844683 0.013795 0.167385
H18   H     H_    0.867418 0.151032 0.989066 0.161349
H19   H     H_    0.870562 0.844922 0.986313 0.167359
H20   H     H_    0.132561 0.151087 0.010937 0.161283
H21   H     H_    0.628977 0.344172 0.014134 0.165037
H22   H     H_    0.367648 0.651307 0.988749 0.160181
H23   H     H_    0.370870 0.344457 0.986001 0.165083
H24   H     H_    0.632224 0.651552 0.011354 0.160160
C109  C     C_R   0.117420 0.851284 0.895618 -0.073880
C110  C     C_R   0.881478 0.147347 0.105269 -0.061931
C111  C     C_R   0.882537 0.851357 0.104415 -0.073835
C112  C     C_R   0.118509 0.147369 0.894732 -0.062016
C113  C     C_R   0.617152 0.350820 0.895902 -0.073069
C114  C     C_R   0.381673 0.647675 0.105010 -0.062751
C115  C     C_R   0.382795 0.350917 0.104146 -0.073053
C116  C     C_R   0.618278 0.647757 0.895022 -0.062802
C117  C     C_R   0.136657 0.830081 0.806839 -0.229590
C118  C     C_R   0.863012 0.169647 0.193444 -0.236114
C119  C     C_R   0.863330 0.830096 0.193166 -0.229580
C120  C     C_R   0.136977 0.169654 0.806549 -0.235918
C121  C     C_R   0.636358 0.329505 0.807158 -0.214313
C122  C     C_R   0.363262 0.670155 0.193118 -0.216881
C123  C     C_R   0.363623 0.329551 0.192863 -0.214386
C124  C     C_R   0.636718 0.670176 0.806884 -0.216765
H25   H     H_    0.117257 0.849254 0.768153 0.187720
H26   H     H_    0.883507 0.152258 0.231164 0.184927
H27   H     H_    0.882784 0.849170 0.231810 0.187792
H28   H     H_    0.116517 0.152196 0.768801 0.185043
H29   H     H_    0.616937 0.348630 0.768487 0.189770
H30   H     H_    0.383875 0.653009 0.230745 0.189730
H31   H     H_    0.383067 0.348633 0.231516 0.189729
H32   H     H_    0.616168 0.652913 0.769204 0.189793
C125  C     C_R   0.182279 0.787249 0.766201 -0.080090
C126  C     C_R   0.816839 0.211421 0.234736 -0.094249
C127  C     C_R   0.817676 0.787328 0.233828 -0.080179
C128  C     C_R   0.183109 0.211506 0.765287 -0.094428
C129  C     C_R   0.682063 0.286815 0.766439 -0.082622
C130  C     C_R   0.316931 0.711634 0.234545 -0.096102
C131  C     C_R   0.317934 0.286837 0.233569 -0.082519
C132  C     C_R   0.683005 0.711739 0.765491 -0.096202
C133  C     C_R   0.208166 0.763864 0.815946 -0.154825
C134  C     C_R   0.789437 0.232562 0.186657 -0.126168
C135  C     C_R   0.791720 0.764073 0.184138 -0.154735
C136  C     C_R   0.210447 0.232772 0.813412 -0.126249
C137  C     C_R   0.707917 0.263399 0.816252 -0.142625
C138  C     C_R   0.289440 0.732532 0.186478 -0.116526
C139  C     C_R   0.292078 0.263435 0.183762 -0.143624
C140  C     C_R   0.710411 0.732802 0.813630 -0.116631
H33   H     H_    0.243898 0.730994 0.784894 0.148959
H34   H     H_    0.753269 0.264608 0.218327 0.184680
H35   H     H_    0.755966 0.731247 0.215207 0.149153
H36   H     H_    0.246554 0.264932 0.781776 0.185291
H37   H     H_    0.743731 0.230677 0.785146 0.153700
H38   H     H_    0.253148 0.764331 0.218208 0.185258
H39   H     H_    0.256353 0.230567 0.214824 0.152733
H40   H     H_    0.746665 0.764674 0.781926 0.185364
C141  C     C_R   0.189055 0.784427 0.905375 0.139210
C142  C     C_R   0.807619 0.210947 0.098105 0.106778
C143  C     C_R   0.810801 0.784696 0.094738 0.139182
C144  C     C_R   0.192299 0.211114 0.901943 0.106424
C145  C     C_R   0.688718 0.283824 0.905787 0.138834
C146  C     C_R   0.307750 0.711070 0.097803 0.109444
C147  C     C_R   0.311183 0.284016 0.094300 0.138880
C148  C     C_R   0.692085 0.711384 0.902325 0.109285
O33   O     O_R   0.051640 0.926880 0.885090 -0.584669
O34   O     O_R   0.948360 0.073120 0.114910 -0.587434
O35   O     O_R   0.948360 0.926880 0.114910 -0.584606
O36   O     O_R   0.051640 0.073120 0.885090 -0.587355
O37   O     O_R   0.551640 0.426880 0.885090 -0.579417
O38   O     O_R   0.448360 0.573120 0.114910 -0.579826
O39   O     O_R   0.448360 0.426880 0.114910 -0.579508
O40   O     O_R   0.551640 0.573120 0.885090 -0.579768
Cu9   Cu    Cu3+1 0.495240 0.500000 0.924150 1.006214
Cu10  Cu    Cu3+1 0.504760 0.500000 0.075850 1.005993
Cu11  Cu    Cu3+1 0.995240 0.000000 0.924150 0.996400
Cu12  Cu    Cu3+1 0.004760 0.000000 0.075850 0.996326
C149  C     C_R   0.926579 0.903034 0.066505 0.795211
C150  C     C_R   0.073723 0.096641 0.933256 0.792766
C151  C     C_R   0.073411 0.903017 0.933504 0.795218
C152  C     C_R   0.926278 0.096644 0.066741 0.792749
C153  C     C_R   0.426675 0.402884 0.066410 0.797417
C154  C     C_R   0.573617 0.596803 0.933366 0.797152
C155  C     C_R   0.573306 0.402851 0.933608 0.797474
C156  C     C_R   0.426373 0.596788 0.066641 0.797111
O41   O     O_R   0.940620 0.926560 0.986760 -0.582113
O42   O     O_R   0.059380 0.073440 0.013240 -0.584689
O43   O     O_R   0.059380 0.926560 0.013240 -0.582036
O44   O     O_R   0.940620 0.073440 0.986760 -0.584627
O45   O     O_R   0.440620 0.426560 0.986760 -0.586805
O46   O     O_R   0.559380 0.573440 0.013240 -0.588071
O47   O     O_R   0.559380 0.426560 0.013240 -0.586796
O48   O     O_R   0.440620 0.573440 0.986760 -0.588074
N1    N     N_R   0.536926 0.738191 0.535464 0.138856
O49   O     O_R   0.501969 0.692912 0.589715 -0.307580
O50   O     O_R   0.587210 0.719451 0.491860 -0.361192
N2    N     N_R   0.458625 0.261476 0.474283 0.136127
O51   O     O_R   0.490958 0.308618 0.419094 -0.293730
O52   O     O_R   0.408110 0.277359 0.522806 -0.336086
N3    N     N_R   0.462993 0.738193 0.464954 0.138855
O53   O     O_R   0.497964 0.692923 0.410711 -0.307575
O54   O     O_R   0.412705 0.719463 0.508480 -0.361275
N4    N     N_R   0.541086 0.261471 0.526640 0.136103
O55   O     O_R   0.508715 0.308495 0.581997 -0.293847
O56   O     O_R   0.591568 0.277493 0.478051 -0.336169
N5    N     N_R   0.036518 0.237879 0.536060 0.138220
O57   O     O_R   0.001195 0.193160 0.590731 -0.307780
O58   O     O_R   0.086747 0.218673 0.493428 -0.358931
N6    N     N_R   0.960559 0.761142 0.470075 0.142758
O59   O     O_R   0.937388 0.805871 0.535842 -0.286200
O60   O     O_R   0.970970 0.780598 0.389615 -0.351365
N7    N     N_R   0.962890 0.237849 0.465073 0.138124
O61   O     O_R   0.997854 0.192448 0.411069 -0.307551
O62   O     O_R   0.912563 0.219242 0.508400 -0.358018
N8    N     N_R   0.039710 0.761147 0.529012 0.142793
O63   O     O_R   0.062969 0.805769 0.463148 -0.286339
O64   O     O_R   0.029223 0.780734 0.609462 -0.351216
O65   O     O_3   0.250470 0.999903 0.515277 -0.531617
C157  C     C_3   0.227166 0.000002 0.609809 0.088671
H41   H     H_    0.239155 0.048434 0.634622 0.116218
H42   H     H_    0.239256 0.951733 0.634775 0.120133
C158  C     C_3   0.166195 0.999917 0.648891 -0.673719
H43   H     H_    0.152716 0.951593 0.626728 0.257235
H44   H     H_    0.147689 0.999991 0.723032 0.186384
H45   H     H_    0.152650 0.048115 0.626600 0.257404
O66   O     O_3   0.749522 0.999900 0.484676 -0.531590
C159  C     C_3   0.772754 0.000008 0.390151 0.088605
H46   H     H_    0.760752 0.048461 0.365398 0.116226
H47   H     H_    0.760617 0.951759 0.365225 0.120134
C160  C     C_3   0.833733 0.999881 0.350940 -0.673755
H48   H     H_    0.847226 0.951539 0.373048 0.257257
H49   H     H_    0.852182 0.999960 0.276804 0.186388
H50   H     H_    0.847325 0.048060 0.373184 0.257313
O67   O     O_3   0.768539 0.499980 0.435549 -0.531053
C161  C     C_3   0.784060 0.500175 0.343041 0.081541
H51   H     H_    0.807822 0.451564 0.310155 0.120261
H52   H     H_    0.808276 0.548496 0.310216 0.119546
C162  C     C_3   0.733920 0.500799 0.329580 -0.681529
H53   H     H_    0.709672 0.549230 0.360663 0.256054
H54   H     H_    0.745620 0.500931 0.257035 0.178133
H55   H     H_    0.709193 0.452711 0.360601 0.260350
O68   O     O_3   0.231401 0.499982 0.564543 -0.531061
C163  C     C_3   0.215785 0.500173 0.657084 0.081469
H56   H     H_    0.192010 0.451559 0.689917 0.120287
H57   H     H_    0.191548 0.548492 0.689864 0.119521
C164  C     C_3   0.265863 0.500799 0.670721 -0.681598
H58   H     H_    0.290121 0.549233 0.639697 0.256028
H59   H     H_    0.254088 0.500926 0.743293 0.178157
H60   H     H_    0.290610 0.452714 0.639747 0.260423
O69   O     O_3   0.295949 0.831018 0.848225 -0.583906
C165  C     C_3   0.343063 0.800852 0.779928 0.042917
H61   H     H_    0.338268 0.742772 0.771110 0.151078
H62   H     H_    0.377698 0.809057 0.794257 0.157833
C166  C     C_3   0.355501 0.838010 0.692582 -0.704142
H63   H     H_    0.363793 0.895404 0.696538 0.226976
H64   H     H_    0.391466 0.813064 0.638730 0.234728
H65   H     H_    0.321211 0.832438 0.676894 0.249960
O70   O     O_3   0.694644 0.178339 0.167232 -0.570294
C167  C     C_3   0.700492 0.103720 0.157096 0.078303
H66   H     H_    0.743550 0.087754 0.118865 0.143238
H67   H     H_    0.677758 0.083100 0.122322 0.148562
C168  C     C_3   0.678033 0.069442 0.249158 -0.748581
H68   H     H_    0.634553 0.082004 0.288557 0.255442
H69   H     H_    0.683110 0.010749 0.242128 0.205839
H70   H     H_    0.699869 0.089677 0.285463 0.238153
O71   O     O_3   0.703831 0.831123 0.152118 -0.584229
C169  C     C_3   0.656674 0.800949 0.220293 0.042520
H71   H     H_    0.661416 0.742833 0.228969 0.151250
H72   H     H_    0.622070 0.809320 0.205932 0.157935
C170  C     C_3   0.644218 0.837921 0.307754 -0.704487
H73   H     H_    0.608213 0.812972 0.361497 0.234739
H74   H     H_    0.678471 0.832176 0.323496 0.250170
H75   H     H_    0.635986 0.895352 0.303937 0.227168
O72   O     O_3   0.305531 0.179686 0.832093 -0.570302
C171  C     C_3   0.300359 0.104951 0.841290 0.077631
H76   H     H_    0.257430 0.088303 0.879200 0.143387
H77   H     H_    0.323212 0.084451 0.875918 0.148345
C172  C     C_3   0.323249 0.071384 0.748764 -0.746800
H78   H     H_    0.366586 0.084864 0.709559 0.255794
H79   H     H_    0.318869 0.012574 0.754999 0.204199
H80   H     H_    0.301201 0.091355 0.712687 0.238227
O73   O     O_3   0.795994 0.329052 0.847342 -0.584776
C173  C     C_3   0.843818 0.299213 0.780442 0.034812
H81   H     H_    0.839891 0.240750 0.772609 0.156822
H82   H     H_    0.877935 0.309273 0.795593 0.156600
C174  C     C_3   0.856615 0.334737 0.692056 -0.688654
H83   H     H_    0.863712 0.392628 0.695239 0.226578
H84   H     H_    0.893414 0.310303 0.639598 0.232508
H85   H     H_    0.823048 0.326896 0.675010 0.256254
O74   O     O_3   0.195420 0.676571 0.165209 -0.570039
C175  C     C_3   0.199369 0.602124 0.152131 0.067558
H86   H     H_    0.242179 0.584724 0.115384 0.146635
H87   H     H_    0.177428 0.584980 0.114462 0.143581
C176  C     C_3   0.174150 0.565304 0.242771 -0.730503
H88   H     H_    0.130979 0.580024 0.280714 0.250486
H89   H     H_    0.177419 0.506639 0.233344 0.210813
H90   H     H_    0.195368 0.581428 0.281798 0.248481
O75   O     O_3   0.203708 0.328917 0.152892 -0.584601
C177  C     C_3   0.156780 0.297872 0.220608 0.036411
H91   H     H_    0.162137 0.239829 0.228766 0.155160
H92   H     H_    0.122135 0.305634 0.206173 0.156722
C178  C     C_3   0.143762 0.334539 0.308437 -0.690510
H93   H     H_    0.134386 0.391701 0.305427 0.226168
H94   H     H_    0.108273 0.308365 0.361866 0.234508
H95   H     H_    0.178191 0.329975 0.323972 0.255260
O76   O     O_3   0.804497 0.677251 0.834688 -0.570119
C179  C     C_3   0.800555 0.602785 0.847468 0.067625
H96   H     H_    0.757761 0.585362 0.884365 0.146523
H97   H     H_    0.822621 0.585466 0.884850 0.143656
C180  C     C_3   0.825591 0.566212 0.756671 -0.730541
H98   H     H_    0.868765 0.580843 0.718612 0.250554
H99   H     H_    0.822248 0.507550 0.765878 0.209789
H100  H     H_    0.804294 0.582603 0.717884 0.248550

loop_
_geom_bond_atom_site_label_1
_geom_bond_atom_site_label_2
_geom_bond_distance
_ccdc_geom_bond_type
C167  H67   1.113471 S    
C176  H88   1.111121 S    
C126  C134  1.404159 A    
C159  C160  1.520495 S    
C70   H2    1.073940 S    
O39   C153  1.301501 A    
O72   C171  1.411096 S    
C170  H73   1.102650 S    
C157  H41   1.114483 S    
Cu10  O46   1.966349 S    
O35   C149  1.301211 A    
C162  H55   1.110851 S    
C167  C168  1.522697 S    
Cu11  O41   1.966349 S    
Cu6   O22   1.962654 S    
C83   C96   1.403378 A    
C22   C30   1.416579 A    
C112  C120  1.394114 A    
C82   C146  1.477707 S    
O37   Cu9   1.962632 S    
Cu4   O28   1.966083 S    
C102  C110  1.407480 A    
Cu11  Cu12  2.688368 S    
N6    O59   1.300947 A    
O3    Cu3   1.962176 S    
C50   C76   1.413825 A    
C91   C99   1.406316 A    
C19   C33   1.405238 A    
C55   C62   1.406388 A    
C134  H34   1.083648 S    
C87   C95   1.406747 A    
C128  C136  1.404041 A    
C33   C35   1.410890 A    
C26   N7    1.437605 S    
C107  C147  1.398638 A    
C36   C43   1.410075 A    
O25   C9    1.289033 A    
C7    C128  1.461369 S    
C115  C153  1.464747 S    
C17   C76   1.399905 A    
C37   C39   1.408646 A    
C92   O76   1.382333 S    
C75   H7    1.074557 S    
C169  H71   1.116301 S    
O40   C154  1.302484 A    
C149  O41   1.291947 A    
C180  H100  1.110985 S    
C53   C61   1.406346 A    
C72   H4    1.073967 S    
C140  H40   1.083622 S    
C3    O19   1.286937 A    
C165  H61   1.116367 S    
C162  H53   1.110879 S    
C153  O45   1.291944 A    
C166  H65   1.110945 S    
C109  C151  1.464231 S    
C90   C98   1.401393 A    
C132  C140  1.404683 A    
C163  H56   1.114755 S    
O13   Cu5   1.959906 S    
C57   C63   1.411519 A    
C27   N6    1.435262 S    
C104  C144  1.400972 A    
C23   C31   1.414658 A    
C176  H90   1.111232 S    
N5    O58   1.301351 A    
C161  H51   1.114753 S    
C105  C113  1.406737 A    
C8    O24   1.287763 A    
C89   O73   1.386062 S    
C111  C119  1.394723 A    
C170  H75   1.110074 S    
Cu9   O45   1.966349 S    
N3    O54   1.301208 A    
O2    C13   1.311746 A    
H11   C100  1.083578 S    
C79   C143  1.479075 S    
C64   O68   1.383634 S    
C137  H37   1.083205 S    
C31   N2    1.436471 S    
C158  H44   1.110848 S    
Cu3   O19   1.962660 S    
C178  H93   1.110958 S    
O10   Cu2   1.959906 S    
C87   O71   1.385594 S    
C103  H19   1.083663 S    
C104  H20   1.083627 S    
O34   C152  1.302167 A    
C114  C122  1.394259 A    
O5    Cu5   1.962229 S    
C54   C62   1.405416 A    
Cu12  O43   1.966304 S    
O70   C167  1.411036 S    
C25   N8    1.435241 S    
C118  H26   1.083439 S    
C33   C43   1.409246 A    
C16   C55   1.487158 S    
C49   C75   1.415245 A    
C135  C143  1.401552 A    
C174  H83   1.110086 S    
Cu9   O48   1.966301 S    
O32   C16   1.281555 A    
C117  C125  1.393280 A    
C110  C118  1.394093 A    
C179  H96   1.114978 S    
O15   C4    1.298641 A    
C18   C36   1.405676 A    
C122  C130  1.393622 A    
C34   C36   1.412394 A    
C22   C40   1.405640 A    
O7    C12   1.313004 A    
C8    C127  1.466407 S    
Cu2   O26   1.966124 S    
C38   C40   1.409958 A    
C35   C44   1.409328 A    
C78   C97   1.399922 A    
C177  H91   1.116532 S    
O40   Cu9   1.962683 S    
C71   H3    1.073838 S    
N1    O49   1.301032 A    
C168  H69   1.109899 S    
C81   C145  1.480067 S    
C19   C27   1.414041 A    
C45   C53   1.435224 A    
C22   C71   1.404396 A    
C120  C128  1.393484 A    
C47   C55   1.435124 A    
O33   Cu11  1.962632 S    
C110  C152  1.466408 S    
C173  H82   1.111676 S    
C105  H21   1.083657 S    
O28   C12   1.288473 A    
O16   C3    1.297212 A    
C79   C87   1.408099 A    
O29   C13   1.282100 A    
C32   N1    1.437226 S    
Cu9   Cu10  2.688368 S    
C101  C141  1.398381 A    
C138  C146  1.397538 A    
C131  C139  1.406386 A    
C46   C66   1.410449 A    
C129  C137  1.406477 A    
C106  C146  1.400731 A    
Cu5   O29   1.966124 S    
C172  H79   1.110032 S    
C82   C93   1.400589 A    
C41   C65   1.418458 A    
C84   C148  1.477796 S    
C151  O43   1.291961 A    
C102  C142  1.400901 A    
C77   C98   1.402550 A    
Cu8   O32   1.966083 S    
C2    C129  1.467662 S    
C178  H95   1.111464 S    
C101  H17   1.083662 S    
C80   C99   1.400111 A    
O37   C155  1.301549 A    
C124  C132  1.393644 A    
C79   C100  1.402530 A    
O35   Cu12  1.962682 S    
C140  C148  1.397563 A    
C160  H48   1.110567 S    
C77   C141  1.479080 S    
C80   C144  1.477654 S    
Cu4   Cu7   2.674798 S    
O66   C159  1.416796 S    
Cu1   O17   1.962652 S    
C20   C28   1.416467 A    
N4    O56   1.301268 A    
O9    C6    1.298227 A    
O26   C10   1.288521 A    
C62   O66   1.387132 S    
O11   C8    1.298240 A    
C174  H85   1.110843 S    
C171  H77   1.113471 S    
O12   C7    1.296627 A    
C107  C115  1.406689 A    
O14   Cu6   1.959906 S    
O39   Cu10  1.962682 S    
O13   C2    1.298667 A    
C108  H24   1.083642 S    
H9    C98   1.083548 S    
C173  C174  1.516526 S    
C112  C150  1.466460 S    
C11   C60   1.502082 S    
C13   C54   1.488166 S    
C4    C131  1.467648 S    
C24   C38   1.405643 A    
C122  H30   1.083411 S    
C34   C44   1.410046 A    
C15   C56   1.488132 S    
C39   C42   1.408676 A    
C136  C144  1.397005 A    
C171  C172  1.522968 S    
C139  H39   1.082991 S    
C157  H42   1.114646 S    
C61   O65   1.387120 S    
Cu10  O47   1.966304 S    
C17   C35   1.405166 A    
Cu7   O31   1.966084 S    
C50   C68   1.412310 A    
C28   N5    1.437927 S    
C161  H52   1.114859 S    
C48   C65   1.410444 A    
C24   C69   1.404384 A    
C21   C39   1.405205 A    
O7    Cu7   1.962176 S    
C91   O75   1.385574 S    
O8    Cu8   1.962178 S    
C59   C64   1.411463 A    
C42   C66   1.418401 A    
C81   C94   1.403314 A    
C106  C114  1.407680 A    
C109  C117  1.394739 A    
C73   H5    1.074506 S    
C157  C158  1.520494 S    
N6    O60   1.301026 A    
C5    C126  1.461396 S    
N8    O63   1.300945 A    
C51   C59   1.433966 A    
C56   C61   1.405390 A    
C21   C72   1.400946 A    
C1    O17   1.286860 A    
C48   C56   1.433693 A    
Cu12  O42   1.966349 S    
C125  C133  1.406093 A    
N7    O61   1.301112 A    
O74   C175  1.410700 S    
C69   H1    1.073855 S    
N3    O53   1.301024 A    
Cu2   Cu5   2.674738 S    
O11   Cu3   1.959908 S    
C169  H72   1.111668 S    
O36   C150  1.302160 A    
C81   C89   1.408255 A    
C88   O72   1.382873 S    
C86   O70   1.382731 S    
C160  H50   1.110587 S    
C180  H99   1.109644 S    
C172  H80   1.111215 S    
C115  C123  1.394883 A    
C165  H62   1.111742 S    
O6    Cu6   1.962227 S    
C123  C131  1.393421 A    
C113  C121  1.394895 A    
C83   C147  1.480115 S    
C159  H46   1.114460 S    
O38   Cu10  1.962629 S    
C121  C129  1.393463 A    
C166  H64   1.102745 S    
C14   C53   1.487238 S    
C116  C124  1.394289 A    
O38   C156  1.302472 A    
C117  H25   1.083398 S    
C25   C27   1.407264 A    
C169  C170  1.517207 S    
O36   Cu11  1.962683 S    
C163  H57   1.114861 S    
C120  H28   1.083436 S    
C107  H23   1.083656 S    
C108  C116  1.407709 A    
C48   C70   1.414085 A    
C165  C166  1.517262 S    
C170  H74   1.110820 S    
C167  H66   1.114964 S    
Cu11  O44   1.966301 S    
C133  H33   1.083118 S    
C176  H89   1.110036 S    
N5    O57   1.301168 A    
H15   C96   1.083582 S    
C137  C145  1.402205 A    
Cu3   O27   1.966084 S    
C162  H54   1.110494 S    
C163  C164  1.520500 S    
C150  O42   1.292060 A    
C85   O69   1.385526 S    
C29   N4    1.436450 S    
N2    O51   1.301050 A    
C154  O46   1.291925 A    
C172  H78   1.111198 S    
C60   C63   1.411056 A    
C161  C162  1.520498 S    
O71   C169  1.410112 S    
C158  H43   1.110569 S    
C90   O74   1.382296 S    
C78   C86   1.412095 A    
C106  H22   1.083644 S    
C37   C41   1.408738 A    
O30   C14   1.281474 A    
C135  H35   1.083124 S    
C84   C95   1.400651 A    
Cu6   O30   1.966124 S    
O4    C15   1.311809 A    
O5    C10   1.312937 A    
C102  H18   1.083630 S    
C63   O67   1.383630 S    
C76   H8    1.071842 S    
O1    Cu1   1.962229 S    
C51   C68   1.411180 A    
C17   C25   1.414054 A    
C45   C71   1.416296 A    
C179  H97   1.113800 S    
C47   C69   1.416273 A    
C77   C85   1.408040 A    
Cu1   Cu6   2.674738 S    
C86   C94   1.401329 A    
Cu3   Cu8   2.674798 S    
C80   C88   1.412311 A    
O10   C5    1.296668 A    
O27   C11   1.289167 A    
O69   C165  1.410150 S    
C113  C155  1.464892 S    
C177  H92   1.111988 S    
C19   C74   1.399972 A    
C44   C68   1.422668 A    
O14   C1    1.297230 A    
C168  H68   1.110977 S    
C179  C180  1.522174 S    
C49   C67   1.411208 A    
Cu4   O20   1.962659 S    
H10   C97   1.082567 S    
Cu5   O21   1.962652 S    
C4    O20   1.287950 A    
C88   C96   1.401307 A    
O68   C163  1.412622 S    
C5    O21   1.286807 A    
H16   C95   1.082713 S    
C92   C100  1.401242 A    
C101  C109  1.406537 A    
C177  C178  1.516657 S    
C155  O47   1.291975 A    
C26   C28   1.410805 A    
O2    Cu2   1.962227 S    
O67   C161  1.412627 S    
O16   Cu8   1.959908 S    
O34   Cu12  1.962629 S    
C118  C126  1.393474 A    
C84   C92   1.411442 A    
C85   C93   1.406611 A    
C164  H58   1.110881 S    
C47   C66   1.409811 A    
C83   C91   1.408376 A    
N7    O62   1.301255 A    
C134  C142  1.396975 A    
C158  H45   1.110588 S    
C178  H94   1.102869 S    
O33   C151  1.301219 A    
C58   C64   1.411016 A    
C133  C141  1.401582 A    
C29   C31   1.409795 A    
C38   C42   1.408719 A    
C46   C54   1.433645 A    
H12   C99   1.082708 S    
C9    C58   1.501976 S    
C2    O18   1.287892 A    
C43   C67   1.422686 A    
C89   C97   1.406807 A    
O15   Cu7   1.959908 S    
C136  H36   1.083641 S    
C103  C111  1.406498 A    
C104  C112  1.407489 A    
O12   Cu4   1.959908 S    
C20   C73   1.403053 A    
C130  C138  1.404760 A    
C45   C65   1.409867 A    
C18   C26   1.416331 A    
C105  C145  1.398689 A    
C30   N3    1.437224 S    
C3    C132  1.462760 S    
N2    O52   1.301271 A    
C1    C130  1.462729 S    
C78   C142  1.477573 S    
O65   C157  1.416803 S    
C119  C127  1.393281 A    
C51   C73   1.415261 A    
C49   C57   1.433938 A    
N1    O50   1.301221 A    
C168  H70   1.111229 S    
C46   C72   1.414039 A    
O1    C14   1.312032 A    
O3    C16   1.311956 A    
C52   C67   1.412351 A    
H14   C93   1.082717 S    
C127  C135  1.406097 A    
C103  C143  1.398358 A    
C108  C148  1.400806 A    
Cu2   O18   1.962654 S    
O8    C11   1.313016 A    
C114  C156  1.466701 S    
O9    Cu1   1.959906 S    
C175  H86   1.115060 S    
C175  H87   1.113987 S    
C18   C75   1.402948 A    
N8    O64   1.301024 A    
C52   C60   1.433651 A    
O31   C15   1.282042 A    
O76   C179  1.410470 S    
C23   C37   1.405113 A    
C164  H60   1.110854 S    
C21   C29   1.414642 A    
C111  C149  1.464187 S    
C10   C57   1.500425 S    
C152  O44   1.292033 A    
C123  H31   1.083364 S    
C121  H29   1.083360 S    
C40   C41   1.408701 A    
C119  H27   1.083397 S    
C30   C32   1.411958 A    
C156  O48   1.291890 A    
O4    Cu4   1.962178 S    
C175  C176  1.522195 S    
O75   C177  1.410230 S    
C12   C59   1.500390 S    
C138  H38   1.083620 S    
C82   C90   1.411376 A    
C23   C70   1.400867 A    
H13   C94   1.083503 S    
C160  H49   1.110851 S    
C180  H98   1.110928 S    
C173  H81   1.116432 S    
C164  H59   1.110491 S    
Cu7   O23   1.962660 S    
C20   C34   1.405839 A    
Cu8   O24   1.962659 S    
C7    O23   1.286881 A    
C159  H47   1.114649 S    
C24   C32   1.416551 A    
O6    C9    1.313054 A    
C166  H63   1.110176 S    
Cu1   O25   1.966124 S    
N4    O55   1.301049 A    
C74   H6    1.071867 S    
C6    C125  1.466456 S    
C124  H32   1.083404 S    
C174  H84   1.102430 S    
C171  H76   1.115113 S    
C139  C147  1.402193 A    
C6    O22   1.287768 A    
O73   C173  1.410232 S    
C52   C74   1.413775 A    
C50   C58   1.433714 A    
C116  C154  1.466800 S    
