data_mof_unit_60253.cif
_audit_creation_date              2012-12-10T17:59:49-0500
_audit_creation_method            fapswitch 2.2
_symmetry_space_group_name_H-M    P1
_symmetry_Int_Tables_number       1
_space_group_crystal_system       triclinic
_cell_length_a                    30.717277
_cell_length_b                    32.002992
_cell_length_c                    21.760514
_cell_angle_alpha                 90.205891
_cell_angle_beta                  134.919626
_cell_angle_gamma                 89.428625
_cell_volume                      15146.3878852

loop_
_atom_site_label
_atom_site_type_symbol
_atom_type_description
_atom_site_fract_x
_atom_site_fract_y
_atom_site_fract_z
_atom_type_partial_charge
C1    C     C_R   0.500240 0.999010 0.381758 0.867897
C2    C     C_3   0.000759 0.791735 0.500338 0.020677
C3    C     C_3   0.783263 0.076214 0.254378 -0.140747
C4    C     C_R   0.718971 0.481097 0.762963 0.013724
C5    C     C_R   0.218971 0.981078 0.762943 0.013710
C6    C     C_R   0.685078 0.502743 0.685224 -0.056097
C7    C     C_R   0.185077 0.002741 0.685223 -0.056075
C8    C     C_R   0.716132 0.527374 0.673141 -0.199010
C9    C     C_R   0.216131 0.027388 0.673157 -0.199001
C10   C     C_3   0.508106 0.763360 0.449464 -0.155919
C11   C     C_3   0.530172 0.235746 0.479888 -0.159632
C12   C     C_3   0.007876 0.263365 0.449218 -0.156000
C13   C     C_3   0.546822 0.763549 0.580634 -0.066915
C14   C     C_3   0.030171 0.735746 0.479885 -0.159652
C15   C     C_R   0.280866 0.026963 0.734772 -0.039249
C16   C     C_R   0.780867 0.526949 0.734758 -0.039281
C17   C     C_R   0.314347 0.000731 0.809224 -0.148604
C18   C     C_R   0.814348 0.500731 0.809228 -0.148596
C19   C     C_R   0.282117 0.979023 0.822138 -0.012840
C20   C     C_R   0.782118 0.479041 0.822160 -0.012846
C21   C     C_3   0.283437 0.934094 0.842579 0.683689
C22   C     C_3   0.783439 0.434120 0.842646 0.683673
C23   C     C_3   0.713700 0.436905 0.778646 -0.478311
C24   C     C_3   0.528737 0.236192 0.578785 -0.074494
C25   C     C_3   0.213699 0.936877 0.778583 -0.478371
C26   C     C_1   0.500770 0.875124 0.500404 -0.039450
C27   C     C_1   0.499452 0.124855 0.499547 0.038816
C28   C     C_1   0.000769 0.375124 0.500414 -0.039470
C29   C     C_1   0.999452 0.624855 0.499547 0.038827
C30   C     C_1   0.499681 0.624838 0.499887 -0.043392
C31   C     C_1   0.499944 0.375151 0.499641 -0.046512
C32   C     C_1   0.999677 0.124838 0.499884 -0.043466
C33   C     C_1   0.999945 0.875151 0.499642 -0.046495
C34   C     C_3   0.447490 0.764163 0.469007 -0.083477
C35   C     C_3   0.046952 0.263545 0.580594 -0.066855
C36   C     C_3   0.442678 0.236854 0.441822 -0.090272
C37   C     C_3   0.947572 0.264162 0.469309 -0.083494
C38   C     C_3   0.942681 0.736854 0.441829 -0.090285
C39   C     C_3   0.500786 0.791611 0.499488 -0.054315
C40   C     C_3   0.500348 0.208349 0.500064 -0.064509
C41   C     C_3   0.000780 0.291611 0.499498 -0.054341
C42   C     C_3   0.000351 0.708349 0.500066 -0.064506
C43   C     C_2   0.515620 0.777073 0.391591 0.963411
C44   C     C_2   0.563473 0.220825 0.456649 0.973098
C45   C     C_2   0.015143 0.277091 0.391076 0.963382
C46   C     C_3   0.028743 0.736192 0.578790 -0.074477
C47   C     C_2   0.063469 0.720827 0.456641 0.973104
C48   C     C_2   0.309992 0.612090 0.316922 0.891066
C49   C     C_2   0.309607 0.571264 0.216074 0.875672
C50   C     C_2   0.809998 0.112077 0.317482 0.890999
C51   C     C_2   0.809633 0.071474 0.216459 0.875496
C52   C     C_2   0.310700 0.051510 0.715105 0.877854
C53   C     C_2   0.810704 0.551482 0.715077 0.877806
C54   C     C_2   0.614801 0.720117 0.565991 0.938482
C55   C     C_2   0.624239 0.277687 0.625188 0.943363
C56   C     C_2   0.114606 0.220118 0.565354 0.938471
C57   C     C_3   0.554308 0.735342 0.530782 -0.146298
C58   C     C_2   0.124241 0.777688 0.625181 0.943365
C59   C     C_2   0.598791 0.777702 0.672416 0.919035
C60   C     C_2   0.560578 0.221929 0.667933 0.935581
C61   C     C_2   0.099073 0.277695 0.672324 0.919018
C62   C     C_2   0.060590 0.721928 0.667939 0.935582
C63   C     C_2   0.387063 0.779058 0.434203 0.934334
C64   C     C_2   0.376986 0.223209 0.375596 0.956453
C65   C     C_2   0.887249 0.279057 0.434849 0.934339
C66   C     C_2   0.876988 0.723208 0.375609 0.956453
C67   C     C_2   0.575207 0.935342 0.392578 0.918906
C68   C     C_3   0.558662 0.263569 0.558796 -0.160686
C69   C     C_2   0.075147 0.435314 0.392520 0.918901
C70   C     C_2   0.579578 0.937398 0.262616 0.942961
C71   C     C_2   0.079554 0.437388 0.262599 0.943068
C72   C     C_2   0.376976 0.064259 0.060499 0.912143
C73   C     C_2   0.473658 0.106026 0.167774 0.912500
C74   C     C_2   0.877009 0.564294 0.060532 0.912180
C75   C     C_2   0.973716 0.606034 0.167834 0.912481
C76   C     C_3   0.054214 0.235343 0.530487 -0.146291
C77   C     C_3   0.058664 0.763569 0.558794 -0.160694
C78   C     C_1   0.500869 0.837480 0.499915 0.173928
C79   C     C_R   0.000239 0.499011 0.381758 0.867865
C80   C     C_1   0.499756 0.162492 0.499731 0.206559
C81   C     C_1   0.000866 0.337479 0.499929 0.173938
C82   C     C_1   0.999757 0.662492 0.499732 0.206563
C83   C     C_1   0.499968 0.662458 0.499961 0.134807
C84   C     C_1   0.500120 0.337521 0.499718 0.148001
C85   C     C_1   0.999964 0.162458 0.499959 0.134821
C86   C     C_1   0.000121 0.837521 0.499721 0.148001
C87   C     C_R   0.470218 0.026452 0.251950 0.000284
C88   C     C_R   0.970231 0.526462 0.251964 0.000280
C89   C     C_R   0.501332 0.996505 0.316689 -0.111998
C90   C     C_3   0.493385 0.736033 0.550743 -0.281681
C91   C     C_R   0.001328 0.496507 0.316686 -0.111953
C92   C     C_R   0.538351 0.966790 0.321292 -0.098146
C93   C     C_R   0.038325 0.466780 0.321269 -0.098189
C94   C     C_R   0.540779 0.968122 0.258106 -0.114177
C95   C     C_R   0.040759 0.468114 0.258090 -0.114250
C96   C     C_R   0.500273 0.919928 0.500482 0.813545
C97   C     C_R   0.499778 0.080066 0.499876 0.855041
C98   C     C_R   0.000273 0.419928 0.500485 0.813535
C99   C     C_R   0.999778 0.580066 0.499876 0.855043
C100  C     C_R   0.506981 0.999673 0.192272 -0.075620
C101  C     C_3   0.470621 0.264768 0.520741 -0.262800
C102  C     C_R   0.006979 0.499672 0.192271 -0.075609
C103  C     C_R   0.474537 0.028972 0.194595 -0.029025
C104  C     C_R   0.974549 0.528980 0.194608 -0.028992
C105  C     C_3   0.437365 0.068916 0.154374 -0.263197
C106  C     C_3   0.937400 0.568933 0.154411 -0.263196
C107  C     C_3   0.432968 0.065557 0.221628 0.558923
C108  C     C_3   0.933002 0.565575 0.221662 0.558908
C109  C     C_R   0.542000 0.023295 0.760044 0.074898
C110  C     C_R   0.042006 0.523291 0.760050 0.074891
C111  C     C_R   0.500620 0.998780 0.685884 -0.068310
C112  C     C_3   0.993607 0.236027 0.551001 -0.281738
C113  C     C_R   0.000620 0.498780 0.685885 -0.068308
C114  C     C_R   0.463324 0.970747 0.680887 -0.175890
C115  C     C_R   0.963318 0.470751 0.680882 -0.175905
C116  C     C_R   0.464057 0.970385 0.746032 -0.130066
C117  C     C_R   0.964052 0.470388 0.746027 -0.130060
C118  C     C_R   0.500623 0.998964 0.814984 -0.025166
C119  C     C_R   0.000624 0.498964 0.814984 -0.025149
C120  C     C_R   0.541589 0.023668 0.823108 -0.031166
C121  C     C_R   0.041594 0.523664 0.823114 -0.031225
C122  C     C_R   0.499972 0.000030 0.618706 0.812372
C123  C     C_3   0.970627 0.764767 0.520751 -0.262842
C124  C     C_R   0.999972 0.500030 0.618706 0.812357
C125  C     C_3   0.553980 0.069397 0.839264 -0.456945
C126  C     C_3   0.053996 0.569392 0.839280 -0.456963
C127  C     C_3   0.554228 0.069180 0.769464 0.631829
C128  C     C_3   0.054243 0.569175 0.769479 0.631862
C129  C     C_R   0.381583 0.500924 0.381805 0.877378
C130  C     C_R   0.881583 0.000928 0.381806 0.877303
C131  C     C_R   0.499702 0.580072 0.499786 0.812549
C132  C     C_R   0.499969 0.419926 0.499871 0.834329
C133  C     C_R   0.999701 0.080072 0.499785 0.812453
C134  C     C_3   0.500812 0.708221 0.500183 0.023218
C135  C     C_R   0.999969 0.919926 0.499871 0.834354
C136  C     C_R   0.618633 0.500395 0.618534 0.788160
C137  C     C_R   0.118632 0.000395 0.618534 0.788151
C138  C     C_R   0.619333 0.999521 0.120312 0.856284
C139  C     C_R   0.119332 0.499523 0.120329 0.856276
C140  C     C_R   0.502492 0.000043 0.121312 0.875980
C141  C     C_R   0.002492 0.500042 0.121313 0.875971
C142  C     C_R   0.381112 0.000145 0.878421 0.882491
C143  C     C_R   0.881112 0.500145 0.878424 0.882535
C144  C     C_R   0.499701 0.999876 0.880658 0.826631
C145  C     C_3   0.500757 0.291735 0.500335 0.020680
C146  C     C_R   0.999702 0.499876 0.880659 0.826658
C147  C     C_R   0.281734 0.536085 0.288194 -0.026164
C148  C     C_R   0.781736 0.036073 0.288375 -0.026106
C149  C     C_3   0.454672 0.735957 0.418892 0.335960
C150  C     C_3   0.472331 0.264206 0.421455 0.350965
C151  C     C_3   0.954530 0.235961 0.418938 0.336077
C152  C     C_3   0.972329 0.764207 0.421456 0.350995
C153  C     C_R   0.315685 0.499226 0.317485 -0.192067
C154  C     C_R   0.815687 0.999225 0.317485 -0.192039
C155  C     C_R   0.285681 0.460819 0.293847 0.318545
C156  C     C_3   0.000806 0.208221 0.500181 0.023222
C157  C     C_R   0.785685 0.960803 0.293641 0.318573
C158  C     C_R   0.720892 0.959853 0.230862 0.364316
C159  C     C_R   0.220887 0.459875 0.231081 0.364464
C160  C     C_R   0.686464 0.998044 0.192022 -0.204914
C161  C     C_R   0.186462 0.498054 0.192054 -0.204973
C162  C     C_R   0.718667 0.035490 0.227071 0.054928
C163  C     C_R   0.218666 0.535505 0.226910 0.054968
C164  C     C_3   0.712707 0.075405 0.185887 -0.432078
C165  C     C_3   0.212697 0.575340 0.185523 -0.432266
C166  C     C_3   0.283252 0.576146 0.253994 -0.140655
Cl1   Cl    Cl    0.358692 0.055056 0.179174 -0.442542
Cl2   Cl    Cl    0.829253 0.913789 0.339407 -0.483395
Cl3   Cl    Cl    0.685960 0.910273 0.202054 -0.414802
Cl4   Cl    Cl    0.185948 0.410314 0.202534 -0.414794
Cl5   Cl    Cl    0.393364 0.717413 0.311002 -0.452472
Cl6   Cl    Cl    0.434530 0.283079 0.316515 -0.439310
Cl7   Cl    Cl    0.893042 0.217417 0.311109 -0.452272
Cl8   Cl    Cl    0.934522 0.783080 0.316514 -0.439143
Cl9   Cl    Cl    0.322005 0.926344 0.952505 -0.468361
Cl10  Cl    Cl    0.308266 0.898490 0.808605 -0.517140
Cl11  Cl    Cl    0.822006 0.426402 0.952578 -0.468415
Cl12  Cl    Cl    0.473086 0.104028 0.305654 -0.529536
Cl13  Cl    Cl    0.808269 0.398490 0.808707 -0.517136
Cl14  Cl    Cl    0.858720 0.555092 0.179204 -0.442514
Cl15  Cl    Cl    0.973139 0.604037 0.305709 -0.529559
Cl16  Cl    Cl    0.627392 0.080066 0.809428 -0.506711
Cl17  Cl    Cl    0.493009 0.099260 0.675235 -0.565897
Cl18  Cl    Cl    0.127408 0.580055 0.809445 -0.506692
Cl19  Cl    Cl    0.993029 0.599261 0.675257 -0.565903
Cl20  Cl    Cl    0.329244 0.413810 0.339839 -0.483460
Cu1   Cu    Cu3+1 0.438230 0.000000 0.438170 1.125009
Cu2   Cu    Cu3+1 0.500030 0.041430 0.000020 1.061962
Cu3   Cu    Cu3+1 0.000030 0.458570 0.000020 1.159688
Cu4   Cu    Cu3+1 0.000030 0.541430 0.000020 1.061955
Cu5   Cu    Cu3+1 0.938230 0.500000 0.438170 1.125020
Cu6   Cu    Cu3+1 0.561800 0.000000 0.561830 1.110756
Cu7   Cu    Cu3+1 0.061800 0.500000 0.561830 1.110774
Cu8   Cu    Cu3+1 0.499880 0.500000 0.438060 1.087711
Cu9   Cu    Cu3+1 0.999880 0.000000 0.438060 1.087713
Cu10  Cu    Cu3+1 0.500000 0.500000 0.561790 1.085116
Cu11  Cu    Cu3+1 0.000000 0.000000 0.561790 1.085092
Cu12  Cu    Cu3+1 0.500030 0.958570 0.000020 1.159788
H1    H     H_    0.433163 0.949744 0.626308 0.165214
H2    H     H_    0.690171 0.070771 0.118032 0.213083
H3    H     H_    0.191225 0.600546 0.192453 0.222622
H4    H     H_    0.190151 0.570603 0.117686 0.212995
H5    H     H_    0.689748 0.545598 0.614030 0.195807
H6    H     H_    0.189746 0.045622 0.614059 0.195774
H7    H     H_    0.696454 0.435087 0.809446 0.230679
H8    H     H_    0.688375 0.417124 0.719964 0.207301
H9    H     H_    0.196453 0.935037 0.809382 0.230679
H10   H     H_    0.188373 0.917111 0.719882 0.207306
H11   H     H_    0.487320 0.724742 0.592480 0.198736
H12   H     H_    0.933154 0.449751 0.626299 0.165221
H13   H     H_    0.446070 0.276742 0.537566 0.204060
H14   H     H_    0.987726 0.224732 0.592942 0.198728
H15   H     H_    0.946080 0.776741 0.537581 0.204028
H16   H     H_    0.520128 0.824764 0.336082 0.373578
H17   H     H_    0.594059 0.172002 0.436523 0.367859
H18   H     H_    0.019448 0.324795 0.335367 0.373609
H19   H     H_    0.094061 0.672005 0.436522 0.367868
H20   H     H_    0.314308 0.674459 0.333089 0.384236
H21   H     H_    0.309651 0.539062 0.136197 0.363302
H22   H     H_    0.814324 0.174420 0.333955 0.384146
H23   H     H_    0.434056 0.949281 0.740437 0.173032
H24   H     H_    0.809693 0.039451 0.136444 0.363335
H25   H     H_    0.305589 0.101104 0.653122 0.359637
H26   H     H_    0.805592 0.601057 0.653060 0.359658
H27   H     H_    0.669347 0.671026 0.598178 0.362369
H28   H     H_    0.683368 0.325792 0.685460 0.370177
H29   H     H_    0.169061 0.171026 0.597235 0.362378
H30   H     H_    0.183369 0.825793 0.685448 0.370177
H31   H     H_    0.646303 0.825797 0.755397 0.358671
H32   H     H_    0.591256 0.173798 0.749845 0.388055
H33   H     H_    0.146725 0.325787 0.755256 0.358665
H34   H     H_    0.934047 0.449287 0.740428 0.173022
H35   H     H_    0.091274 0.673796 0.749853 0.388061
H36   H     H_    0.331824 0.827843 0.401007 0.354581
H37   H     H_    0.317141 0.175551 0.314386 0.364667
H38   H     H_    0.832103 0.327844 0.401973 0.354549
H39   H     H_    0.817143 0.675551 0.314404 0.364677
H40   H     H_    0.577677 0.892225 0.462159 0.357404
H41   H     H_    0.077552 0.392167 0.461998 0.357376
H42   H     H_    0.602943 0.876987 0.271683 0.373162
H43   H     H_    0.102894 0.376975 0.271622 0.373254
H44   H     H_    0.320868 0.028028 0.954677 0.345995
H45   H     H_    0.599564 0.075716 0.905675 0.215060
H46   H     H_    0.475681 0.168394 0.156933 0.358942
H47   H     H_    0.820887 0.528084 0.954678 0.345987
H48   H     H_    0.975776 0.668401 0.157032 0.358939
H49   H     H_    0.515048 0.087287 0.821211 0.232138
H50   H     H_    0.099581 0.575706 0.905693 0.215008
H51   H     H_    0.015068 0.587285 0.821233 0.232140
H52   H     H_    0.691230 0.100548 0.192929 0.222629
O1    O     O_R   0.447840 0.000000 0.357610 -0.532145
O2    O     O_R   0.090140 0.000000 0.642300 -0.573978
O3    O     O_R   0.073975 0.394679 0.268831 -0.706563
O4    O     O_2   0.339453 0.092998 0.023826 -0.481210
O5    O     O_R   0.363450 0.027231 0.015907 -0.737736
O6    O     O_2   0.525806 0.101412 0.199573 -0.554736
O7    O     O_R   0.447249 0.145998 0.144549 -0.654462
O8    O     O_2   0.839499 0.593041 0.023881 -0.481193
O9    O     O_R   0.863467 0.527274 0.015911 -0.737729
O10   O     O_2   0.025861 0.601405 0.199628 -0.554725
O11   O     O_R   0.947330 0.646013 0.144634 -0.654468
O12   O     O_R   0.590180 0.965000 0.090240 -0.524190
O13   O     O_R   0.590180 0.035000 0.090240 -0.596079
O14   O     O_R   0.090180 0.465000 0.090240 -0.524262
O15   O     O_R   0.090180 0.535000 0.090240 -0.596038
O16   O     O_R   0.500040 0.965010 0.090190 -0.556678
O17   O     O_R   0.500040 0.034990 0.090190 -0.572117
O18   O     O_R   0.000040 0.465010 0.090190 -0.556690
O19   O     O_R   0.000040 0.534990 0.090190 -0.572111
O20   O     O_R   0.409890 0.965030 0.909800 -0.530791
O21   O     O_R   0.947840 0.500000 0.357610 -0.532144
O22   O     O_R   0.409890 0.034970 0.909800 -0.575797
O23   O     O_R   0.909890 0.465030 0.909800 -0.530792
O24   O     O_R   0.909890 0.534970 0.909800 -0.575800
O25   O     O_R   0.500040 0.965020 0.909850 -0.586633
O26   O     O_R   0.500040 0.034980 0.909850 -0.573471
O27   O     O_R   0.000040 0.465020 0.909850 -0.586677
O28   O     O_R   0.000040 0.534980 0.909850 -0.573471
O29   O     O_R   0.552190 0.000000 0.462050 -0.582269
O30   O     O_R   0.052190 0.500000 0.462050 -0.582272
O31   O     O_R   0.447840 0.939540 0.447780 -0.567775
O32   O     O_R   0.500000 0.560470 0.552180 -0.566379
O33   O     O_R   0.447840 0.060460 0.447780 -0.547134
O34   O     O_R   0.947840 0.439540 0.447780 -0.567757
O35   O     O_R   0.947840 0.560460 0.447780 -0.547142
O36   O     O_R   0.552190 0.939560 0.552210 -0.572475
O37   O     O_R   0.552190 0.060440 0.552210 -0.554171
O38   O     O_R   0.052190 0.439560 0.552210 -0.572473
O39   O     O_R   0.052190 0.560440 0.552210 -0.554161
O40   O     O_R   0.447840 0.000000 0.537950 -0.576986
O41   O     O_R   0.947840 0.500000 0.537950 -0.576986
O42   O     O_R   0.552190 0.000000 0.642390 -0.559017
O43   O     O_R   0.500000 0.439530 0.552180 -0.569738
O44   O     O_R   0.052190 0.500000 0.642390 -0.559028
O45   O     O_R   0.409740 0.500000 0.357550 -0.564023
O46   O     O_R   0.909740 0.000000 0.357550 -0.563904
O47   O     O_R   0.409840 0.500000 0.462040 -0.549190
O48   O     O_R   0.909840 0.000000 0.462040 -0.549214
O49   O     O_R   0.499890 0.560480 0.447700 -0.561924
O50   O     O_R   0.499890 0.439520 0.447700 -0.557986
O51   O     O_R   0.999890 0.060480 0.447700 -0.561933
O52   O     O_R   0.999890 0.939520 0.447700 -0.557895
O53   O     O_2   0.522322 0.750853 0.357793 -0.509655
O54   O     O_R   0.000000 0.060470 0.552180 -0.566330
O55   O     O_R   0.514604 0.819540 0.376159 -0.732909
O56   O     O_2   0.584083 0.246300 0.441145 -0.523654
O57   O     O_R   0.570987 0.178064 0.453098 -0.708099
O58   O     O_2   0.021675 0.250878 0.357072 -0.509612
O59   O     O_R   0.014096 0.319561 0.375635 -0.732846
O60   O     O_2   0.084070 0.746302 0.441123 -0.523657
O61   O     O_R   0.070991 0.678066 0.453102 -0.708068
O62   O     O_2   0.346231 0.605478 0.394993 -0.585533
O63   O     O_R   0.293637 0.653068 0.285180 -0.671272
O64   O     O_2   0.349486 0.594891 0.237610 -0.518091
O65   O     O_R   0.000000 0.939530 0.552180 -0.569838
O66   O     O_R   0.288473 0.539340 0.156588 -0.736324
O67   O     O_2   0.846240 0.105370 0.395522 -0.585328
O68   O     O_R   0.793643 0.153090 0.285941 -0.671259
O69   O     O_2   0.849521 0.095140 0.238130 -0.518132
O70   O     O_R   0.788505 0.039637 0.156819 -0.736308
O71   O     O_2   0.359822 0.040087 0.742087 -0.601909
O72   O     O_R   0.281270 0.087243 0.662784 -0.737830
O73   O     O_2   0.859828 0.540055 0.742076 -0.601939
O74   O     O_R   0.781271 0.587207 0.662728 -0.737808
O75   O     O_2   0.653157 0.745410 0.587922 -0.544104
O76   O     O_R   0.590030 0.500000 0.537810 -0.584815
O77   O     O_R   0.627055 0.677288 0.573578 -0.737774
O78   O     O_2   0.665784 0.251687 0.667045 -0.528399
O79   O     O_R   0.637553 0.320297 0.638977 -0.747890
O80   O     O_2   0.152896 0.245411 0.587063 -0.544092
O81   O     O_R   0.126841 0.177290 0.572876 -0.737753
O82   O     O_2   0.165786 0.751688 0.667034 -0.528383
O83   O     O_R   0.137554 0.820297 0.638969 -0.747900
O84   O     O_2   0.631187 0.751732 0.730499 -0.535020
O85   O     O_R   0.610007 0.820301 0.691214 -0.751400
O86   O     O_2   0.579183 0.247829 0.723247 -0.539101
O87   O     O_R   0.090030 0.000000 0.537810 -0.584823
O88   O     O_R   0.569123 0.179325 0.687584 -0.694043
O89   O     O_2   0.131569 0.251723 0.730376 -0.535060
O90   O     O_R   0.110317 0.320293 0.691107 -0.751374
O91   O     O_2   0.079197 0.747828 0.723255 -0.539101
O92   O     O_R   0.069136 0.679324 0.687590 -0.694043
O93   O     O_2   0.349432 0.753583 0.414013 -0.550984
O94   O     O_R   0.374012 0.821812 0.425104 -0.750304
O95   O     O_2   0.335824 0.249492 0.334906 -0.495372
O96   O     O_R   0.363045 0.180707 0.360616 -0.728089
O97   O     O_2   0.849684 0.253583 0.414872 -0.550964
O98   O     O_R   0.590140 0.500000 0.642300 -0.573986
O99   O     O_R   0.874219 0.321811 0.425828 -0.750388
O100  O     O_2   0.835827 0.749491 0.334922 -0.495338
O101  O     O_R   0.863047 0.680707 0.360630 -0.728092
O102  O     O_2   0.629684 0.929990 0.434979 -0.536926
O103  O     O_R   0.547650 0.912163 0.411631 -0.747104
O104  O     O_2   0.129626 0.429947 0.434942 -0.536838
O105  O     O_R   0.047553 0.412130 0.411509 -0.747117
O106  O     O_2   0.616477 0.949531 0.261179 -0.559816
O107  O     O_R   0.574026 0.894690 0.268898 -0.706612
O108  O     O_2   0.116476 0.449522 0.261207 -0.559601

loop_
_geom_bond_atom_site_label_1
_geom_bond_atom_site_label_2
_ccdc_geom_bond_type
Cu9   O46   S    
Cu8   Cu10  S    
C157  C158  A    
H38   O99   S    
C84   C145  S    
Cu5   O41   S    
C46   C62   S    
C69   O105  S    
C163  C165  S    
H25   O72   S    
C69   C93   S    
C117  C119  A    
C32   C133  S    
C88   C108  S    
C73   O7    S    
C71   C95   S    
C30   C131  S    
C130  O46   A    
C52   O72   S    
C116  H23   S    
C109  C127  S    
C150  Cl6   S    
C137  O87   A    
C159  C161  A    
Cu3   O18   S    
C102  C141  S    
C146  O27   A    
C38   C123  S    
C95   C102  A    
Cu10  O43   S    
C119  C121  A    
C8    C16   A    
Cu6   O37   S    
C161  C163  A    
C34   C149  S    
C162  C164  S    
C2    C152  S    
C107  Cl1   S    
C29   C99   S    
C128  Cl19  S    
C55   O79   S    
C122  O42   A    
Cu7   O39   S    
C7    C137  S    
C4    C23   S    
Cu1   O33   S    
C120  C125  S    
C2    C123  S    
C79   O21   A    
H42   O107  S    
C17   C142  S    
C164  H52   S    
C165  H4    S    
C142  O20   A    
C136  O98   A    
C63   O94   S    
C33   C135  S    
C11   C150  S    
Cu2   Cu12  S    
C92   C94   A    
C140  O17   A    
H48   O11   S    
Cu8   O45   S    
C5    C25   S    
C135  O65   A    
C87   C89   A    
C133  O54   A    
C72   O5    S    
Cu3   O23   S    
C27   C97   S    
Cu4   O28   S    
C115  H12   S    
C60   O88   S    
C54   O77   S    
C22   Cl13  S    
H40   O103  S    
C46   C77   S    
H36   O94   S    
C117  H34   S    
Cu10  O32   S    
C144  O26   A    
C148  C162  A    
C9    C15   A    
C49   C166  S    
C36   C150  S    
C113  C124  S    
Cu7   O38   S    
C90   C134  S    
C129  O47   A    
C67   C92   S    
C116  C118  A    
Cu4   O15   S    
Cu1   O1    S    
C147  C153  A    
C118  C120  A    
C56   O80   D    
C4    C20   A    
C138  C160  S    
Cu8   O49   S    
C29   C82   T    
C87   C107  S    
H22   O68   S    
C125  C127  S    
C22   C23   S    
C43   O55   S    
C36   C64   S    
H16   O55   S    
C109  C120  A    
C110  C128  S    
C113  C115  A    
C75   O11   S    
C159  Cl4   S    
C122  O40   A    
H21   O66   S    
Cu1   O31   S    
C119  C146  S    
C105  C107  S    
C101  C145  S    
C26   C78   T    
C130  O48   A    
C126  H51   S    
H19   O61   S    
C44   O57   S    
C18   C143  S    
C19   C21   S    
C1    O29   A    
C109  C111  A    
C110  C121  A    
C67   O102  D    
C50   O68   S    
C13   C57   S    
C129  O45   A    
C24   C101  S    
H31   O85   S    
C58   C77   S    
H29   O81   S    
C70   O106  D    
C79   O30   A    
C21   Cl9   S    
C37   C65   S    
C143  O24   A    
C25   H10   S    
C79   C91   S    
C145  C150  S    
Cu6   O42   S    
C139  O15   A    
C93   C95   A    
C23   H7    S    
C111  C122  S    
H44   O5    S    
C54   O75   D    
C22   Cl11  S    
C124  O44   A    
C88   C104  A    
C3    C50   S    
C74   O8    D    
C26   C96   S    
C35   C76   S    
C155  C159  A    
C34   C39   S    
C39   C78   S    
C35   C61   S    
C27   C80   T    
Cu6   O36   S    
Cu12  O25   S    
C134  C149  S    
C31   C84   T    
Cu3   O14   S    
C36   C101  S    
C160  C162  A    
C9    H6    S    
C73   O6    D    
Cu10  O47   S    
H28   O79   S    
C73   C105  S    
C88   C91   A    
C94   C100  A    
C11   C44   S    
C103  C105  S    
C47   O60   D    
Cu1   Cu6   S    
C140  O16   A    
H43   O3    S    
Cu5   O35   S    
C135  O52   A    
C137  O2    A    
C11   C68   S    
C53   O74   S    
C21   C25   S    
C126  C128  S    
H35   O92   S    
C132  O50   A    
C149  Cl5   S    
C133  O51   A    
C72   O4    D    
C90   H11   S    
C114  C116  A    
C1    O1    A    
C13   C59   S    
Cu11  O54   S    
C55   O78   D    
C66   O100  D    
C69   O104  D    
C23   H8    S    
Cu1   O40   S    
C147  C163  A    
C129  C153  S    
C106  C108  S    
Cu9   O87   S    
C37   C41   S    
C11   C40   S    
C35   C41   S    
C62   O91   D    
Cu12  O20   S    
Cu6   O29   S    
Cu4   O24   S    
C14   C152  S    
C127  Cl16  S    
Cu5   O21   S    
H32   O88   S    
C146  O28   A    
C49   O64   D    
Cu9   Cu11  S    
C54   C57   S    
C13   C90   S    
H27   O77   S    
C136  O76   A    
C104  C106  S    
C55   C68   S    
C101  H13   S    
Cu2   O13   S    
C108  Cl15  S    
C56   C76   S    
C70   C94   S    
Cu5   O34   S    
C97   O33   A    
C98   O34   A    
Cu9   O52   S    
C132  O43   A    
C157  Cl2   S    
C47   O61   S    
C42   C46   S    
C14   C77   S    
C44   O56   D    
C30   C83   T    
C48   O62   D    
C165  H3    S    
C71   O3    S    
C83   C134  S    
C63   O93   D    
C51   O70   S    
C138  O12   A    
C115  C117  A    
C61   O90   S    
C128  Cl18  S    
H33   O90   S    
C96   O36   A    
H20   O63   S    
C141  O19   A    
C153  C155  A    
H39   O101  S    
H41   O105  S    
C28   C81   T    
C158  C160  A    
C131  O49   A    
C148  C154  A    
Cu11  O48   S    
H24   O70   S    
Cu2   O17   S    
C141  O18   A    
C139  C161  S    
C154  C157  A    
C4    C6    A    
C5    C7    A    
C3    C51   S    
C6    C8    A    
C43   O53   D    
C76   C156  S    
C100  C103  A    
C52   O71   D    
C10   C39   S    
C85   C156  S    
Cu5   Cu7   S    
C12   C41   S    
C91   C93   A    
C41   C81   S    
C70   O107  S    
C58   O82   D    
Cu8   O76   S    
C151  C156  S    
C49   O66   S    
Cu8   O50   S    
C20   C22   S    
C123  H15   S    
C12   C76   S    
C57   C134  S    
C125  H49   S    
C28   C98   S    
C15   C17   A    
C58   O83   S    
Cu10  O98   S    
C8    H5    S    
H46   O7    S    
C96   O31   A    
H30   O83   S    
C38   C42   S    
C5    C19   A    
C45   O59   S    
C10   C149  S    
C2    C77   S    
H18   O59   S    
C64   O95   D    
C32   C85   T    
C59   O84   D    
C111  C114  A    
Cu3   Cu4   S    
H47   O9    S    
C24   C68   S    
H26   O74   S    
C48   C166  S    
C72   C105  S    
C75   C106  S    
C143  O23   A    
C45   O58   D    
C25   H9    S    
C130  C154  S    
C68   C145  S    
C164  H2    S    
C165  C166  S    
C151  Cl7   S    
H37   O96   S    
C127  Cl17  S    
C42   C82   S    
C124  O41   A    
C74   O9    S    
C144  O25   A    
C112  H14   S    
C71   O108  D    
Cu12  O16   S    
C118  C144  S    
C108  Cl14  S    
C65   O97   D    
C16   C53   S    
C60   O86   D    
C37   C112  S    
C6    C136  S    
C100  C140  S    
C24   C40   S    
C38   C66   S    
C40   C80   S    
C125  H45   S    
C64   O96   S    
C14   C42   S    
C152  Cl8   S    
Cu7   O30   S    
C3    C148  S    
C139  O14   A    
C12   C151  S    
C37   C151  S    
C97   O37   A    
C38   C152  S    
C98   O38   A    
C99   O35   A    
C53   O73   D    
C126  H50   S    
C36   C40   S    
C10   C57   S    
Cu12  O12   S    
C50   O67   D    
Cu2   O26   S    
Cu11  O2    S    
C15   C52   S    
Cu3   O27   S    
C66   O101  S    
C33   C86   T    
C34   C90   S    
C31   C132  S    
C147  C166  S    
C74   C106  S    
C24   C60   S    
C21   Cl10  S    
C48   O63   S    
C138  O13   A    
C89   C92   A    
C102  C104  A    
C62   O92   S    
C110  C113  A    
C3    C164  S    
C114  H1    S    
C107  Cl12  S    
C112  C156  S    
C67   O103  S    
C87   C103  A    
Cu4   O19   S    
C7    C9    A    
C1    C89   S    
C10   C43   S    
C12   C45   S    
C155  Cl20  S    
C158  Cl3   S    
C14   C47   S    
Cu11  O65   S    
C65   O99   S    
C121  C126  S    
C56   O81   S    
Cu9   O51   S    
C34   C63   S    
C17   C19   A    
C2    C86   S    
C18   C20   A    
C46   C123  S    
C142  O22   A    
C13   C39   S    
C35   C112  S    
H17   O57   S    
C51   O69   D    
C75   O10   D    
C16   C18   A    
C61   O89   D    
C59   O85   S    
C99   O39   A    
Cu7   O44   S    
C131  O32   A    
Cu2   O22   S    
