data_mof_unit_44076.cif
_audit_creation_date              2012-12-10T19:07:06-0500
_audit_creation_method            fapswitch 2.2
_symmetry_space_group_name_H-M    P1
_symmetry_Int_Tables_number       1
_space_group_crystal_system       triclinic
_cell_length_a                    27.768211
_cell_length_b                    10.845533
_cell_length_c                    9.535657
_cell_angle_alpha                 90.046532
_cell_angle_beta                  90.033924
_cell_angle_gamma                 90.080731
_cell_volume                      2871.76415955

loop_
_atom_site_label
_atom_site_type_symbol
_atom_type_description
_atom_site_fract_x
_atom_site_fract_y
_atom_site_fract_z
_atom_type_partial_charge
C1    C     C_R   0.500146 0.262692 0.499813 0.810491
C2    C     C_R   0.278548 0.510785 0.372981 -0.105754
C3    C     C_R   0.253295 0.501601 0.499545 0.372173
C4    C     C_R   0.101566 0.502428 0.504764 -0.064546
C5    C     C_R   0.127457 0.391943 0.525065 -0.004908
C6    C     C_R   0.102738 0.281244 0.548098 -0.155720
C7    C     C_R   0.126528 0.614231 0.476393 -0.086520
C8    C     C_R   0.354344 0.500342 0.499780 -0.038930
C9    C     C_R   0.645518 0.498401 0.502333 -0.036161
C10   C     C_R   0.974721 0.385167 0.518336 0.055655
C11   C     C_R   0.974389 0.612268 0.531647 0.029615
C12   C     C_R   0.407405 0.500017 0.499932 0.800271
C13   C     C_R   0.949221 0.498452 0.523871 0.037632
C14   C     C_R   0.948284 0.274502 0.502770 -0.212358
C15   C     C_R   0.898267 0.275241 0.496443 -0.148219
C16   C     C_R   0.872825 0.386015 0.507039 -0.009069
C17   C     C_R   0.898240 0.497722 0.522605 -0.052659
C18   C     C_R   0.872591 0.608600 0.536907 -0.051094
C19   C     C_R   0.822034 0.606385 0.531352 0.547000
C20   C     C_R   0.822310 0.387944 0.502126 0.532592
C21   C     C_R   0.720251 0.453921 0.624483 -0.100588
C22   C     C_R   0.670065 0.454919 0.621344 -0.217494
C23   C     C_R   0.500272 0.737305 0.499874 0.811853
C24   C     C_R   0.672045 0.541402 0.386943 -0.217880
C25   C     C_R   0.722278 0.540968 0.390555 -0.099302
C26   C     C_R   0.746493 0.497059 0.509235 0.355702
C27   C     C_R   0.025720 0.386561 0.527208 0.056344
C28   C     C_R   0.050580 0.500220 0.512728 0.063972
C29   C     C_R   0.024630 0.611369 0.503657 -0.015310
C30   C     C_R   0.052792 0.278187 0.547976 -0.214419
C31   C     C_R   0.099238 0.722745 0.445319 0.135125
C32   C     C_R   0.948068 0.720544 0.570978 0.132636
C33   C     C_R   0.897598 0.717959 0.564422 -0.193765
C34   C     C_R   0.592549 0.499784 0.500297 0.800037
C35   C     C_R   0.048727 0.716395 0.454942 -0.179626
C36   C     C_R   0.498491 0.062128 0.620975 0.136270
C37   C     C_R   0.500946 0.130102 0.498122 -0.103659
C38   C     C_R   0.504289 0.064530 0.370546 -0.210504
C39   C     C_R   0.504403 0.935269 0.370618 -0.211850
C40   C     C_R   0.501151 0.869894 0.498273 -0.104580
C41   C     C_R   0.498656 0.938080 0.621086 0.134682
C42   C     C_3   0.493356 0.929329 0.776230 -0.466654
C43   C     C_3   0.493132 0.071324 0.776052 -0.473911
C44   C     C_R   0.522909 0.591593 0.073732 0.258491
C45   C     C_R   0.177754 0.394152 0.522381 0.530747
C46   C     C_R   0.473553 0.416739 0.074342 -0.080312
C47   C     C_R   0.473546 0.416752 0.925380 -0.080840
C48   C     C_R   0.522850 0.591711 0.926227 0.254145
C49   C     C_3   0.575115 0.622607 0.920083 -0.489346
C50   C     C_3   0.575264 0.621581 0.079021 -0.513349
C51   C     C_R   0.177767 0.610496 0.476385 0.523663
C52   C     C_R   0.278499 0.491699 0.626202 -0.107348
C53   C     C_R   0.328721 0.491287 0.626517 -0.217728
C54   C     C_R   0.328772 0.509930 0.372903 -0.216642
Cu1   Cu    Cu3+1 0.500000 0.499980 0.640670 0.943033
Cu2   Cu    Cu3+1 0.500000 0.500020 0.359330 0.944754
H1    H     H_    0.347512 0.517133 0.273667 0.158383
H2    H     H_    0.259098 0.484657 0.724350 0.135663
H3    H     H_    0.654088 0.577426 0.295247 0.146923
H4    H     H_    0.877546 0.801157 0.587661 0.184737
H5    H     H_    0.742431 0.574915 0.301366 0.139948
H6    H     H_    0.027226 0.790826 0.415475 0.159466
H7    H     H_    0.506603 0.112303 0.271068 0.166829
H8    H     H_    0.506803 0.887335 0.271168 0.165099
H9    H     H_    0.458336 0.887952 0.807525 0.203564
H10   H     H_    0.259186 0.518259 0.274750 0.135301
H11   H     H_    0.525662 0.889052 0.827286 0.194015
H12   H     H_    0.457935 0.111629 0.807081 0.193472
H13   H     H_    0.525289 0.113031 0.826952 0.204660
H14   H     H_    0.452894 0.347877 0.130148 0.139904
H15   H     H_    0.452835 0.348026 0.869376 0.136688
H16   H     H_    0.597234 0.547460 0.874251 0.218135
H17   H     H_    0.581734 0.715460 0.874880 0.192380
H18   H     H_    0.596990 0.544698 0.122360 0.217277
H19   H     H_    0.582257 0.713653 0.126167 0.194415
H20   H     H_    0.121950 0.195702 0.565431 0.188157
H21   H     H_    0.650491 0.420649 0.711461 0.149399
H22   H     H_    0.738813 0.420120 0.716627 0.139709
H23   H     H_    0.879599 0.188212 0.483230 0.185315
H24   H     H_    0.965429 0.185995 0.490276 0.134471
H25   H     H_    0.036255 0.190012 0.568653 0.135582
N1    N     N_R   0.201641 0.502121 0.499514 -0.461003
N2    N     N_R   0.798088 0.497206 0.513399 -0.469595
N3    N     N_R   0.500300 0.500930 0.147930 -0.184218
N4    N     N_R   0.500310 0.500890 0.852020 -0.184763
O1    O     O_R   0.500000 0.319640 0.618810 -0.582919
O2    O     O_2   0.797570 0.281720 0.485556 -0.533809
O3    O     O_2   0.204044 0.713345 0.455597 -0.564749
O4    O     O_2   0.796952 0.712226 0.544936 -0.534235
O5    O     O_R   0.500010 0.319680 0.381230 -0.588228
O6    O     O_R   0.430260 0.500000 0.618780 -0.585012
O7    O     O_R   0.430270 0.500040 0.381190 -0.583732
O8    O     O_R   0.499990 0.680320 0.618770 -0.578278
O9    O     O_R   0.500000 0.680360 0.381190 -0.586010
O10   O     O_R   0.569730 0.499960 0.618810 -0.585312
O11   O     O_R   0.569740 0.500000 0.381220 -0.580992
O12   O     O_2   0.202811 0.288966 0.542064 -0.541758
C55   C     C_3   0.123425 0.843579 0.400980 -0.298858
C56   C     C_3   0.090337 0.951653 0.363688 -0.912599
H26   H     H_    0.067737 0.977742 0.455031 0.244398
H27   H     H_    0.067328 0.928222 0.272123 0.256404
H28   H     H_    0.112620 0.032935 0.335030 0.266080
H29   H     H_    0.146572 0.876182 0.488569 0.248863
H30   H     H_    0.146115 0.825509 0.307244 0.236562
C57   C     C_3   0.970546 0.832185 0.644146 -0.405428
C58   C     C_3   0.998437 0.795332 0.775838 -0.783900
H31   H     H_    0.975063 0.740449 0.846859 0.253543
H32   H     H_    0.030861 0.740677 0.748960 0.257872
H33   H     H_    0.010398 0.879555 0.832357 0.235144
H34   H     H_    0.993343 0.888770 0.574782 0.185193
H35   H     H_    0.942017 0.897243 0.678928 0.199221
H36   H     H_    0.347418 0.483610 0.725831 0.156779

loop_
_geom_bond_atom_site_label_1
_geom_bond_atom_site_label_2
_ccdc_geom_bond_type
C10   C27   A    
C21   C26   A    
C40   C41   A    
C26   N2    S    
C41   C42   S    
C12   O6    A    
C45   N1    A    
Cu1   Cu2   S    
C8    C53   A    
Cu2   O9    S    
C39   H8    S    
C1    O5    A    
C47   N4    A    
C36   C37   A    
C57   H34   S    
C34   O11   A    
C50   H18   S    
C5    C6    A    
C9    C22   A    
C58   H31   S    
C23   C40   S    
C20   O2    S    
C18   C19   A    
C31   C55   S    
Cu1   O6    S    
C15   H23   S    
C43   H12   S    
C49   H16   S    
C21   H22   S    
C42   H9    S    
C14   H24   S    
C16   C20   A    
Cu2   O5    S    
C57   H35   S    
C43   H13   S    
C21   C22   A    
C27   C30   A    
C36   C41   A    
C4    C7    A    
C19   N2    A    
C4    C28   A    
Cu2   N3    S    
C42   H11   S    
C7    C31   A    
C24   C25   A    
Cu1   O10   S    
C2    C54   A    
C8    C54   A    
C39   C40   A    
C16   C17   A    
C44   N3    A    
C25   C26   A    
C5    C45   A    
C23   O8    A    
Cu1   N4    S    
C37   C38   A    
C19   O4    S    
C56   H26   S    
C8    C12   S    
C3    N1    S    
C17   C18   A    
C25   H5    S    
C34   O10   A    
C51   N1    A    
C47   H15   S    
C52   H2    S    
C46   N3    A    
C53   H36   S    
C48   C49   S    
C56   H27   S    
C11   C32   A    
C55   C56   S    
C33   H4    S    
C32   C57   S    
C10   C14   A    
C9    C34   S    
C31   C35   A    
C42   C43   S    
C52   C53   A    
C38   H7    S    
C44   C50   S    
C1    O1    A    
Cu2   O11   S    
C46   C47   A    
C28   C29   A    
C6    C30   A    
C48   N4    A    
C12   O7    A    
C22   H21   S    
C4    C5    A    
C2    H10   S    
C10   C13   A    
C51   O3    S    
C3    C52   A    
C9    C24   A    
C6    H20   S    
C1    C37   S    
C57   C58   S    
C29   C35   A    
C23   O9    A    
C13   C17   A    
C32   C33   A    
Cu1   O1    S    
C2    C3    A    
C7    C51   A    
C55   H29   S    
C45   O12   S    
C50   H19   S    
C11   C13   A    
C38   C39   A    
C58   H32   S    
C30   H25   S    
C24   H3    S    
C55   H30   S    
C35   H6    S    
C49   H17   S    
C18   C33   A    
C46   H14   S    
C44   C48   A    
Cu2   O7    S    
C56   H28   S    
C11   C29   A    
C49   C50   S    
C20   N2    A    
C27   C28   A    
C14   C15   A    
C36   C43   S    
Cu1   O8    S    
C54   H1    S    
C15   C16   A    
C58   H33   S    
