data_mof_unit_40874.cif
_audit_creation_date              2013-03-05T16:34:32-0500
_audit_creation_method            fapswitch 2.2
_symmetry_space_group_name_H-M    P1
_symmetry_Int_Tables_number       1
_space_group_crystal_system       triclinic
_cell_length_a                    12.80392
_cell_length_b                    9.068915
_cell_length_c                    7.857502
_cell_angle_alpha                 89.991904
_cell_angle_beta                  93.755626
_cell_angle_gamma                 90.120499
_cell_volume                      910.433378016

loop_
_atom_site_label
_atom_site_type_symbol
_atom_site_description
_atom_site_fract_x
_atom_site_fract_y
_atom_site_fract_z
_atom_type_partial_charge
O1    O     O_R   0.500000 0.288400 0.642760 -0.564437
O2    O     O_R   0.500000 0.711600 0.357240 -0.574140
O3    O     O_R   0.500000 0.288400 0.357240 -0.556146
O4    O     O_R   0.500000 0.711600 0.642760 -0.586818
N1    N     N_1   0.499980 0.500000 0.076820 0.012967
N2    N     N_1   0.500020 0.500000 0.923180 0.008402
C1    C     C_R   0.501502 0.220367 0.500147 0.907307
C2    C     C_R   0.500390 0.779642 0.500028 0.858294
O5    O     O_R   0.349000 0.500000 0.619590 -0.544820
O6    O     O_R   0.651000 0.500000 0.380410 -0.550655
O7    O     O_R   0.348990 0.500000 0.334020 -0.534912
O8    O     O_R   0.651010 0.500000 0.665980 -0.552403
C3    C     C_R   0.299128 0.495849 0.472143 0.929695
C4    C     C_R   0.700327 0.489888 0.527456 0.895314
Cu1   Cu    Cu3+1 0.500010 0.500000 0.669080 1.134999
Cu2   Cu    Cu3+1 0.499990 0.500000 0.330920 1.146991
C5    C     C_R   0.812711 0.453778 0.533074 -0.321720
C6    C     C_R   0.184280 0.476255 0.461791 -0.324060
C7    C     C_R   0.029315 0.469199 0.273320 0.203746
C8    C     C_R   0.959146 0.356036 0.695454 0.209622
C9    C     C_R   0.123459 0.538410 0.323922 0.299613
C10   C     C_R   0.873835 0.453849 0.688825 0.307289
C11   C     C_R   0.133796 0.381754 0.576828 0.392946
C12   C     C_R   0.861540 0.404962 0.385301 0.393193
C13   C     C_R   0.023266 0.371796 0.558230 -0.114412
C14   C     C_R   0.971926 0.404420 0.398376 -0.138176
C15   C     C_1   0.501687 0.065447 0.500109 -0.039559
C16   C     C_1   0.501201 0.934488 0.500071 -0.087030
S1    S     S_3+6 0.795459 0.278162 0.242135 0.059416
O9    O     O_2   0.704843 0.209934 0.325051 -0.328565
O10   O     O_2   0.755964 0.354879 0.081353 -0.232840
O11   O     O_3   0.875786 0.140084 0.194196 -0.466868
H1    H     H_    0.831344 0.070700 0.124025 0.387493
S2    S     S_3+6 0.208100 0.252700 0.705653 0.061589
O12   O     O_2   0.287029 0.183674 0.597675 -0.329491
O13   O     O_2   0.264359 0.330203 0.853887 -0.236039
O14   O     O_3   0.135472 0.115484 0.778968 -0.457932
H2    H     H_    0.185882 0.050477 0.843724 0.393504
S3    S     S_3+6 0.888471 0.623336 0.799314 0.071557
O15   O     O_2   0.999905 0.674691 0.793867 -0.228380
O16   O     O_2   0.817011 0.738028 0.717217 -0.282871
O17   O     O_3   0.860492 0.602073 0.003584 -0.478641
H3    H     H_    0.863775 0.702798 0.052588 0.386993
S4    S     S_3+6 0.166722 0.687765 0.200825 0.078124
O18   O     O_2   0.073696 0.776328 0.134509 -0.219153
O19   O     O_2   0.239387 0.785473 0.308504 -0.289065
O20   O     O_3   0.229525 0.622714 0.035201 -0.468233
H4    H     H_    0.245295 0.710899 0.966972 0.375629
I1    I     I_    0.059011 0.326424 0.077461 0.013802
I2    I     I_    0.898735 0.137363 0.719748 -0.021119

loop_
_geom_bond_atom_site_label_1
_geom_bond_atom_site_label_2
_geom_bond_distance
_ccdc_geom_bond_type
S4    O20   1.681540 S    
O14   H2    0.990736 S    
O1    Cu1   1.930123 S    
S2    O14   1.676385 S    
S1    O11   1.680494 S    
C9    S4    1.773041 S    
O2    Cu2   1.930122 S    
O7    Cu2   1.935140 S    
C7    I1    2.066109 S    
S2    O13   1.502580 D    
O20   H4    0.990530 S    
O8    Cu1   1.935140 S    
C5    C10   1.408816 A    
O4    C2    1.280284 A    
C11   S2    1.782621 S    
O11   H1    0.990575 S    
O4    Cu1   1.930065 S    
O5    Cu1   1.947105 S    
S1    O10   1.501116 D    
C13   C14   1.410630 A    
O6    Cu2   1.947105 S    
O7    C3    1.295203 A    
C4    C5    1.474253 S    
S1    O9    1.499791 D    
C3    C6    1.477767 S    
C10   S3    1.768973 S    
C7    C9    1.392542 A    
O8    C4    1.296986 A    
S3    O17   1.678291 S    
O3    C1    1.280216 A    
C11   C13   1.415879 A    
N1    N2    1.207261 T    
C2    C16   1.404300 S    
C5    C12   1.425312 A    
C8    C13   1.404447 A    
Cu1   Cu2   2.657077 S    
C6    C9    1.410285 A    
C15   C16   1.187662 T    
C1    C15   1.404965 S    
S4    O18   1.502636 D    
S3    O16   1.503877 D    
S2    O12   1.499387 D    
O6    C4    1.283319 A    
S3    O15   1.503222 D    
C7    C14   1.394003 A    
O5    C3    1.286250 A    
C12   S1    1.781935 S    
N1    Cu2   1.996582 S    
C8    I2    2.140162 S    
S4    O19   1.503432 D    
N2    Cu1   1.996582 S    
O1    C1    1.280547 A    
O2    C2    1.280246 A    
O3    Cu2   1.930066 S    
C6    C11   1.429453 A    
O17   H3    0.991094 S    
C8    C10   1.406896 A    
C12   C14   1.410389 A    
