data_mof_unit_33995.cif
_audit_creation_date              2012-10-26T21:00:19-0400
_audit_creation_method            fapswitch 2.2
_symmetry_space_group_name_H-M    P1
_symmetry_Int_Tables_number       1
_space_group_crystal_system       triclinic
_cell_length_a                    19.35826
_cell_length_b                    8.689762
_cell_length_c                    7.445337
_cell_angle_alpha                 102.888918
_cell_angle_beta                  94.672903
_cell_angle_gamma                 92.38387
_cell_volume                      1214.52580733

loop_
_atom_site_label
_atom_site_type_symbol
_atom_type_description
_atom_site_fract_x
_atom_site_fract_y
_atom_site_fract_z
_atom_type_partial_charge
C1    C     C_R   0.497908 0.199705 0.453292 0.554081
C2    C     C_R   0.811921 0.488939 0.334604 -0.155525
C3    C     C_R   0.146290 0.500660 0.498765 0.039380
C4    C     C_R   0.853710 0.499341 0.501234 0.039378
C5    C     C_R   0.178308 0.490457 0.333589 0.392289
C6    C     C_R   0.821692 0.509519 0.666408 0.392288
C7    C     C_R   0.250183 0.490441 0.336203 -0.086976
C8    C     C_R   0.749816 0.509534 0.663794 -0.086976
C9    C     C_R   0.291709 0.500620 0.502529 -0.045058
C10   C     C_R   0.708291 0.499379 0.497471 -0.045056
C11   C     C_R   0.929930 0.499609 0.500848 0.348014
C12   C     C_R   0.502092 0.800295 0.546708 0.554081
C13   C     C_R   0.070070 0.500395 0.499152 0.348014
C14   C     C_2   0.496912 0.031891 0.426927 -0.149058
C15   C     C_2   0.503088 0.968109 0.573073 -0.149058
C16   C     C_R   0.367534 0.499994 0.501516 0.552868
C17   C     C_R   0.632466 0.500006 0.498484 0.552868
C18   C     C_R   0.260131 0.511102 0.667287 -0.149481
C19   C     C_R   0.739869 0.488921 0.332715 -0.149478
C20   C     C_R   0.188079 0.511086 0.665398 -0.155524
Cu1   Cu    Cu3+1 0.507710 0.517380 0.684380 0.965750
Cu2   Cu    Cu3+1 0.492290 0.482620 0.315620 0.965751
F1    F     F_    0.140755 0.480571 0.168831 -0.605487
F2    F     F_    0.859244 0.519378 0.831161 -0.605491
H1    H     H_    0.290971 0.518987 0.797485 0.152472
H2    H     H_    0.554907 0.620729 0.051492 0.239412
H3    H     H_    0.709030 0.481056 0.202519 0.152469
H4    H     H_    0.165223 0.519067 0.794895 0.209348
H5    H     H_    0.834778 0.480978 0.205109 0.209357
H6    H     H_    0.273217 0.482523 0.206870 0.151222
H7    H     H_    0.726782 0.517431 0.793124 0.151220
H8    H     H_    0.491092 0.960455 0.286004 0.136429
H9    H     H_    0.508908 0.039545 0.713996 0.136429
H10   H     H_    0.445093 0.379271 0.948508 0.239413
N1    N     N_R   0.028698 0.487517 0.339726 -0.087886
N2    N     N_R   0.971302 0.512487 0.660274 -0.087887
N3    N     N_R   0.960063 0.487147 0.340440 -0.195288
N4    N     N_R   0.039937 0.512857 0.659559 -0.195290
N5    N     N_2   0.480680 0.456420 0.038530 -0.258242
N6    N     N_2   0.519320 0.543580 0.961470 -0.258242
O1    O     O_R   0.505010 0.286130 0.619770 -0.504250
O2    O     O_R   0.494990 0.713870 0.380230 -0.504250
O3    O     O_R   0.491990 0.256780 0.308370 -0.494647
O4    O     O_R   0.508010 0.743220 0.691630 -0.494647
O5    O     O_R   0.406650 0.514660 0.655750 -0.503699
O6    O     O_R   0.593350 0.485340 0.344250 -0.503699
O7    O     O_R   0.393640 0.485310 0.344340 -0.505669
O8    O     O_R   0.606360 0.514690 0.655660 -0.505669

loop_
_geom_bond_atom_site_label_1
_geom_bond_atom_site_label_2
_ccdc_geom_bond_type
C16   O5    A    
C2    C4    A    
C17   O8    A    
Cu1   O4    S    
C19   H3    S    
Cu1   O5    S    
Cu2   O3    S    
C3    C13   S    
C12   C15   S    
C10   C19   A    
Cu1   O8    S    
C6    F2    S    
N2    N4    A    
Cu2   O7    S    
C5    C7    A    
C3    C20   A    
C12   O4    A    
C7    H6    S    
Cu1   Cu2   S    
C4    C11   S    
Cu1   N6    S    
H2    N6    S    
C13   N4    A    
Cu2   O2    S    
C18   H1    S    
C2    H5    S    
Cu1   O1    S    
Cu2   N5    S    
C6    C8    A    
C16   O7    A    
C4    C6    A    
C11   N2    A    
N1    N3    A    
C9    C16   S    
C1    O3    A    
C13   N1    A    
C18   C20   A    
C10   C17   S    
H10   N5    S    
C7    C9    A    
C9    C18   A    
C17   O6    A    
C8    C10   A    
C1    O1    A    
N5    N6    D    
C11   N3    A    
C14   C15   D    
C12   O2    A    
C1    C14   S    
C20   H4    S    
Cu2   O6    S    
C2    C19   A    
C8    H7    S    
C15   H9    S    
C14   H8    S    
C3    C5    A    
C5    F1    S    
