data_mof_unit_27817.cif
_audit_creation_date              2013-03-05T15:48:17-0500
_audit_creation_method            fapswitch 2.2
_symmetry_space_group_name_H-M    P1
_symmetry_Int_Tables_number       1
_space_group_crystal_system       triclinic
_cell_length_a                    15.701574
_cell_length_b                    15.707492
_cell_length_c                    34.203755
_cell_angle_alpha                 89.90443
_cell_angle_beta                  90.099434
_cell_angle_gamma                 119.972265
_cell_volume                      7307.60263385

loop_
_atom_site_label
_atom_site_type_symbol
_atom_site_description
_atom_site_fract_x
_atom_site_fract_y
_atom_site_fract_z
_atom_type_partial_charge
O1    O     O_R   0.498680 0.159540 0.541860 -0.494273
O2    O     O_R   0.840460 0.339140 0.541860 -0.494214
O3    O     O_R   0.660860 0.501320 0.541860 -0.494367
O4    O     O_R   0.159540 0.498680 0.041860 -0.497475
O5    O     O_R   0.339140 0.840460 0.041860 -0.497773
O6    O     O_R   0.501320 0.660860 0.041860 -0.497361
O7    O     O_R   0.532760 0.358060 0.540030 -0.460555
O8    O     O_R   0.641940 0.174700 0.540030 -0.460061
O9    O     O_R   0.825300 0.467240 0.540030 -0.460265
O10   O     O_R   0.358060 0.532760 0.040030 -0.461171
O11   O     O_R   0.174700 0.641940 0.040030 -0.461687
O12   O     O_R   0.467240 0.825300 0.040030 -0.462807
C1    C     C_R   0.576894 0.442547 0.554520 0.574664
C2    C     C_R   0.557664 0.134521 0.554715 0.574654
C3    C     C_R   0.865744 0.423119 0.554539 0.574758
C4    C     C_R   0.443594 0.576045 0.053772 0.571752
C5    C     C_R   0.132508 0.556436 0.053761 0.570491
C6    C     C_R   0.423951 0.867430 0.053788 0.567901
O13   O     O_R   0.498590 0.161190 0.456930 -0.507921
O14   O     O_R   0.838810 0.337400 0.456930 -0.507995
O15   O     O_R   0.662600 0.501410 0.456930 -0.507805
O16   O     O_R   0.161190 0.498590 0.956930 -0.502425
O17   O     O_R   0.337400 0.838810 0.956930 -0.499502
O18   O     O_R   0.501410 0.662600 0.956930 -0.501160
O19   O     O_R   0.532680 0.359580 0.461300 -0.509144
O20   O     O_R   0.640420 0.173100 0.461300 -0.508791
O21   O     O_R   0.826900 0.467320 0.461300 -0.508898
O22   O     O_R   0.359580 0.532680 0.961300 -0.510441
O23   O     O_R   0.173100 0.640420 0.961300 -0.512586
O24   O     O_R   0.467320 0.826900 0.961300 -0.511757
C7    C     C_R   0.578163 0.441614 0.444911 0.556696
C8    C     C_R   0.558378 0.136639 0.444907 0.557338
C9    C     C_R   0.863370 0.421816 0.444911 0.556901
C10   C     C_R   0.441982 0.577777 0.945090 0.555400
C11   C     C_R   0.135136 0.557767 0.945196 0.551090
C12   C     C_R   0.423556 0.867225 0.945883 0.551346
Cr1   Cr    Cr6+3 0.522350 0.263930 0.500020 1.055723
Cr2   Cr    Cr6+3 0.736070 0.258420 0.500020 1.056034
Cr3   Cr    Cr6+3 0.741580 0.477650 0.500020 1.055796
Cr4   Cr    Cr6+3 0.263930 0.522350 0.000020 1.057665
Cr5   Cr    Cr6+3 0.258420 0.736070 0.000020 1.056946
Cr6   Cr    Cr6+3 0.477650 0.741580 0.000020 1.058521
O25   O     O_3   0.666667 0.333333 0.499990 -0.265064
O26   O     O_3   0.333333 0.666667 0.999990 -0.256659
N1    N     N_R   0.891649 0.415884 0.774352 -0.191053
N2    N     N_R   0.578223 0.468840 0.774616 -0.189391
N3    N     N_R   0.518675 0.106267 0.774640 -0.191292
N4    N     N_R   0.457820 0.913876 0.270946 -0.205604
N5    N     N_R   0.455104 0.541773 0.270766 -0.205330
N6    N     N_R   0.086248 0.544878 0.270940 -0.205548
N7    N     N_R   0.885980 0.410185 0.735495 -0.161982
N8    N     N_R   0.584654 0.468509 0.735788 -0.158697
N9    N     N_R   0.519553 0.111155 0.735738 -0.166060
N10   N     N_R   0.456192 0.908526 0.232104 -0.185635
N11   N     N_R   0.451620 0.543230 0.231911 -0.185869
N12   N     N_R   0.091558 0.548470 0.232094 -0.185776
C13   C     C_R   0.926648 0.459021 0.590705 -0.006197
C14   C     C_R   0.541274 0.467638 0.590651 -0.006319
C15   C     C_R   0.533389 0.073881 0.591058 -0.006391
C16   C     C_R   0.462348 0.934300 0.088126 -0.005191
C17   C     C_R   0.472235 0.537626 0.088137 -0.004605
C18   C     C_R   0.065672 0.527894 0.088119 -0.005016
C19   C     C_R   0.975304 0.409085 0.604682 0.007388
C20   C     C_R   0.591463 0.566268 0.604355 0.007264
C21   C     C_R   0.435102 0.025078 0.605309 0.007229
C22   C     C_R   0.409745 0.980267 0.101643 0.007660
C23   C     C_R   0.570706 0.590373 0.101850 0.007358
C24   C     C_R   0.020175 0.429521 0.101885 0.007384
C25   C     C_R   0.984485 0.401480 0.645726 0.007583
C26   C     C_R   0.600552 0.583428 0.645340 0.007378
C27   C     C_R   0.419189 0.014677 0.646412 0.008272
C28   C     C_R   0.403473 0.991112 0.142515 0.001803
C29   C     C_R   0.587625 0.596372 0.142749 0.001619
C30   C     C_R   0.009449 0.412739 0.142793 0.001748
C31   C     C_R   0.962617 0.459533 0.670861 0.020677
C32   C     C_R   0.543236 0.503757 0.670798 0.019309
C33   C     C_R   0.499426 0.035323 0.671275 0.021258
C34   C     C_R   0.470362 0.980775 0.167229 0.022811
C35   C     C_R   0.510391 0.529203 0.167285 0.022906
C36   C     C_R   0.019361 0.489945 0.167277 0.022798
C37   C     C_R   0.937895 0.527605 0.655512 0.102551
C38   C     C_R   0.474235 0.411013 0.655714 0.102877
C39   C     C_R   0.591928 0.060725 0.655598 0.101916
C40   C     C_R   0.545281 0.967350 0.150914 0.100958
C41   C     C_R   0.422363 0.454185 0.150788 0.100516
C42   C     C_R   0.032288 0.577933 0.150709 0.100810
C43   C     C_R   0.920187 0.528050 0.615282 0.076612
C44   C     C_R   0.472893 0.392445 0.615505 0.076359
C45   C     C_R   0.609360 0.079721 0.615377 0.076259
C46   C     C_R   0.539551 0.940205 0.111431 0.072216
C47   C     C_R   0.401072 0.460093 0.111274 0.072055
C48   C     C_R   0.059292 0.599085 0.111192 0.072240
N13   N     N_R   0.057436 0.502807 0.731325 -0.211426
N14   N     N_R   0.510502 0.565396 0.730955 -0.214736
N15   N     N_R   0.456566 0.941327 0.732137 -0.208845
N16   N     N_R   0.470061 0.063619 0.227998 -0.194557
N17   N     N_R   0.593146 0.529701 0.228307 -0.194413
N18   N     N_R   0.936581 0.407118 0.228148 -0.194556
N19   N     N_R   0.063157 0.507561 0.770084 -0.193405
N20   N     N_R   0.505300 0.566874 0.769668 -0.196394
N21   N     N_R   0.454800 0.936305 0.770952 -0.192947
N22   N     N_R   0.470782 0.068594 0.266786 -0.175440
N23   N     N_R   0.597152 0.529138 0.267106 -0.176035
N24   N     N_R   0.931643 0.403003 0.266940 -0.175686
C49   C     C_R   0.980566 0.464423 0.792264 0.349816
C50   C     C_R   0.538488 0.518302 0.792170 0.348416
C51   C     C_R   0.485536 0.018491 0.792867 0.349868
C52   C     C_R   0.465191 0.994144 0.288887 0.342883
C53   C     C_R   0.528039 0.534676 0.288959 0.342692
C54   C     C_R   0.006068 0.471971 0.288960 0.342931
C55   C     C_R   0.968909 0.453427 0.713409 0.354791
C56   C     C_R   0.550538 0.516593 0.713359 0.357088
C57   C     C_R   0.487948 0.028609 0.713908 0.353097
C58   C     C_R   0.463974 0.984034 0.209998 0.355720
C59   C     C_R   0.519627 0.535533 0.210056 0.356032
C60   C     C_R   0.016097 0.480588 0.210066 0.355776
C61   C     C_R   0.969647 0.407572 0.861820 -0.006954
C62   C     C_R   0.590024 0.554051 0.862712 -0.006932
C63   C     C_R   0.426284 0.021961 0.860794 -0.005264
C64   C     C_R   0.419517 0.969364 0.360082 -0.007226
C65   C     C_R   0.549008 0.580429 0.360111 -0.007264
C66   C     C_R   0.030942 0.450893 0.360171 -0.007175
C67   C     C_R   0.005845 0.433973 0.900422 0.077217
C68   C     C_R   0.562927 0.565309 0.900989 0.071994
C69   C     C_R   0.417635 0.989276 0.899905 0.081115
C70   C     C_R   0.445648 0.004055 0.398885 0.068377
C71   C     C_R   0.557878 0.554343 0.398914 0.068370
C72   C     C_R   0.996156 0.442063 0.398959 0.068426
C73   C     C_R   0.080458 0.608850 0.883472 -0.022057
C74   C     C_R   0.389255 0.483115 0.881136 -0.023085
C75   C     C_R   0.544750 0.945323 0.888869 -0.018166
C76   C     C_R   0.613212 0.121918 0.377079 -0.035171
C77   C     C_R   0.507799 0.386699 0.377150 -0.035060
C78   C     C_R   0.878189 0.491818 0.377074 -0.035096
C79   C     C_R   0.033691 0.581079 0.846755 0.093263
C80   C     C_R   0.416232 0.463138 0.844562 0.096592
C81   C     C_R   0.557477 0.983782 0.850586 0.093397
C82   C     C_R   0.588685 0.081626 0.339336 0.092399
C83   C     C_R   0.491651 0.411188 0.339423 0.092393
C84   C     C_R   0.918556 0.507816 0.339343 0.092350
C85   C     C_R   0.989589 0.482819 0.834563 0.025078
C86   C     C_R   0.515827 0.507758 0.834127 0.025127
C87   C     C_R   0.491686 0.011732 0.835565 0.025250
C88   C     C_R   0.490994 0.012058 0.330352 0.023311
C89   C     C_R   0.519902 0.508889 0.330416 0.023345
C90   C     C_R   0.988220 0.479801 0.330409 0.023305
C91   C     C_R   0.070935 0.534095 0.909969 0.001455
C92   C     C_R   0.464062 0.538580 0.909254 0.001084
C93   C     C_R   0.465482 0.937167 0.912068 -0.000452
C94   C     C_R   0.540332 0.084342 0.407048 0.003718
C95   C     C_R   0.543532 0.459653 0.407083 0.003742
C96   C     C_R   0.915766 0.456347 0.407072 0.003857
C97   C     C_3   0.019273 0.368039 0.575408 -0.246283
C98   C     C_3   0.130659 0.414080 0.579862 -0.427475
H1    H     H_    0.165802 0.494460 0.585073 0.164356
H2    H     H_    0.149260 0.379129 0.603922 0.164778
H3    H     H_    0.161937 0.402270 0.552659 0.177196
H4    H     H_    0.982546 0.286785 0.577361 0.180023
H5    H     H_    0.008856 0.385505 0.544974 0.193359
C99   C     C_3   0.631504 0.650883 0.574827 -0.245421
C100  C     C_3   0.585276 0.715995 0.579365 -0.427113
H6    H     H_    0.505232 0.670821 0.585369 0.164204
H7    H     H_    0.621594 0.770516 0.602923 0.164390
H8    H     H_    0.595272 0.757913 0.551919 0.177085
H9    H     H_    0.712827 0.695575 0.576369 0.179459
H10   H     H_    0.613199 0.622573 0.544501 0.193033
C101  C     C_3   0.349334 0.981697 0.576277 -0.246970
C102  C     C_3   0.283945 0.870292 0.580520 -0.427889
H11   H     H_    0.329179 0.834913 0.585392 0.164288
H12   H     H_    0.230840 0.851414 0.604712 0.164918
H13   H     H_    0.240323 0.839482 0.553359 0.177125
H14   H     H_    0.304998 0.018592 0.578681 0.180059
H15   H     H_    0.376309 0.992355 0.545744 0.193740
C103  C     C_3   0.365757 0.021079 0.072309 -0.253681
C104  C     C_3   0.414759 0.133082 0.075158 -0.421584
H16   H     H_    0.405504 0.157343 0.104462 0.173260
H17   H     H_    0.494645 0.167233 0.068940 0.166661
H18   H     H_    0.381629 0.160136 0.053203 0.179892
H19   H     H_    0.378551 0.006863 0.041751 0.194094
H20   H     H_    0.284898 0.985639 0.075947 0.180805
C105  C     C_3   0.655629 0.634741 0.072700 -0.253494
C106  C     C_3   0.718859 0.585902 0.075615 -0.419837
H21   H     H_    0.752260 0.594951 0.104978 0.172605
H22   H     H_    0.673347 0.506094 0.069268 0.169040
H23   H     H_    0.779112 0.619295 0.053775 0.180791
H24   H     H_    0.628745 0.622166 0.042111 0.198235
H25   H     H_    0.700821 0.715547 0.076453 0.179889
C107  C     C_3   0.979559 0.344526 0.072775 -0.253512
C108  C     C_3   0.867559 0.281230 0.075703 -0.420810
H26   H     H_    0.843504 0.247913 0.105078 0.172745
H27   H     H_    0.833061 0.326637 0.069331 0.167999
H28   H     H_    0.840646 0.220943 0.053888 0.180087
H29   H     H_    0.993552 0.371271 0.042162 0.196946
H30   H     H_    0.015345 0.299432 0.076577 0.180222
I1    I     I_    0.889401 0.637543 0.592531 -0.326329
I2    I     I_    0.363211 0.252074 0.593122 -0.324423
I3    I     I_    0.749451 0.111336 0.592313 -0.326116
I4    I     I_    0.651083 0.914753 0.087371 -0.341334
I5    I     I_    0.264463 0.348396 0.086946 -0.338813
I6    I     I_    0.083656 0.735425 0.086710 -0.341246
I7    I     I_    0.957217 0.322711 0.945111 -0.423472
I8    I     I_    0.671105 0.620420 0.946946 -0.423851
I9    I     I_    0.340508 0.028164 0.941800 -0.419637
I10   I     I_    0.342410 0.935966 0.445825 -0.412638
I11   I     I_    0.593472 0.657669 0.445819 -0.414625
I12   I     I_    0.064232 0.406627 0.445940 -0.413867
C109  C     C_3   0.007191 0.325227 0.662945 -0.261582
C110  C     C_3   0.110211 0.370595 0.681021 -0.403885
H31   H     H_    0.160305 0.445094 0.669091 0.172847
H32   H     H_    0.106356 0.375268 0.713259 0.193230
H33   H     H_    0.142437 0.323111 0.674876 0.171983
H34   H     H_    0.951341 0.281473 0.685520 0.184278
H35   H     H_    0.999276 0.270409 0.640807 0.169265
C111  C     C_3   0.678363 0.682200 0.662054 -0.258304
C112  C     C_3   0.635376 0.742814 0.679284 -0.401380
H36   H     H_    0.558687 0.715586 0.669264 0.174914
H37   H     H_    0.636753 0.741046 0.711694 0.193037
H38   H     H_    0.680896 0.821014 0.670402 0.167765
H39   H     H_    0.721152 0.669567 0.684971 0.182761
H40   H     H_    0.733885 0.727179 0.639760 0.169759
C113  C     C_3   0.320503 0.991025 0.664080 -0.262543
C114  C     C_3   0.264886 0.888228 0.682391 -0.408024
H41   H     H_    0.286231 0.837407 0.668814 0.170939
H42   H     H_    0.278940 0.891981 0.714289 0.188857
H43   H     H_    0.184483 0.857097 0.678431 0.173725
H44   H     H_    0.332639 0.046864 0.686641 0.184104
H45   H     H_    0.272214 0.997783 0.642191 0.168666
C115  C     C_3   0.322816 0.007265 0.159671 -0.274045
C116  C     C_3   0.243912 0.915260 0.180342 -0.386362
H46   H     H_    0.218231 0.850492 0.160897 0.205748
H47   H     H_    0.271636 0.901051 0.207967 0.177453
H48   H     H_    0.180343 0.924917 0.187616 0.180859
H49   H     H_    0.354417 0.070836 0.179900 0.193714
H50   H     H_    0.284058 0.025675 0.137177 0.163552
C117  C     C_3   0.684257 0.676920 0.160117 -0.273759
C118  C     C_3   0.670868 0.755468 0.180897 -0.386234
H51   H     H_    0.631118 0.780824 0.161569 0.205783
H52   H     H_    0.629494 0.727599 0.208583 0.177294
H53   H     H_    0.743994 0.819264 0.188097 0.180956
H54   H     H_    0.716302 0.645163 0.180327 0.193757
H55   H     H_    0.741440 0.715996 0.137732 0.163630
C119  C     C_3   0.993849 0.316313 0.160232 -0.274129
C120  C     C_3   0.086112 0.330067 0.180994 -0.386492
H56   H     H_    0.150842 0.369228 0.161519 0.205512
H57   H     H_    0.100137 0.372157 0.208507 0.177335
H58   H     H_    0.076875 0.257100 0.188490 0.180962
H59   H     H_    0.930280 0.284262 0.180471 0.193425
H60   H     H_    0.975708 0.259058 0.137892 0.163514
I13   I     I_    0.921972 0.626241 0.694320 -0.261701
I14   I     I_    0.374320 0.297461 0.694678 -0.256126
I15   I     I_    0.707343 0.076762 0.694128 -0.259608
I16   I     I_    0.668292 0.991753 0.186379 -0.296637
I17   I     I_    0.324092 0.330793 0.186043 -0.296837
I18   I     I_    0.007371 0.676402 0.185854 -0.297200
C121  C     C_3   0.915508 0.300362 0.849246 -0.253598
C122  C     C_3   0.987641 0.265322 0.839153 -0.406275
H61   H     H_    0.037156 0.310504 0.815086 0.175802
H62   H     H_    0.032633 0.270570 0.865047 0.173802
H63   H     H_    0.946398 0.187445 0.829526 0.180272
H64   H     H_    0.863767 0.252577 0.872147 0.195052
H65   H     H_    0.867931 0.288449 0.823533 0.188872
C123  C     C_3   0.697527 0.595290 0.851964 -0.253214
C124  C     C_3   0.746939 0.704795 0.842570 -0.409847
H66   H     H_    0.708113 0.717727 0.818109 0.170400
H67   H     H_    0.746691 0.746843 0.868550 0.174846
H68   H     H_    0.824405 0.732115 0.833784 0.181447
H69   H     H_    0.738104 0.582519 0.875660 0.192433
H70   H     H_    0.705682 0.556764 0.826412 0.185990
C125  C     C_3   0.362273 0.062457 0.845721 -0.255486
C126  C     C_3   0.257828 0.979842 0.837331 -0.411689
H71   H     H_    0.258865 0.927437 0.815861 0.176238
H72   H     H_    0.221760 0.939941 0.864598 0.177365
H73   H     H_    0.213922 0.011219 0.824947 0.172839
H74   H     H_    0.360941 0.115325 0.866777 0.193328
H75   H     H_    0.392130 0.105750 0.818601 0.182097
C127  C     C_3   0.315112 0.890775 0.350006 -0.257503
C128  C     C_3   0.249657 0.935814 0.343594 -0.413554
H76   H     H_    0.245484 0.972661 0.370589 0.176756
H77   H     H_    0.279038 0.990360 0.319424 0.176375
H78   H     H_    0.174276 0.877112 0.335718 0.165957
H79   H     H_    0.313300 0.850236 0.323199 0.168853
H80   H     H_    0.283565 0.833719 0.373118 0.191530
C129  C     C_3   0.574787 0.684813 0.349991 -0.257444
C130  C     C_3   0.685217 0.750126 0.343603 -0.413582
H81   H     H_    0.726386 0.754346 0.370622 0.176851
H82   H     H_    0.710246 0.720632 0.319476 0.176246
H83   H     H_    0.701842 0.825478 0.335674 0.166064
H84   H     H_    0.535914 0.686599 0.323155 0.168713
H85   H     H_    0.549416 0.716445 0.373072 0.191612
C131  C     C_3   0.109657 0.425226 0.350145 -0.257487
C132  C     C_3   0.064729 0.314851 0.343754 -0.413643
H86   H     H_    0.027834 0.273669 0.370744 0.176868
H87   H     H_    0.010213 0.289823 0.319561 0.176253
H88   H     H_    0.123531 0.298286 0.335922 0.165957
H89   H     H_    0.150227 0.464119 0.323341 0.168743
H90   H     H_    0.166704 0.450610 0.373275 0.191563
C133  C     C_3   0.143288 0.717790 0.892570 -0.246949
C134  C     C_3   0.087881 0.753110 0.918477 -0.374867
H91   H     H_    0.063003 0.710094 0.946007 0.182712
H92   H     H_    0.136451 0.831708 0.925909 0.170744
H93   H     H_    0.022351 0.745278 0.902726 0.170371
H94   H     H_    0.214795 0.734981 0.905269 0.182813
H95   H     H_    0.166645 0.763227 0.865763 0.162123
C135  C     C_3   0.281656 0.450428 0.888218 -0.245048
C136  C     C_3   0.230407 0.353344 0.910687 -0.371163
H96   H     H_    0.270257 0.357414 0.938063 0.184025
H97   H     H_    0.154628 0.335269 0.918279 0.174364
H98   H     H_    0.226349 0.293152 0.892348 0.168336
H99   H     H_    0.273875 0.508706 0.902930 0.170971
H100  H     H_    0.241112 0.441393 0.860601 0.166184
C137  C     C_3   0.615463 0.913056 0.903611 -0.242415
C138  C     C_3   0.585690 0.809905 0.889173 -0.383343
H101  H     H_    0.631309 0.783887 0.904040 0.175560
H102  H     H_    0.506878 0.758267 0.895304 0.173809
H103  H     H_    0.597341 0.809742 0.857216 0.174576
H104  H     H_    0.691541 0.965134 0.893945 0.170809
H105  H     H_    0.622552 0.917428 0.935823 0.176523
C139  C     C_3   0.715451 0.208788 0.383663 -0.247271
C140  C     C_3   0.786065 0.174104 0.397105 -0.365455
H106  H     H_    0.763986 0.137612 0.426062 0.185656
H107  H     H_    0.787089 0.121420 0.375790 0.165062
H108  H     H_    0.861623 0.237638 0.399283 0.168708
H109  H     H_    0.744943 0.253727 0.356838 0.170619
H110  H     H_    0.713883 0.262218 0.404098 0.151596
C141  C     C_3   0.492458 0.284445 0.383733 -0.247112
C142  C     C_3   0.387332 0.214001 0.397239 -0.365465
H111  H     H_    0.373259 0.236170 0.426205 0.185511
H112  H     H_    0.333405 0.213021 0.375957 0.164942
H113  H     H_    0.375314 0.138434 0.399423 0.168737
H114  H     H_    0.507568 0.254861 0.356895 0.170540
H115  H     H_    0.547685 0.285959 0.404119 0.151675
C143  C     C_3   0.791252 0.507137 0.383618 -0.247323
C144  C     C_3   0.825904 0.612283 0.397038 -0.365591
H116  H     H_    0.862464 0.626524 0.425988 0.185652
H117  H     H_    0.878546 0.666085 0.375705 0.165022
H118  H     H_    0.762314 0.624260 0.399226 0.168724
H119  H     H_    0.746322 0.491876 0.356781 0.170692
H120  H     H_    0.737797 0.452055 0.404056 0.151576
I19   I     I_    0.025813 0.685755 0.808251 -0.362117
I20   I     I_    0.307329 0.363982 0.803594 -0.340478
I21   I     I_    0.676287 0.000960 0.813757 -0.352024
I22   I     I_    0.699261 0.125930 0.294263 -0.287320
I23   I     I_    0.424857 0.300623 0.294378 -0.287891
I24   I     I_    0.874183 0.574203 0.294199 -0.287551

loop_
_geom_bond_atom_site_label_1
_geom_bond_atom_site_label_2
_geom_bond_distance
_ccdc_geom_bond_type
N21   C51   1.356763 A    
C27   C113  1.526949 S    
N16   N22   1.328821 A    
C63   C87   1.411895 A    
C44   I2    2.149545 S    
C132  H86   1.109820 S    
C64   C88   1.411731 A    
C35   C41   1.410486 A    
C105  H25   1.109655 S    
C104  H17   1.111126 S    
C144  H116  1.109287 S    
C135  H100  1.107143 S    
C2    C15   1.494222 S    
C139  H109  1.107800 S    
C130  H81   1.109806 S    
O22   Cr4   1.948986 S    
C122  H63   1.110511 S    
N6    C54   1.355034 A    
C76   C94   1.426799 A    
O10   Cr4   1.958625 S    
C106  H21   1.108200 S    
O12   Cr6   1.962229 S    
O13   Cr1   2.078501 S    
C10   C92   1.489594 S    
C22   C28   1.418111 A    
C36   C60   1.469084 S    
C77   C95   1.426764 A    
C133  H94   1.103618 S    
C13   C19   1.422566 A    
C142  H111  1.109272 S    
C99   H10   1.108650 S    
N17   C59   1.354103 A    
O3    C1    1.249990 A    
O1    Cr1   2.063952 S    
N3    N9    1.332395 A    
O3    Cr3   2.066769 S    
N16   C58   1.354199 A    
O8    Cr2   1.961014 S    
C63   C125  1.521978 S    
O13   C8    1.250078 A    
C115  C116  1.527734 S    
C100  H7    1.104809 S    
N9    C57   1.357905 A    
C50   C86   1.468195 S    
C26   C111  1.527475 S    
C19   C97   1.531062 S    
O20   Cr2   1.947698 S    
O5    C6    1.246703 A    
C75   C137  1.517687 S    
O18   C10   1.252272 A    
C83   I23   2.161783 S    
C106  H23   1.110631 S    
C112  H36   1.111226 S    
O4    Cr4   2.066478 S    
C116  H46   1.109665 S    
C104  H16   1.108198 S    
C142  H113  1.107265 S    
N12   C60   1.358575 A    
C62   C68   1.415697 A    
C98   H1    1.111136 S    
N17   N23   1.328679 A    
C69   C93   1.421122 A    
O14   C9    1.250488 A    
C102  H11   1.111161 S    
C77   C83   1.404301 A    
C126  H72   1.108415 S    
C75   C93   1.427893 A    
C134  H91   1.109615 S    
C84   I24   2.161894 S    
C51   C87   1.470583 S    
C52   C88   1.462950 S    
C144  H118  1.107216 S    
C124  H67   1.109238 S    
O23   C11   1.253877 A    
C129  H84   1.109484 S    
C130  H83   1.110433 S    
C53   C89   1.462235 S    
C14   C44   1.415354 A    
C78   C84   1.404636 A    
C16   C46   1.413504 A    
C113  H45   1.106749 S    
N20   C50   1.356426 A    
O17   Cr5   2.076822 S    
O24   C12   1.258550 A    
C71   I11   2.149314 S    
C43   I1    2.149901 S    
Cr2   O25   1.963002 S    
C111  H40   1.107127 S    
N24   C54   1.356921 A    
C127  H80   1.108569 S    
N10   C58   1.358607 A    
C73   C133  1.520593 S    
C141  H115  1.102757 S    
C72   I12   2.149448 S    
O9    C3    1.251936 A    
N6    N12   1.330759 A    
C73   C91   1.429702 A    
O6    C4    1.247142 A    
C30   C119  1.528610 S    
O7    C1    1.252658 A    
C8    C94   1.483794 S    
O17   C12   1.252975 A    
O6    Cr6   2.063169 S    
C22   C103  1.527272 S    
O10   C4    1.254368 A    
O19   C7    1.250649 A    
C140  H107  1.109909 S    
O20   C8    1.250296 A    
C35   C59   1.468492 S    
C117  H54   1.108278 S    
C66   C131  1.519065 S    
O9    Cr3   1.958389 S    
O21   C9    1.250756 A    
O15   C7    1.250646 A    
C125  H74   1.108214 S    
C131  H90   1.108576 S    
C132  H87   1.111029 S    
C116  H48   1.110610 S    
N8    C56   1.358967 A    
C24   C30   1.418041 A    
C138  H101  1.108705 S    
C15   C45   1.418005 A    
C97   H4    1.109242 S    
C108  H27   1.111163 S    
C17   C23   1.419804 A    
C103  C104  1.531149 S    
C117  H55   1.104216 S    
C28   C34   1.418035 A    
C71   C95   1.416001 A    
C73   C79   1.408974 A    
C72   C96   1.415988 A    
C102  H13   1.111098 S    
C121  H65   1.106870 S    
C138  H102  1.109345 S    
C136  H97   1.107746 S    
C122  H62   1.109108 S    
C79   I19   2.156055 S    
C66   C90   1.411692 A    
C128  H76   1.109807 S    
C108  H26   1.108205 S    
C40   C46   1.405981 A    
N1    C49   1.356771 A    
C64   C127  1.519040 S    
C14   C20   1.422020 A    
C39   C45   1.405286 A    
C67   I7    2.153022 S    
C76   C139  1.516838 S    
C143  C144  1.529134 S    
C112  H38   1.110968 S    
C32   C38   1.409172 A    
C123  H69   1.108345 S    
C77   C141  1.516858 S    
C114  H43   1.110895 S    
C81   I21   2.154949 S    
N5    N11   1.330640 A    
C119  H60   1.104239 S    
C13   C43   1.416279 A    
C113  C114  1.533525 S    
C7    C95   1.483361 S    
O2    Cr2   2.064862 S    
N14   N20   1.327750 A    
C120  H58   1.110596 S    
C29   C35   1.417822 A    
C114  H42   1.108569 S    
C115  H49   1.108196 S    
C107  H29   1.108266 S    
C4    C17   1.488247 S    
C103  H20   1.109696 S    
C27   C33   1.415847 A    
C121  H64   1.108117 S    
O23   Cr5   1.948163 S    
C38   I14   2.149914 S    
C82   I22   2.161932 S    
C143  H119  1.107803 S    
C105  H24   1.108032 S    
C123  C124  1.526236 S    
C42   I18   2.145414 S    
C45   I3    2.149584 S    
C36   C42   1.410653 A    
C118  H53   1.110574 S    
C139  H110  1.102785 S    
C130  H82   1.111026 S    
C82   C88   1.402170 A    
C15   C21   1.423469 A    
C70   C94   1.415979 A    
C38   C44   1.404285 A    
N2    C50   1.356654 A    
N14   C56   1.352537 A    
C18   C24   1.419682 A    
C106  H22   1.111105 S    
O22   C10   1.252464 A    
Cr4   O26   1.964165 S    
C127  C128  1.526424 S    
C24   C107  1.527074 S    
C128  H78   1.110392 S    
C129  C130  1.526415 S    
C142  H112  1.109928 S    
O1    C2    1.251859 A    
C65   C129  1.519027 S    
C54   C90   1.462867 S    
N15   N21   1.329334 A    
C78   C143  1.516840 S    
O18   Cr6   2.078665 S    
C100  H6    1.111140 S    
C124  H66   1.110987 S    
C105  C106  1.531180 S    
C68   C92   1.419813 A    
Cr6   O26   1.963466 S    
C65   C71   1.415407 A    
C64   C70   1.415613 A    
C76   C82   1.404601 A    
C120  H56   1.109704 S    
C131  C132  1.526397 S    
C80   C86   1.403594 A    
C23   C105  1.526945 S    
C110  H31   1.111039 S    
O8    C2    1.252372 A    
C117  C118  1.527820 S    
C23   C29   1.417942 A    
N13   N19   1.328282 A    
C98   H2    1.105355 S    
C101  H15   1.108243 S    
C74   C135  1.520170 S    
C102  H12   1.105616 S    
C16   C22   1.419702 A    
C30   C36   1.417952 A    
C125  C126  1.526116 S    
C126  H73   1.111468 S    
C34   C58   1.469208 S    
C134  H92   1.109068 S    
C69   I9    2.154314 S    
C104  H18   1.110643 S    
C144  H117  1.109921 S    
C135  H99   1.104352 S    
C25   C109  1.527147 S    
C109  C110  1.533911 S    
C98   H3    1.111096 S    
C84   C90   1.402139 A    
C101  C102  1.530316 S    
C113  H44   1.111664 S    
C129  H85   1.108582 S    
C68   I8    2.152105 S    
O7    Cr1   1.962163 S    
C134  H93   1.111713 S    
Cr1   O25   1.963411 S    
C61   C85   1.411303 A    
C75   C81   1.413193 A    
C5    C18   1.488540 S    
C78   C96   1.426805 A    
C20   C99   1.531193 S    
C119  C120  1.527698 S    
C133  H95   1.105461 S    
C141  H114  1.107786 S    
C99   H9    1.109192 S    
O2    C3    1.250507 A    
C37   C43   1.404042 A    
N13   C55   1.353017 A    
O4    C5    1.247166 A    
C63   C69   1.414320 A    
Cr5   O26   1.962969 S    
C100  H8    1.111108 S    
O11   C5    1.254287 A    
C138  H103  1.108805 S    
C101  H14   1.109355 S    
C21   C101  1.531244 S    
C31   C55   1.464729 S    
N23   C53   1.356917 A    
C116  H47   1.107737 S    
C123  H70   1.107247 S    
N4    C52   1.355043 A    
N11   C59   1.358562 A    
C110  H33   1.111079 S    
C137  H105  1.105994 S    
C118  H52   1.107699 S    
C25   C31   1.415965 A    
C66   C72   1.415571 A    
C141  C142  1.529183 S    
C29   C117  1.528747 S    
C140  H106  1.109278 S    
C136  H96   1.109311 S    
C28   C115  1.528636 S    
C33   C39   1.406846 A    
C126  H71   1.110213 S    
O24   Cr6   1.945975 S    
C42   C48   1.405992 A    
C80   I20   2.156659 S    
C124  H68   1.110508 S    
C137  C138  1.527297 S    
C40   I16   2.145383 S    
C61   C121  1.521274 S    
C133  C134  1.528517 S    
C41   C47   1.405728 A    
C118  H51   1.109627 S    
N4    N10   1.330722 A    
O16   C11   1.253227 A    
C111  H39   1.111763 S    
C112  H37   1.109279 S    
C49   C85   1.468545 S    
C12   C93   1.501288 S    
C127  H79   1.109399 S    
N1    N7    1.332078 A    
N2    N8    1.332311 A    
C109  H35   1.106855 S    
O19   Cr1   1.946315 S    
O21   Cr3   1.949108 S    
C120  H57   1.107724 S    
C18   C48   1.413649 A    
N22   C52   1.356987 A    
C20   C26   1.421378 A    
C115  H50   1.104249 S    
C47   I5    2.147092 S    
C81   C87   1.405149 A    
C140  H108  1.107225 S    
C107  H30   1.109706 S    
C137  H104  1.108831 S    
C3    C13   1.490659 S    
N19   C49   1.356497 A    
C125  H75   1.106124 S    
C74   C92   1.428293 A    
C131  H89   1.109418 S    
C19   C25   1.421892 A    
C132  H88   1.110424 S    
C143  H120  1.102798 S    
C111  C112  1.534514 S    
C31   C37   1.407721 A    
Cr3   O25   1.964190 S    
C1    C14   1.489842 S    
C70   I10   2.149489 S    
C21   C27   1.423099 A    
C107  C108  1.531149 S    
C97   H5    1.108553 S    
C108  H28   1.110627 S    
C139  C140  1.529208 S    
O14   Cr2   2.077529 S    
N18   C60   1.354168 A    
O15   Cr3   2.074514 S    
C79   C85   1.403145 A    
C32   C56   1.466399 S    
C136  H98   1.110423 S    
O16   Cr4   2.075057 S    
C122  H61   1.111185 S    
C11   C91   1.492974 S    
C6    C16   1.488331 S    
C135  C136  1.528323 S    
C33   C57   1.466767 S    
C67   C91   1.420931 A    
N3    C51   1.357127 A    
C128  H77   1.111028 S    
C26   C32   1.417044 A    
C109  H34   1.111732 S    
C65   C89   1.411464 A    
C121  C122  1.526343 S    
N5    C53   1.354969 A    
O5    Cr5   2.065936 S    
C83   C89   1.401969 A    
N7    C55   1.358493 A    
C39   I15   2.149660 S    
C74   C80   1.406685 A    
C37   I13   2.149389 S    
C62   C86   1.412064 A    
C9    C96   1.483774 S    
C46   I4    2.146971 S    
C41   I17   2.145235 S    
C119  H59   1.108204 S    
C99   C100  1.529587 S    
C61   C67   1.414914 A    
C48   I6    2.147188 S    
C62   C123  1.520808 S    
N15   C57   1.354398 A    
N18   N24   1.328803 A    
O11   Cr5   1.960714 S    
C114  H41   1.110978 S    
C34   C40   1.410737 A    
C110  H32   1.108961 S    
O12   C6    1.254169 A    
C97   C98   1.529916 S    
C103  H19   1.108587 S    
C17   C47   1.413563 A    
