data_mof_unit_66703.cif
_audit_creation_date              2012-12-11T19:24:53-0500
_audit_creation_method            fapswitch 2.2
_symmetry_space_group_name_H-M    P1
_symmetry_Int_Tables_number       1
_space_group_crystal_system       triclinic
_cell_length_a                    19.600116
_cell_length_b                    23.318812
_cell_length_c                    8.940032
_cell_angle_alpha                 90.191804
_cell_angle_beta                  103.891144
_cell_angle_gamma                 89.670868
_cell_volume                      3966.47834724

loop_
_atom_site_label
_atom_site_type_symbol
_atom_type_description
_atom_site_fract_x
_atom_site_fract_y
_atom_site_fract_z
_atom_type_partial_charge
Ba1   Ba    Ba6+2 0.999900 0.457470 0.844900 1.797344
Ba2   Ba    Ba6+2 0.999900 0.542530 0.344900 1.791338
Ba3   Ba    Ba6+2 0.499900 0.957470 0.844900 1.797362
Ba4   Ba    Ba6+2 0.499900 0.042530 0.344900 1.791347
C1    C     C_3   0.036134 0.167555 0.594886 0.515157
C2    C     C_3   0.034567 0.831060 0.092898 0.514295
C3    C     C_3   0.536148 0.667557 0.594910 0.515180
C4    C     C_3   0.534565 0.331061 0.092899 0.514289
C5    C     C_R   0.193284 0.729226 0.898057 -0.117558
C6    C     C_R   0.193235 0.270436 0.401210 -0.129310
C7    C     C_R   0.693282 0.229227 0.898057 -0.117541
C8    C     C_R   0.693234 0.770436 0.401212 -0.129297
C9    C     C_R   0.786766 0.321436 0.037559 -0.089833
C10   C     C_R   0.785204 0.677472 0.541578 -0.088788
C11   C     C_R   0.286770 0.821434 0.037556 -0.089834
C12   C     C_R   0.285204 0.177472 0.541578 -0.088781
C13   C     C_R   0.744951 0.324271 0.885415 0.052121
C14   C     C_R   0.744021 0.674892 0.389050 0.065158
C15   C     C_R   0.244954 0.824269 0.885414 0.052116
C16   C     C_R   0.244022 0.174892 0.389049 0.065158
C17   C     C_R   0.208205 0.776372 0.811841 0.388369
C18   C     C_R   0.208564 0.223220 0.314927 0.366039
C19   C     C_R   0.708203 0.276373 0.811842 0.388424
C20   C     C_R   0.708563 0.723220 0.314929 0.366036
C21   C     C_R   0.837500 0.365570 0.103524 0.082476
C22   C     C_R   0.836186 0.633422 0.606813 0.080643
C23   C     C_R   0.337502 0.865569 0.103523 0.082652
C24   C     C_R   0.336186 0.133422 0.606813 0.080638
C25   C     C_R   0.869663 0.362369 0.263977 -0.029247
C26   C     C_R   0.867502 0.636057 0.767926 -0.119603
C27   C     C_R   0.369664 0.862368 0.263976 -0.029292
C28   C     C_R   0.367503 0.136057 0.767926 -0.119605
C29   C     C_R   0.161628 0.636349 0.085791 0.016177
C30   C     C_R   0.160753 0.363056 0.589195 0.001088
C31   C     C_R   0.661627 0.136350 0.085791 0.016175
C32   C     C_R   0.660754 0.863057 0.589196 0.001099
C33   C     C_R   0.215355 0.678842 0.146857 -0.070588
C34   C     C_R   0.215963 0.321551 0.649736 -0.111145
C35   C     C_R   0.715353 0.178843 0.146857 -0.070588
C36   C     C_R   0.715965 0.821551 0.649736 -0.111152
C37   C     C_R   0.227300 0.727267 0.057533 -0.101145
C38   C     C_R   0.226858 0.272382 0.561014 -0.104739
C39   C     C_R   0.727297 0.227268 0.057534 -0.101123
C40   C     C_R   0.726859 0.772383 0.561014 -0.104744
C41   C     C_R   0.258300 0.675052 0.295479 0.133784
C42   C     C_R   0.261176 0.325930 0.797165 0.151829
C43   C     C_R   0.758298 0.175053 0.295478 0.133786
C44   C     C_R   0.761178 0.825931 0.797165 0.151826
C45   C     C_3   0.977346 0.245011 0.062512 0.899769
C46   C     C_3   0.978972 0.758158 0.582295 0.928312
C47   C     C_3   0.477347 0.745004 0.062535 0.899671
C48   C     C_3   0.478971 0.258158 0.582294 0.928308
C49   C     C_R   0.794316 0.222572 0.370995 0.106552
C50   C     C_R   0.793523 0.777591 0.873917 0.175686
C51   C     C_R   0.294318 0.722571 0.370995 0.106584
C52   C     C_R   0.293522 0.277591 0.873917 0.175682
C53   C     C_R   0.809238 0.270726 0.287103 -0.005152
C54   C     C_R   0.807540 0.728478 0.791131 -0.000600
C55   C     C_R   0.309240 0.770724 0.287102 -0.005122
C56   C     C_R   0.307539 0.228478 0.791131 -0.000603
C57   C     C_R   0.775610 0.272823 0.126874 -0.016995
C58   C     C_R   0.774348 0.726358 0.630822 -0.052443
C59   C     C_R   0.275614 0.772821 0.126872 -0.017058
C60   C     C_R   0.274347 0.226358 0.630823 -0.052427
C61   C     C_R   0.857954 0.315002 0.355532 0.052205
C62   C     C_R   0.855526 0.683626 0.860006 0.044275
C63   C     C_R   0.357955 0.815002 0.355532 0.052229
C64   C     C_R   0.355526 0.183626 0.860006 0.044276
C65   C     C_R   0.125869 0.642433 0.927770 0.114955
C66   C     C_R   0.122617 0.355127 0.432908 0.155706
C67   C     C_R   0.625868 0.142434 0.927769 0.114952
C68   C     C_R   0.622618 0.855127 0.432910 0.155708
C69   C     C_3   0.947631 0.181595 0.041928 0.946680
C70   C     C_3   0.951668 0.822000 0.553594 0.972210
C71   C     C_3   0.447651 0.681578 0.041953 0.946550
C72   C     C_3   0.451667 0.322000 0.553595 0.972200
C73   C     C_3   0.219538 0.468937 0.254198 0.393487
C74   C     C_3   0.222225 0.529513 0.768507 0.347782
C75   C     C_3   0.719539 0.968937 0.254197 0.393485
C76   C     C_3   0.722225 0.029513 0.768506 0.347805
C77   C     C_3   0.290771 0.436831 0.256853 0.575580
C78   C     C_3   0.292791 0.561776 0.765565 0.573442
C79   C     C_3   0.790772 0.936833 0.256850 0.575584
C80   C     C_3   0.792790 0.061777 0.765561 0.573399
C81   C     C_3   0.762312 0.528587 0.931418 1.014277
C82   C     C_3   0.764429 0.471242 0.429089 1.056940
C83   C     C_3   0.262312 0.028587 0.931416 1.014275
C84   C     C_3   0.264429 0.971242 0.429088 1.056937
C85   C     C_3   0.687502 0.549370 0.949353 0.698729
C86   C     C_3   0.689669 0.450543 0.442962 0.693084
C87   C     C_3   0.187501 0.049371 0.949346 0.698717
C88   C     C_3   0.189669 0.950543 0.442959 0.693091
C89   C     C_3   0.020199 0.232550 0.627484 0.788385
C90   C     C_3   0.018265 0.766234 0.121845 0.810599
C91   C     C_3   0.520200 0.732551 0.627493 0.788335
C92   C     C_3   0.518264 0.266234 0.121845 0.810591
C93   C     C_R   0.142842 0.685765 0.832619 0.075370
C94   C     C_R   0.142082 0.313531 0.336152 0.075629
C95   C     C_R   0.642840 0.185766 0.832619 0.075350
C96   C     C_R   0.642081 0.813530 0.336155 0.075624
H1    H     H_    0.177971 0.450038 0.159694 0.065298
H2    H     H_    0.177598 0.552636 0.690580 0.063742
H3    H     H_    0.677972 0.950038 0.159693 0.065295
H4    H     H_    0.677597 0.052635 0.690580 0.063742
O1    O     O_2   0.860260 0.414960 0.826400 -0.410446
O2    O     O_2   0.860260 0.585040 0.326400 -0.407415
O3    O     O_2   0.360260 0.914960 0.826400 -0.410395
O4    O     O_2   0.360260 0.085040 0.326400 -0.407412
O5    O     O_3   0.225243 0.473425 0.717190 -0.666251
O6    O     O_3   0.226511 0.527061 0.228449 -0.629324
O7    O     O_3   0.725243 0.973425 0.717190 -0.666250
O8    O     O_3   0.726511 0.027061 0.228449 -0.629323
O9    O     O_3   0.051588 0.243913 0.082627 -0.572143
O10   O     O_3   0.050803 0.755774 0.576113 -0.537057
O11   O     O_3   0.551587 0.743916 0.082617 -0.572121
O12   O     O_3   0.550802 0.255774 0.576110 -0.537058
O13   O     O_3   0.081330 0.529680 0.090830 -0.493990
O14   O     O_3   0.081330 0.470320 0.590830 -0.479137
O15   O     O_3   0.581330 0.029680 0.090830 -0.493993
O16   O     O_3   0.581330 0.970320 0.590830 -0.479135
O17   O     O_3   0.918600 0.470180 0.098890 -0.455827
O18   O     O_3   0.918600 0.529820 0.598890 -0.457477
O19   O     O_3   0.418600 0.970180 0.098890 -0.455839
O20   O     O_3   0.418600 0.029820 0.598890 -0.457478
O21   O     O_3   0.975750 0.362410 0.628650 -0.476130
O22   O     O_3   0.975750 0.637590 0.128650 -0.484511
O23   O     O_3   0.475750 0.862410 0.628650 -0.476127
O24   O     O_3   0.475750 0.137590 0.128650 -0.484512
O25   O     O_2   0.860667 0.318395 0.667109 -0.464893
O26   O     O_2   0.861901 0.683070 0.176962 -0.455224
O27   O     O_2   0.360670 0.818392 0.667115 -0.464898
O28   O     O_2   0.361901 0.183069 0.176962 -0.455227
O29   O     O_3   0.769260 0.469579 0.962545 -0.608170
O30   O     O_3   0.770083 0.530083 0.462079 -0.592746
O31   O     O_3   0.269260 0.969579 0.962548 -0.608193
O32   O     O_3   0.270083 0.030083 0.462079 -0.592746
O33   O     O_3   0.946933 0.239906 0.611911 -0.577932
O34   O     O_3   0.945156 0.759950 0.106993 -0.579852
O35   O     O_3   0.446932 0.739904 0.611888 -0.578000
O36   O     O_3   0.445155 0.259950 0.106999 -0.579848
O37   O     O_2   0.139400 0.414340 0.863230 -0.482425
O38   O     O_2   0.139400 0.585660 0.363230 -0.460969
O39   O     O_2   0.639400 0.914340 0.863230 -0.482427
O40   O     O_2   0.639400 0.085660 0.363230 -0.460970
O41   O     O_3   0.023740 0.362300 0.060930 -0.381677
O42   O     O_3   0.023740 0.637700 0.560930 -0.417154
O43   O     O_3   0.523740 0.862300 0.060930 -0.381605
O44   O     O_3   0.523740 0.137700 0.560930 -0.417153
O45   O     O_2   0.140867 0.318974 0.022038 -0.464925
O46   O     O_2   0.140392 0.679944 0.518406 -0.467218
O47   O     O_2   0.640867 0.818977 0.022044 -0.464937
O48   O     O_2   0.640392 0.179944 0.518406 -0.467214
P1    P     P_3+3 0.853370 0.434890 0.996520 1.138983
P2    P     P_3+3 0.853370 0.565110 0.496520 1.141931
P3    P     P_3+3 0.353370 0.934890 0.996520 1.139044
P4    P     P_3+3 0.353370 0.065110 0.496520 1.141930
P5    P     P_3+3 0.146350 0.434230 0.693140 0.977981
P6    P     P_3+3 0.146350 0.565770 0.193140 1.003750
P7    P     P_3+3 0.646350 0.934230 0.693140 0.977983
P8    P     P_3+3 0.646350 0.065770 0.193140 1.003748
P9    P     P_3+3 0.090034 0.312169 0.129043 1.150661
P10   P     P_3+3 0.089933 0.687671 0.626079 1.123269
P11   P     P_3+3 0.590033 0.812170 0.129046 1.150695
P12   P     P_3+3 0.589932 0.187671 0.626078 1.123273
P13   P     P_3+3 0.910772 0.689664 0.065373 1.067390
P14   P     P_3+3 0.912212 0.309929 0.562068 1.069084
P15   P     P_3+3 0.410772 0.189664 0.065374 1.067396
P16   P     P_3+3 0.412213 0.809928 0.562067 1.069056
N1    N     N_3   0.056805 0.247576 0.784530 -0.415919
H5    H     H_    0.111104 0.242999 0.798859 0.186236
H6    H     H_    0.048482 0.291246 0.798238 0.241579
N2    N     N_3   0.055454 0.750355 0.278015 -0.447406
H7    H     H_    0.109741 0.752404 0.289182 0.190290
H8    H     H_    0.044433 0.707619 0.295179 0.233887
N3    N     N_3   0.556793 0.747581 0.784547 -0.415961
H9    H     H_    0.611093 0.743013 0.798892 0.186261
H10   H     H_    0.548458 0.791248 0.798259 0.241588
N4    N     N_3   0.555456 0.250355 0.278013 -0.447405
H11   H     H_    0.609743 0.252409 0.289179 0.190285
H12   H     H_    0.544439 0.207617 0.295172 0.233884
N5    N     N_3   0.345053 0.444644 0.401215 -0.461956
H13   H     H_    0.356517 0.488129 0.418935 0.165118
H14   H     H_    0.330547 0.427509 0.496570 0.183198
N6    N     N_3   0.349562 0.553205 0.904921 -0.409333
H15   H     H_    0.358882 0.509437 0.923792 0.168478
H16   H     H_    0.339162 0.573051 0.001917 0.205079
N7    N     N_3   0.845054 0.944644 0.401212 -0.461958
H17   H     H_    0.856518 0.988130 0.418934 0.165112
H18   H     H_    0.830548 0.927509 0.496565 0.183202
N8    N     N_3   0.849561 0.053210 0.904918 -0.409377
H19   H     H_    0.858884 0.009443 0.923794 0.168486
H20   H     H_    0.839160 0.073057 0.001912 0.205073
O49   O     O_3   0.276650 0.378146 0.230964 -0.736589
H21   H     H_    0.273394 0.360171 0.329173 0.297615
O50   O     O_3   0.278241 0.620619 0.746337 -0.734550
H22   H     H_    0.268181 0.635468 0.842611 0.293549
O51   O     O_3   0.776652 0.878147 0.230957 -0.736587
H23   H     H_    0.773393 0.860172 0.329164 0.297613
O52   O     O_3   0.778237 0.120620 0.746326 -0.734564
H24   H     H_    0.768170 0.135468 0.842593 0.293563
N9    N     N_3   0.319652 0.457931 0.132052 -0.460575
H25   H     H_    0.362965 0.432325 0.126144 0.221892
H26   H     H_    0.339799 0.498850 0.161997 0.167988
N10   N     N_3   0.320126 0.542388 0.636054 -0.446492
H27   H     H_    0.278442 0.535251 0.541761 0.201928
H28   H     H_    0.345463 0.502962 0.664034 0.166581
N11   N     N_3   0.819653 0.957934 0.132050 -0.460574
H29   H     H_    0.862966 0.932328 0.126141 0.221889
H30   H     H_    0.839799 0.998853 0.161995 0.167984
N12   N     N_3   0.820125 0.042388 0.636052 -0.446512
H31   H     H_    0.778443 0.035251 0.541758 0.201936
H32   H     H_    0.845460 0.002961 0.664035 0.166584
O53   O     O_3   0.768272 0.537971 0.780820 -0.775001
H33   H     H_    0.749405 0.576746 0.749032 0.262273
O54   O     O_3   0.771674 0.462404 0.279107 -0.776714
H34   H     H_    0.752797 0.423943 0.244885 0.252610
O55   O     O_3   0.268273 0.037968 0.780818 -0.774999
H35   H     H_    0.249407 0.076743 0.749027 0.262278
O56   O     O_3   0.271675 0.962404 0.279105 -0.776718
H36   H     H_    0.252798 0.923943 0.244884 0.252599
O57   O     O_3   0.814669 0.557577 0.037428 -0.712004
H37   H     H_    0.807670 0.598904 0.015030 0.266725
O58   O     O_3   0.816496 0.442134 0.535881 -0.717780
H38   H     H_    0.810077 0.400969 0.511384 0.265405
O59   O     O_3   0.314669 0.057577 0.037424 -0.712007
H39   H     H_    0.307669 0.098904 0.015025 0.266724
O60   O     O_3   0.316496 0.942133 0.535880 -0.717784
H40   H     H_    0.310076 0.900969 0.511384 0.265401
N13   N     N_3   0.628538 0.525222 0.833149 -0.495706
H41   H     H_    0.619655 0.548522 0.731124 0.215786
H42   H     H_    0.636887 0.481810 0.814904 0.194878
N14   N     N_3   0.632958 0.475367 0.321490 -0.484911
H43   H     H_    0.619156 0.445922 0.231314 0.210369
H44   H     H_    0.587386 0.479748 0.362223 0.169169
N15   N     N_3   0.128538 0.025220 0.833148 -0.495716
H45   H     H_    0.119651 0.048520 0.731120 0.215803
H46   H     H_    0.136889 0.981808 0.814904 0.194878
N16   N     N_3   0.132959 0.975367 0.321487 -0.484921
H47   H     H_    0.119154 0.945922 0.231313 0.210363
H48   H     H_    0.087387 0.979752 0.362221 0.169167
O61   O     O_3   0.683241 0.609506 0.939502 -0.762114
H49   H     H_    0.638356 0.621202 0.964141 0.374408
O62   O     O_3   0.686062 0.390314 0.433077 -0.773275
H50   H     H_    0.641561 0.378787 0.458830 0.361494
O63   O     O_3   0.183241 0.109507 0.939484 -0.762122
H51   H     H_    0.138358 0.121204 0.964131 0.374382
O64   O     O_3   0.186062 0.890314 0.433073 -0.773272
H52   H     H_    0.141561 0.878786 0.458826 0.361498
O65   O     O_3   0.679665 0.532992 0.093763 -0.691742
H53   H     H_    0.670581 0.491364 0.084613 0.316872
O66   O     O_3   0.680245 0.467503 0.586250 -0.734402
H54   H     H_    0.670783 0.509189 0.576944 0.308851
O67   O     O_3   0.179665 0.032996 0.093760 -0.691756
H55   H     H_    0.170582 0.991368 0.084618 0.316877
O68   O     O_3   0.180245 0.967502 0.586247 -0.734404
H56   H     H_    0.170784 0.009188 0.576943 0.308857
O69   O     O_3   0.043310 0.268206 0.525558 -0.803982
H57   H     H_    0.093220 0.258754 0.539149 0.235390
O70   O     O_3   0.040126 0.730946 0.016029 -0.762785
H58   H     H_    0.090062 0.739559 0.028313 0.238143
O71   O     O_3   0.543318 0.768209 0.525579 -0.803955
H59   H     H_    0.593230 0.758760 0.539197 0.235396
O72   O     O_3   0.540124 0.230948 0.016026 -0.762783
H60   H     H_    0.590059 0.239560 0.028309 0.238135
N17   N     N_3   0.019511 0.156260 0.428700 -0.451835
H61   H     H_    0.027694 0.112699 0.410174 0.195755
H62   H     H_    0.055664 0.177563 0.380018 0.134242
N18   N     N_3   0.009485 0.844940 0.928822 -0.397235
H63   H     H_    0.018324 0.888426 0.912538 0.192763
H64   H     H_    0.040353 0.823118 0.866660 0.221619
N19   N     N_3   0.519548 0.656259 0.428724 -0.451843
H65   H     H_    0.527760 0.612699 0.410218 0.195733
H66   H     H_    0.555703 0.677572 0.380070 0.134196
N20   N     N_3   0.509479 0.344942 0.928825 -0.397234
H67   H     H_    0.518317 0.388429 0.912540 0.192767
H68   H     H_    0.540346 0.323121 0.866657 0.221627
O73   O     O_3   0.107428 0.153640 0.659032 -0.761284
H69   H     H_    0.137124 0.171869 0.597498 0.284468
O74   O     O_3   0.107500 0.841965 0.142037 -0.769857
H70   H     H_    0.131473 0.828255 0.062852 0.280524
O75   O     O_3   0.607441 0.653649 0.659103 -0.761266
H71   H     H_    0.637145 0.671877 0.597579 0.284462
O76   O     O_3   0.607498 0.341967 0.142030 -0.769855
H72   H     H_    0.631470 0.328251 0.062847 0.280517
O77   O     O_3   0.918377 0.165609 0.164556 -0.735883
H73   H     H_    0.872055 0.184788 0.148679 0.300540
O78   O     O_3   0.909058 0.836470 0.654171 -0.705282
H74   H     H_    0.863993 0.816076 0.617038 0.285969
O79   O     O_3   0.418384 0.665591 0.164560 -0.735814
H75   H     H_    0.372060 0.684770 0.148660 0.300508
O80   O     O_3   0.409056 0.336469 0.654171 -0.705280
H76   H     H_    0.363990 0.316073 0.617035 0.285962
N21   N     N_3   0.727861 0.378209 0.811403 -0.436449
H77   H     H_    0.746006 0.379204 0.711462 0.265363
H78   H     H_    0.673191 0.383235 0.782528 0.219650
N22   N     N_3   0.726174 0.621080 0.315109 -0.425617
H79   H     H_    0.744346 0.619585 0.215267 0.262743
H80   H     H_    0.671454 0.616786 0.286722 0.215013
N23   N     N_3   0.227864 0.878208 0.811404 -0.436453
H81   H     H_    0.246007 0.879204 0.711461 0.265361
H82   H     H_    0.173193 0.883234 0.782533 0.219647
N24   N     N_3   0.226175 0.121080 0.315106 -0.425609
H83   H     H_    0.244345 0.119586 0.215262 0.262741
H84   H     H_    0.171455 0.116787 0.286722 0.215018
O81   O     O_3   0.181496 0.778919 0.655224 -0.696203
H85   H     H_    0.214612 0.799558 0.607186 0.324059
O82   O     O_3   0.183332 0.220977 0.157837 -0.706860
H86   H     H_    0.217459 0.200354 0.111611 0.323178
O83   O     O_3   0.681496 0.278919 0.655224 -0.696209
H87   H     H_    0.714613 0.299558 0.607188 0.324059
O84   O     O_3   0.683329 0.720977 0.157839 -0.706871
H88   H     H_    0.717450 0.700350 0.111610 0.323192
N25   N     N_3   0.812155 0.220832 0.535598 -0.444248
H89   H     H_    0.766496 0.215135 0.573508 0.239786
H90   H     H_    0.844066 0.185193 0.572592 0.242201
N26   N     N_3   0.810404 0.780394 0.038328 -0.441599
H91   H     H_    0.764156 0.787601 0.072926 0.245764
H92   H     H_    0.842276 0.815929 0.075106 0.273136
N27   N     N_3   0.312154 0.720832 0.535600 -0.444285
H93   H     H_    0.266494 0.715135 0.573504 0.239767
H94   H     H_    0.344065 0.685193 0.572601 0.242229
N28   N     N_3   0.310405 0.280395 0.038328 -0.441602
H95   H     H_    0.264158 0.287602 0.072928 0.245764
H96   H     H_    0.342277 0.315930 0.075103 0.273134
N29   N     N_3   0.271315 0.621272 0.369981 -0.460522
H97   H     H_    0.325270 0.612493 0.394401 0.200970
H98   H     H_    0.254307 0.624186 0.471037 0.247588
N30   N     N_3   0.292780 0.378682 0.856238 -0.488111
H99   H     H_    0.309467 0.401074 0.770669 0.218079
H100  H     H_    0.260489 0.401036 0.912028 0.260990
N31   N     N_3   0.771314 0.121273 0.369978 -0.460523
H101  H     H_    0.825269 0.112494 0.394396 0.200958
H102  H     H_    0.754307 0.124186 0.471034 0.247594
N32   N     N_3   0.792780 0.878683 0.856241 -0.488107
H103  H     H_    0.809468 0.901075 0.770674 0.218079
H104  H     H_    0.760489 0.901036 0.912030 0.260993
N33   N     N_3   0.913819 0.409135 0.334357 -0.446457
H105  H     H_    0.887054 0.447336 0.307377 0.209761
H106  H     H_    0.914373 0.413610 0.448118 0.192447
N34   N     N_3   0.911800 0.588989 0.837639 -0.466356
H107  H     H_    0.884936 0.550998 0.808865 0.222352
H108  H     H_    0.913152 0.584917 0.952028 0.206175
N35   N     N_3   0.413819 0.909135 0.334356 -0.446465
H109  H     H_    0.387053 0.947335 0.307376 0.209753
H110  H     H_    0.414373 0.913609 0.448118 0.192452
N36   N     N_3   0.411800 0.088989 0.837639 -0.466358
H111  H     H_    0.384936 0.050998 0.808865 0.222348
H112  H     H_    0.413152 0.084917 0.952028 0.206175
O85   O     O_3   0.072672 0.605815 0.861958 -0.743285
H113  H     H_    0.039349 0.607567 0.928671 0.335622
O86   O     O_3   0.065693 0.388750 0.368978 -0.731950
H114  H     H_    0.037770 0.390989 0.446210 0.344755
O87   O     O_3   0.572672 0.105814 0.861957 -0.743284
H115  H     H_    0.539349 0.107566 0.928670 0.335622
O88   O     O_3   0.565694 0.888751 0.368980 -0.731958
H116  H     H_    0.537769 0.890988 0.446211 0.344758
N37   N     N_3   0.992638 0.130182 0.664919 -0.453431
H117  H     H_    0.016244 0.127360 0.782085 0.252882
H118  H     H_    0.993871 0.088312 0.623317 0.186826
N38   N     N_3   0.998241 0.868547 0.180889 -0.464568
H119  H     H_    0.025948 0.867761 0.296325 0.216967
H120  H     H_    0.000324 0.911062 0.145545 0.172946
N39   N     N_3   0.492642 0.630180 0.664913 -0.453403
H121  H     H_    0.516235 0.627359 0.782094 0.252871
H122  H     H_    0.493888 0.588310 0.623311 0.186838
N40   N     N_3   0.498241 0.368548 0.180897 -0.464569
H123  H     H_    0.525951 0.367760 0.296332 0.216967
H124  H     H_    0.500324 0.411062 0.145555 0.172953
O89   O     O_3   0.947459 0.276791 0.930061 -0.683731
H125  H     H_    0.897913 0.284456 0.932146 0.306624
O90   O     O_3   0.939203 0.722046 0.467833 -0.736426
H126  H     H_    0.889291 0.727594 0.468926 0.270235
O91   O     O_3   0.447439 0.776796 0.930118 -0.683792
H127  H     H_    0.397863 0.784333 0.932053 0.306589
O92   O     O_3   0.439202 0.222047 0.467831 -0.736422
H128  H     H_    0.389290 0.227595 0.468923 0.270232
O93   O     O_3   0.959531 0.271904 0.188530 -0.794747
H129  H     H_    0.981601 0.249399 0.279802 0.313779
O94   O     O_3   0.971794 0.741257 0.728437 -0.757164
H130  H     H_    0.971700 0.698938 0.732240 0.296119
O95   O     O_3   0.459539 0.771886 0.188573 -0.794625
H131  H     H_    0.481616 0.749378 0.279831 0.313780
O96   O     O_3   0.471794 0.241257 0.728436 -0.757165
H132  H     H_    0.471699 0.198937 0.732238 0.296121
O97   O     O_3   0.894582 0.176986 0.905483 -0.706763
H133  H     H_    0.917340 0.179254 0.818583 0.350114
O98   O     O_3   0.911603 0.830103 0.402006 -0.741721
H134  H     H_    0.937028 0.811357 0.332956 0.330967
O99   O     O_3   0.394621 0.676948 0.905485 -0.706805
H135  H     H_    0.417384 0.679270 0.818604 0.350030
O100  O     O_3   0.411604 0.330104 0.402004 -0.741712
H136  H     H_    0.437030 0.311357 0.332958 0.330966
O101  O     O_3   0.001212 0.142016 0.034516 -0.710642
H137  H     H_    0.033498 0.139388 0.138082 0.307392
O102  O     O_3   0.009157 0.859656 0.581372 -0.733167
H138  H     H_    0.989785 0.899156 0.563252 0.327436
O103  O     O_3   0.501250 0.642010 0.034590 -0.710554
H139  H     H_    0.533529 0.639396 0.138167 0.307390
O104  O     O_3   0.509157 0.359656 0.581380 -0.733171
H140  H     H_    0.489784 0.399156 0.563263 0.327437
N41   N     N_3   0.200675 0.463745 0.399477 -0.494737
H141  H     H_    0.218297 0.424594 0.446352 0.079074
H142  H     H_    0.146199 0.466611 0.378751 0.207494
N42   N     N_3   0.212247 0.527250 0.922626 -0.470776
H143  H     H_    0.227210 0.566313 0.974495 0.095246
H144  H     H_    0.158632 0.522341 0.912799 0.207270
N43   N     N_3   0.700676 0.963745 0.399477 -0.494740
H145  H     H_    0.718298 0.924593 0.446349 0.079071
H146  H     H_    0.646201 0.966611 0.378752 0.207493
N44   N     N_3   0.712248 0.027250 0.922625 -0.470774
H147  H     H_    0.727210 0.066314 0.974494 0.095249
H148  H     H_    0.658632 0.022340 0.912800 0.207267

loop_
_geom_bond_atom_site_label_1
_geom_bond_atom_site_label_2
_ccdc_geom_bond_type
N28   H96   S    
C1    N17   S    
N37   H117  S    
C51   C55   A    
N9    H26   S    
C73   H1    S    
O58   H38   S    
C71   O79   S    
C86   N14   S    
N33   H105  S    
N3    H10   S    
C27   C63   A    
O34   P13   S    
C83   C87   S    
C3    N39   S    
C84   O60   S    
C6    C38   A    
N19   H65   S    
Ba4   O44   S    
N20   H67   S    
C91   N3    S    
Ba1   O18   S    
C72   O80   S    
C90   N2    S    
C82   O30   S    
O80   H76   S    
C2    C90   S    
N15   H46   S    
N8    H20   S    
C71   O99   S    
O40   P8    D    
C29   C65   A    
C43   C49   A    
N41   H142  S    
C43   N31   S    
O52   H24   S    
O63   H51   S    
O38   P6    D    
O33   P14   S    
Ba2   O13   S    
N5    H14   S    
C21   C25   A    
N16   H48   S    
C23   C27   A    
C72   O104  S    
O94   H130  S    
Ba3   O39   S    
N34   H107  S    
C82   C86   S    
C4    O76   S    
N5    H13   S    
C67   C95   A    
C61   P14   S    
C16   N24   S    
N26   H91   S    
C46   O10   S    
C68   O88   S    
O54   H34   S    
N13   H41   S    
O42   P10   S    
C74   C78   S    
C11   C23   A    
O88   H116  S    
C12   C16   A    
N14   H44   S    
O96   H132  S    
C10   C22   A    
C20   O84   S    
C78   O50   S    
O17   P1    S    
C89   O69   S    
O37   P5    D    
N22   H79   S    
N18   H64   S    
C2    N38   S    
C2    N18   S    
O95   H131  S    
C45   C69   S    
C37   C59   A    
C33   C41   A    
O98   H134  S    
C38   C60   A    
C29   P6    S    
C39   C57   A    
C35   C43   A    
Ba2   O17   S    
C36   C44   A    
O8    P8    S    
C5    C37   A    
C9    C21   A    
Ba4   O40   S    
O92   H128  S    
C53   C57   A    
O101  H137  S    
C55   C59   A    
C84   O56   S    
C47   O11   S    
C56   C60   A    
C40   C58   A    
C8    C40   A    
Ba3   O43   S    
O26   P13   D    
C5    C17   A    
O41   P9    S    
C7    C19   A    
C96   P11   S    
O11   P11   S    
C69   O97   S    
O9    P9    S    
O50   H22   S    
C47   O95   S    
C88   O68   S    
C91   O71   S    
O49   H21   S    
O3    P3    D    
O90   H126  S    
Ba1   O1    S    
O1    P1    D    
N27   H94   S    
C25   N33   S    
O85   H113  S    
Ba1   O41   S    
O86   H114  S    
O22   P13   S    
O5    P5    S    
N41   H141  S    
C13   N21   S    
C88   N16   S    
O65   H53   S    
C13   C19   A    
O25   P14   D    
C14   C20   A    
N26   H92   S    
C15   C17   A    
C46   C70   S    
O67   H55   S    
N25   H90   S    
O104  H140  S    
C10   C58   A    
C87   N15   S    
N6    H15   S    
C7    C95   A    
O61   H49   S    
N29   H98   S    
C79   N11   S    
C55   C63   A    
N40   H123  S    
C46   O94   S    
C76   N44   S    
C3    O75   S    
O70   H58   S    
O36   P15   S    
C66   O86   S    
Ba2   P2    S    
O73   H69   S    
Ba3   P7    S    
N1    H6    S    
C75   H3    S    
O35   P16   S    
C24   C28   A    
N38   H119  S    
N2    H8    S    
C80   O52   S    
N24   H84   S    
O44   P12   S    
C27   N35   S    
N42   H143  S    
N32   H103  S    
Ba1   O13   S    
C87   O67   S    
O55   H35   S    
C77   O49   S    
Ba2   O2    S    
N21   H77   S    
N23   H82   S    
N36   H112  S    
N39   H121  S    
O79   H75   S    
C50   N26   S    
N17   H62   S    
N44   H147  S    
Ba3   O15   S    
C25   C61   A    
C22   C26   A    
C65   O85   S    
O82   H86   S    
N35   H110  S    
Ba2   O38   S    
C79   O51   S    
C82   O58   S    
Ba3   Ba4   S    
C44   N32   S    
C14   N22   S    
C62   P13   S    
O13   P6    S    
N30   H99   S    
C48   C72   S    
C49   C53   A    
C92   O36   S    
C86   O66   S    
C8    C20   A    
N12   H32   S    
C74   N42   S    
O43   P11   S    
O103  H139  S    
C45   O93   S    
C70   O78   S    
C48   O96   S    
C74   O5    S    
N20   H68   S    
N43   H146  S    
C33   C37   A    
O51   H23   S    
C34   C42   A    
C34   C38   A    
C31   C67   A    
C30   P5    S    
C36   C40   A    
N10   H27   S    
C41   C51   A    
C42   C52   A    
O76   H72   S    
N11   H30   S    
C81   O57   S    
C32   C68   A    
C65   C93   A    
C54   C58   A    
O71   H59   S    
C74   H2    S    
O28   P15   D    
C76   C80   S    
O87   H115  S    
Ba2   O14   S    
O66   H54   S    
O19   P3    S    
O53   H33   S    
C6    C18   A    
C11   C15   A    
Ba4   O4    S    
C89   N1    S    
N8    H19   S    
C85   O65   S    
C75   O8    S    
C76   H4    S    
N34   H108  S    
O89   H125  S    
C4    N40   S    
C68   C96   A    
C80   N12   S    
O10   P10   S    
O62   H50   S    
C75   N43   S    
N9    H25   S    
O7    P7    S    
C31   P8    S    
C32   P7    S    
O23   P16   S    
O2    P2    D    
O24   P15   S    
N15   H45   S    
Ba4   O15   S    
C70   O102  S    
C30   C66   A    
O6    P6    S    
N22   H80   S    
N28   H95   S    
N37   H118  S    
C23   P3    S    
C2    O74   S    
N33   H106  S    
N4    H11   S    
C48   O12   S    
C26   N34   S    
O46   P10   D    
Ba4   O24   S    
C21   P1    S    
N11   H29   S    
C83   O31   S    
C84   O32   S    
O56   H36   S    
C81   C85   S    
C77   N9    S    
N31   H102  S    
C29   C33   A    
C52   C56   A    
C18   O82   S    
C45   O89   S    
N31   H101  S    
O77   H73   S    
O78   H74   S    
O4    P4    D    
C73   C77   S    
Ba2   P6    S    
Ba3   P3    S    
C45   O9    S    
Ba1   P1    S    
Ba4   P4    S    
C16   C18   A    
O18   P2    S    
C90   O34   S    
O45   P9    D    
C94   P9    S    
Ba3   O20   S    
O97   H133  S    
N16   H47   S    
C5    C93   A    
C71   O103  S    
C28   N36   S    
C53   C61   A    
N4    H12   S    
O102  H138  S    
O39   P7    D    
C9    C13   A    
C42   N30   S    
C3    N19   S    
O74   H70   S    
N7    H17   S    
N13   H42   S    
C75   C79   S    
N25   H89   S    
O30   P2    S    
C76   O7    S    
Ba1   P5    S    
N14   H43   S    
C72   O100  S    
N6    H16   S    
N32   H104  S    
N29   H97   S    
C1    N37   S    
C8    C96   A    
Ba1   O37   S    
N27   H93   S    
C69   O77   S    
N18   H63   S    
C56   C64   A    
O81   H85   S    
O14   P5    S    
C70   O98   S    
C81   O29   S    
C63   P16   S    
C12   C24   A    
N35   H109  S    
C87   O63   S    
C73   N41   S    
N1    H5    S    
C10   C14   A    
C31   C35   A    
C4    C92   S    
C77   N5    S    
N23   H81   S    
N38   H120  S    
O100  H136  S    
Ba4   P8    S    
O83   H87   S    
C44   C50   A    
O29   P1    S    
N42   H144  S    
O69   H57   S    
O32   P4    S    
Ba3   O23   S    
O31   P3    S    
Ba1   Ba2   S    
C6    C94   A    
O60   H40   S    
C82   O54   S    
Ba1   O21   S    
C54   C62   A    
N3    H9    S    
O15   P8    S    
C83   O59   S    
O16   P7    S    
N43   H145  S    
C80   N8    S    
N17   H61   S    
N44   H148  S    
C28   C64   A    
C86   O62   S    
N39   H122  S    
C79   N7    S    
C69   O101  S    
C52   N28   S    
C47   O91   S    
C88   O64   S    
C48   O92   S    
C84   C88   S    
C32   C36   A    
C1    O73   S    
N30   H100  S    
C35   C39   A    
O84   H88   S    
Ba3   O3    S    
O75   H71   S    
C41   N29   S    
Ba4   O19   S    
C78   N6    S    
C81   O53   S    
O57   H37   S    
C90   O70   S    
C17   O81   S    
O59   H39   S    
C7    C39   A    
C67   O87   S    
O93   H129  S    
C26   C62   A    
Ba2   O22   S    
N10   H28   S    
O27   P16   D    
C93   P10   S    
C92   O72   S    
O47   P11   D    
O20   P4    S    
C85   O61   S    
C91   O35   S    
C22   P2    S    
O68   H56   S    
C47   C71   S    
N2    H7    S    
C46   O90   S    
C50   C54   A    
N19   H66   S    
N24   H83   S    
C11   C59   A    
C30   C34   A    
O12   P12   S    
O48   P12   D    
C51   N27   S    
C1    C89   S    
O64   H52   S    
Ba2   O42   S    
C3    C91   S    
C92   N4    S    
O72   H60   S    
O21   P14   S    
N21   H78   S    
O91   H127  S    
C78   N10   S    
N36   H111  S    
O99   H135  S    
C15   N23   S    
C19   O83   S    
Ba1   O14   S    
C83   O55   S    
C73   O6    S    
N40   H124  S    
N7    H18   S    
C89   O33   S    
Ba3   O16   S    
C95   P12   S    
C64   P15   S    
C9    C57   A    
N12   H31   S    
C24   P4    S    
C49   N25   S    
Ba4   O16   S    
C12   C60   A    
C85   N13   S    
C4    N20   S    
C66   C94   A    
