data_mof_unit_42238.cif
_audit_creation_date              2012-12-10T22:16:25-0500
_audit_creation_method            fapswitch 2.2
_symmetry_space_group_name_H-M    P1
_symmetry_Int_Tables_number       1
_space_group_crystal_system       triclinic
_cell_length_a                    26.851196
_cell_length_b                    26.86052
_cell_length_c                    26.90649
_cell_angle_alpha                 89.941025
_cell_angle_beta                  89.932727
_cell_angle_gamma                 89.988676
_cell_volume                      19405.934443

loop_
_atom_site_label
_atom_site_type_symbol
_atom_type_description
_atom_site_fract_x
_atom_site_fract_y
_atom_site_fract_z
_atom_type_partial_charge
C1    C     C_R   0.571773 0.296709 0.296521 0.931300
C2    C     C_R   0.429285 0.297653 0.297777 0.950593
C3    C     C_R   0.178579 0.886375 0.321721 -0.288286
C4    C     C_R   0.322314 0.113608 0.822546 -0.292434
C5    C     C_R   0.678996 0.885146 0.178469 -0.289662
C6    C     C_R   0.181681 0.117595 0.318680 -0.279400
C7    C     C_R   0.820679 0.884912 0.679001 -0.282974
C8    C     C_R   0.678104 0.886715 0.822342 -0.285336
C9    C     C_R   0.323466 0.111645 0.175992 -0.277528
C10   C     C_R   0.821774 0.886346 0.322329 -0.288150
C11   C     C_R   0.178185 0.114370 0.677904 -0.291268
C12   C     C_R   0.319248 0.883500 0.180384 -0.289146
C13   C     C_R   0.703967 0.704093 0.427434 0.930060
C14   C     C_R   0.682069 0.118134 0.818387 -0.282920
C15   C     C_R   0.179670 0.884975 0.678635 -0.275184
C16   C     C_R   0.821339 0.114326 0.321191 -0.279154
C17   C     C_R   0.882648 0.818485 0.681324 -0.281708
C18   C     C_R   0.114915 0.179392 0.321264 -0.279300
C19   C     C_R   0.886708 0.322516 0.822211 -0.293553
C20   C     C_R   0.113189 0.677290 0.177527 -0.302272
C21   C     C_R   0.883349 0.180548 0.319062 -0.291805
C22   C     C_R   0.115338 0.820515 0.678905 -0.284612
C23   C     C_R   0.882081 0.681945 0.182557 -0.286371
C24   C     C_R   0.296106 0.296040 0.572423 0.927141
C25   C     C_R   0.116674 0.319256 0.819663 -0.278197
C26   C     C_R   0.114565 0.179711 0.678245 -0.279450
C27   C     C_R   0.887057 0.822860 0.323473 -0.291994
C28   C     C_R   0.113828 0.678575 0.822000 -0.284061
C29   C     C_R   0.882966 0.318325 0.181496 -0.292404
C30   C     C_R   0.114082 0.822255 0.321861 -0.288977
C31   C     C_R   0.885532 0.178455 0.678389 -0.303161
C32   C     C_R   0.113221 0.322264 0.177097 -0.280390
C33   C     C_R   0.885051 0.680078 0.821521 -0.293565
C34   C     C_R   0.181254 0.318700 0.883256 -0.290824
C35   C     C_R   0.428187 0.703240 0.296661 0.932623
C36   C     C_R   0.818495 0.681742 0.117730 -0.279807
C37   C     C_R   0.681970 0.182780 0.882110 -0.290497
C38   C     C_R   0.320982 0.821072 0.114545 -0.279430
C39   C     C_R   0.821159 0.679778 0.885685 -0.271113
C40   C     C_R   0.179820 0.320466 0.115348 -0.297723
C41   C     C_R   0.319323 0.819370 0.884152 -0.281181
C42   C     C_R   0.677682 0.177374 0.113440 -0.313709
C43   C     C_R   0.821128 0.320026 0.115219 -0.274222
C44   C     C_R   0.178313 0.678575 0.885878 -0.291933
C45   C     C_R   0.321668 0.177762 0.113588 -0.289689
C46   C     C_R   0.571274 0.297238 0.702805 0.932769
C47   C     C_R   0.677799 0.822390 0.886517 -0.301681
C48   C     C_R   0.179442 0.679352 0.115193 -0.281415
C49   C     C_R   0.822705 0.323178 0.886974 -0.289586
C50   C     C_R   0.681213 0.818444 0.116931 -0.279014
C51   C     C_R   0.322378 0.177864 0.886957 -0.292253
C52   C     C_R   0.180024 0.615695 0.179942 -0.292945
C53   C     C_R   0.822593 0.386915 0.822060 -0.279349
C54   C     C_R   0.819904 0.615871 0.180363 -0.282006
C55   C     C_R   0.179368 0.385301 0.821607 -0.275078
C56   C     C_R   0.821269 0.614893 0.822000 -0.289377
C57   C     C_R   0.296688 0.703301 0.571685 0.937400
C58   C     C_R   0.180578 0.383398 0.180506 -0.282033
C59   C     C_R   0.177711 0.613848 0.821997 -0.289196
C60   C     C_R   0.819493 0.383125 0.180806 -0.278946
C61   C     C_R   0.386592 0.822378 0.177475 -0.302490
C62   C     C_R   0.615998 0.180688 0.819937 -0.283464
C63   C     C_R   0.384595 0.820117 0.821087 -0.282304
C64   C     C_R   0.616189 0.180087 0.180403 -0.293313
C65   C     C_R   0.386603 0.178238 0.822692 -0.282672
C66   C     C_R   0.615790 0.819657 0.179663 -0.297057
C67   C     C_R   0.387431 0.176632 0.176612 -0.305667
C68   C     C_R   0.702951 0.297096 0.428405 0.941272
C69   C     C_R   0.613176 0.823066 0.822464 -0.295182
C70   C     C_R   0.178796 0.822369 0.386076 -0.283139
C71   C     C_R   0.819141 0.180476 0.616342 -0.298759
C72   C     C_R   0.180766 0.180668 0.383752 -0.295958
C73   C     C_R   0.818765 0.818415 0.617126 -0.296545
C74   C     C_R   0.822446 0.177525 0.386480 -0.306075
C75   C     C_R   0.180279 0.820049 0.615362 -0.287975
C76   C     C_R   0.821597 0.822228 0.386566 -0.280718
C77   C     C_R   0.178508 0.179126 0.613961 -0.293560
C78   C     C_R   0.679559 0.616370 0.680739 -0.285219
C79   C     C_R   0.703894 0.427624 0.703872 0.925088
C80   C     C_R   0.322980 0.387656 0.323550 -0.279337
C81   C     C_R   0.317539 0.617669 0.681582 -0.289477
C82   C     C_R   0.676969 0.387105 0.321798 -0.285392
C83   C     C_R   0.317451 0.618118 0.317942 -0.290046
C84   C     C_R   0.680810 0.383631 0.680654 -0.281043
C85   C     C_R   0.678599 0.614657 0.321484 -0.293828
C86   C     C_R   0.320680 0.385144 0.678833 -0.281552
C87   C     C_R   0.383033 0.318943 0.680954 -0.277747
C88   C     C_R   0.615716 0.680340 0.320176 -0.296517
C89   C     C_R   0.388340 0.323989 0.324303 -0.307120
C90   C     C_R   0.295444 0.573052 0.295550 0.922458
C91   C     C_R   0.616175 0.681390 0.680602 -0.279958
C92   C     C_R   0.384158 0.679842 0.320019 -0.275313
C93   C     C_R   0.614024 0.322092 0.678240 -0.301224
C94   C     C_R   0.382188 0.681565 0.681651 -0.277107
C95   C     C_R   0.614756 0.321123 0.320193 -0.288388
C96   C     C_R   0.677751 0.322363 0.385913 -0.298942
C97   C     C_R   0.319669 0.679971 0.615684 -0.283852
C98   C     C_R   0.680817 0.681299 0.383236 -0.281323
C99   C     C_R   0.318918 0.318784 0.616811 -0.290048
C100  C     C_R   0.318865 0.680848 0.383284 -0.280767
C101  C     C_R   0.703027 0.571633 0.296915 0.929310
C102  C     C_R   0.680263 0.320190 0.615871 -0.296898
C103  C     C_R   0.322860 0.322971 0.387539 -0.293514
C104  C     C_R   0.680116 0.680794 0.616339 -0.289744
C105  C     C_R   0.696798 0.132507 0.132930 0.320440
C106  C     C_R   0.297951 0.862888 0.863751 0.299288
C107  C     C_R   0.864533 0.135125 0.698757 0.306680
C108  C     C_R   0.134936 0.865516 0.301032 0.296652
C109  C     C_R   0.301983 0.134036 0.866288 0.301305
C110  C     C_R   0.701712 0.862244 0.137142 0.287038
C111  C     C_R   0.137564 0.138011 0.298895 0.291355
C112  C     C_R   0.427228 0.704078 0.704144 0.936123
C113  C     C_R   0.296988 0.428602 0.702888 0.933825
C114  C     C_R   0.862981 0.863398 0.700344 0.296394
C115  C     C_R   0.698770 0.865600 0.865531 0.298518
C116  C     C_R   0.300872 0.133873 0.133885 0.297894
C117  C     C_R   0.866723 0.866833 0.303468 0.316744
C118  C     C_R   0.135368 0.136005 0.698935 0.291717
C119  C     C_R   0.296117 0.859929 0.139783 0.299766
C120  C     C_R   0.706185 0.142598 0.857910 0.293616
C121  C     C_R   0.135939 0.863790 0.699134 0.295340
C122  C     C_R   0.859816 0.139939 0.296140 0.299175
C123  C     C_R   0.866387 0.302636 0.866280 0.305295
C124  C     C_R   0.295939 0.572474 0.703856 0.940231
C125  C     C_R   0.133375 0.696976 0.133279 0.309971
C126  C     C_R   0.858011 0.705990 0.142248 0.301249
C127  C     C_R   0.141192 0.294750 0.859098 0.297176
C128  C     C_R   0.135182 0.699706 0.864840 0.292301
C129  C     C_R   0.863332 0.298179 0.137175 0.298654
C130  C     C_R   0.132846 0.303754 0.132198 0.322870
C131  C     C_R   0.863491 0.702098 0.864205 0.297854
C132  C     C_R   0.203893 0.640020 0.140036 0.300799
C133  C     C_R   0.802046 0.366571 0.865581 0.305893
C134  C     C_R   0.861909 0.637565 0.202729 0.297902
C135  C     C_R   0.702390 0.429240 0.297370 0.913292
C136  C     C_R   0.136422 0.364298 0.801032 0.293500
C137  C     C_R   0.800627 0.636213 0.865301 0.299288
C138  C     C_R   0.204706 0.359172 0.140672 0.291954
C139  C     C_R   0.134347 0.635204 0.801315 0.303469
C140  C     C_R   0.859114 0.358753 0.205029 0.304663
C141  C     C_R   0.200640 0.363671 0.864201 0.295527
C142  C     C_R   0.799547 0.636740 0.136780 0.292969
C143  C     C_R   0.865447 0.365481 0.800900 0.293215
C144  C     C_R   0.134585 0.634317 0.198638 0.299501
C145  C     C_R   0.800593 0.363123 0.136106 0.296060
C146  C     C_R   0.297603 0.429227 0.297672 0.923165
C147  C     C_R   0.198650 0.634844 0.865155 0.306491
C148  C     C_R   0.135460 0.363778 0.199479 0.299297
C149  C     C_R   0.864636 0.635955 0.801571 0.307666
C150  C     C_R   0.363766 0.863741 0.199898 0.293229
C151  C     C_R   0.637090 0.137246 0.799645 0.298871
C152  C     C_R   0.361739 0.797326 0.862254 0.289531
C153  C     C_R   0.634753 0.198335 0.134855 0.306682
C154  C     C_R   0.365678 0.134775 0.801912 0.294472
C155  C     C_R   0.634220 0.865573 0.197229 0.313876
C156  C     C_R   0.364886 0.198862 0.134874 0.294631
C157  C     C_R   0.703299 0.572061 0.703589 0.924970
C158  C     C_R   0.633340 0.803054 0.866593 0.308340
C159  C     C_R   0.640644 0.140283 0.204169 0.287458
C160  C     C_R   0.364766 0.864229 0.801565 0.303996
C161  C     C_R   0.637527 0.203044 0.862007 0.299088
C162  C     C_R   0.367727 0.804189 0.132017 0.322461
C163  C     C_R   0.634759 0.866295 0.801698 0.300178
C164  C     C_R   0.369196 0.130551 0.194443 0.328561
C165  C     C_R   0.640485 0.795095 0.140396 0.300802
C166  C     C_R   0.365430 0.199453 0.865949 0.304565
C167  C     C_R   0.135102 0.801759 0.365285 0.297607
C168  C     C_R   0.071654 0.797005 0.296890 0.933969
C169  C     C_R   0.864912 0.198534 0.634782 0.314647
C170  C     C_R   0.205427 0.141324 0.358950 0.294331
C171  C     C_R   0.800693 0.864199 0.635410 0.304837
C172  C     C_R   0.863404 0.200470 0.363312 0.296867
C173  C     C_R   0.136860 0.799318 0.636290 0.293961
C174  C     C_R   0.799470 0.864237 0.364292 0.287154
C175  C     C_R   0.198416 0.134711 0.634114 0.302775
C176  C     C_R   0.858115 0.793875 0.641941 0.298956
C177  C     C_R   0.134819 0.198794 0.365543 0.315946
C178  C     C_R   0.794736 0.141023 0.641022 0.298146
C179  C     C_R   0.928665 0.202813 0.702816 0.932476
C180  C     C_R   0.200317 0.865477 0.364714 0.306892
C181  C     C_R   0.136204 0.201758 0.635451 0.301173
C182  C     C_R   0.865574 0.802067 0.366627 0.301009
C183  C     C_R   0.202208 0.862805 0.636443 0.300716
C184  C     C_R   0.804986 0.131548 0.368191 0.323766
C185  C     C_R   0.700036 0.636988 0.637060 0.302627
C186  C     C_R   0.300708 0.365402 0.365864 0.295412
C187  C     C_R   0.357604 0.641980 0.705665 0.301499
C188  C     C_R   0.635123 0.364579 0.298786 0.298796
C189  C     C_R   0.294112 0.641507 0.358699 0.307934
C190  C     C_R   0.704159 0.795731 0.072695 0.912747
C191  C     C_R   0.704846 0.359358 0.640777 0.298453
C192  C     C_R   0.634129 0.634508 0.302328 0.308261
C193  C     C_R   0.363229 0.363766 0.700079 0.301708
C194  C     C_R   0.696000 0.367823 0.367054 0.326889
C195  C     C_R   0.297476 0.637634 0.637072 0.302105
C196  C     C_R   0.368424 0.368620 0.304704 0.316378
C197  C     C_R   0.637251 0.638492 0.702698 0.296326
C198  C     C_R   0.300084 0.364038 0.635625 0.295233
C199  C     C_R   0.700527 0.637006 0.363428 0.290540
C200  C     C_R   0.635625 0.364744 0.699571 0.287251
C201  C     C_R   0.297319 0.202684 0.929036 0.928945
C202  C     C_R   0.361203 0.638643 0.297668 0.293301
C203  C     C_R   0.367912 0.303583 0.368212 0.317716
C204  C     C_R   0.638011 0.703298 0.637804 0.297421
C205  C     C_R   0.363080 0.700621 0.636783 0.286786
C206  C     C_R   0.636314 0.300105 0.363234 0.295297
C207  C     C_R   0.640296 0.704838 0.359597 0.308267
C208  C     C_R   0.358740 0.294613 0.641238 0.293592
C209  C     C_R   0.634102 0.302787 0.633958 0.317459
C210  C     C_R   0.363772 0.699837 0.363473 0.295143
C211  C     C_3   0.714957 0.083718 0.064919 0.168519
C212  C     C_R   0.927660 0.796190 0.703771 0.940243
C213  C     C_3   0.755866 0.080039 0.025316 -0.754788
C214  C     C_3   0.212994 0.868097 0.879353 0.206157
C215  C     C_3   0.175698 0.880366 0.920974 -0.762822
C216  C     C_3   0.923217 0.076585 0.713816 0.169836
C217  C     C_3   0.941910 0.040336 0.753331 -0.788997
C218  C     C_3   0.083615 0.924773 0.267288 0.199901
C219  C     C_3   0.074469 0.953117 0.218872 -0.800697
C220  C     C_3   0.274247 0.079339 0.924647 0.188898
C221  C     C_3   0.227708 0.056044 0.947247 -0.782224
C222  C     C_3   0.743818 0.916963 0.086916 0.200452
C223  C     C_R   0.703464 0.296593 0.571977 0.903850
C224  C     C_R   0.071301 0.202935 0.297224 0.922381
C225  C     C_3   0.795614 0.938715 0.079518 -0.787231
C226  C     C_3   0.129477 0.129310 0.214736 0.244273
C227  C     C_3   0.106990 0.093897 0.175898 -0.790025
C228  C     C_3   0.874822 0.873533 0.783916 0.246119
C229  C     C_3   0.913075 0.893881 0.820947 -0.777525
C230  C     C_3   0.722408 0.920597 0.924626 0.191755
C231  C     C_3   0.766807 0.941985 0.951992 -0.832931
C232  C     C_3   0.215908 0.125361 0.118113 0.221342
C233  C     C_3   0.180448 0.114664 0.074681 -0.777343
C234  C     C_3   0.926270 0.923736 0.286451 0.162210
C235  C     C_R   0.296204 0.796200 0.927886 0.944073
C236  C     C_3   0.947839 0.956740 0.245795 -0.804145
C237  C     C_3   0.082766 0.078154 0.732410 0.206757
C238  C     C_3   0.068700 0.053433 0.781437 -0.798084
C239  C     C_3   0.210558 0.857605 0.146221 0.206330
C240  C     C_3   0.163097 0.882864 0.127763 -0.710394
C241  C     C_3   0.791880 0.147692 0.859476 0.202767
C242  C     C_3   0.837289 0.130459 0.889002 -0.717508
C243  C     C_3   0.126144 0.873948 0.782798 0.257007
C244  C     C_3   0.102760 0.908913 0.821281 -0.788888
C245  C     C_3   0.855551 0.147066 0.211087 0.203479
C246  C     C_R   0.702705 0.202673 0.071178 0.941978
C247  C     C_3   0.877136 0.126616 0.162791 -0.711559
C248  C     C_3   0.920572 0.276535 0.925367 0.182880
C249  C     C_3   0.940033 0.230805 0.952074 -0.829306
C250  C     C_3   0.069591 0.717149 0.081188 0.170862
C251  C     C_3   0.035796 0.760190 0.066711 -0.783997
C252  C     C_3   0.859862 0.791727 0.147648 0.202391
C253  C     C_3   0.890777 0.836852 0.131907 -0.712028
C254  C     C_3   0.147730 0.209196 0.858144 0.205159
C255  C     C_3   0.130181 0.162181 0.884922 -0.710881
C256  C     C_3   0.078657 0.730522 0.919749 0.200305
C257  C     C_R   0.071634 0.203349 0.703031 0.905376
C258  C     C_3   0.051791 0.777800 0.935161 -0.813266
C259  C     C_3   0.922075 0.263680 0.085820 0.201995
C260  C     C_3   0.952627 0.216118 0.080243 -0.813352
C261  C     C_3   0.082734 0.292450 0.064300 0.151521
C262  C     C_3   0.076766 0.255482 0.021613 -0.801756
C263  C     C_3   0.869957 0.786688 0.879527 0.203429
C264  C     C_3   0.881798 0.823891 0.921154 -0.773953
C265  C     C_3   0.289154 0.644448 0.146415 0.207593
C266  C     C_3   0.337551 0.624074 0.124585 -0.715519
C267  C     C_3   0.717585 0.375139 0.875985 0.259245
C268  C     C_R   0.929231 0.797671 0.297769 0.896476
C269  C     C_3   0.679314 0.396560 0.912443 -0.782225
C270  C     C_3   0.868292 0.621630 0.286804 0.209137
C271  C     C_3   0.882242 0.580377 0.323638 -0.779559
C272  C     C_3   0.125680 0.375661 0.717814 0.234770
C273  C     C_3   0.092984 0.403646 0.680978 -0.785685
C274  C     C_3   0.716829 0.623488 0.875086 0.242154
C275  C     C_3   0.680239 0.584066 0.894209 -0.774860
C276  C     C_3   0.290357 0.353844 0.141775 0.203366
C277  C     C_3   0.337102 0.373337 0.115948 -0.714739
C278  C     C_3   0.125886 0.624964 0.717121 0.255430
C279  C     C_R   0.703955 0.204143 0.927446 0.929738
C280  C     C_3   0.104711 0.588241 0.679082 -0.797967
C281  C     C_3   0.857117 0.353387 0.290306 0.201331
C282  C     C_3   0.880559 0.374325 0.337486 -0.711969
C283  C     C_3   0.229178 0.416649 0.924019 0.200482
C284  C     C_3   0.275215 0.427744 0.955059 -0.808586
C285  C     C_3   0.776544 0.577245 0.081256 0.199963
C286  C     C_3   0.731931 0.551199 0.058226 -0.777649
C287  C     C_3   0.922613 0.417424 0.765309 0.207751
C288  C     C_3   0.946676 0.430297 0.715696 -0.810559
C289  C     C_3   0.080294 0.574818 0.225051 0.190765
C290  C     C_R   0.296998 0.796950 0.071507 0.930196
C291  C     C_3   0.060437 0.548364 0.270981 -0.780590
C292  C     C_3   0.717078 0.373743 0.125156 0.233154
C293  C     C_3   0.680345 0.406741 0.097388 -0.778608
C294  C     C_3   0.225431 0.578022 0.921351 0.185031
C295  C     C_3   0.271231 0.558644 0.948020 -0.808882
C296  C     C_3   0.127120 0.374424 0.283641 0.249171
C297  C     C_3   0.110626 0.414556 0.320995 -0.797280
C298  C     C_3   0.922594 0.577165 0.784987 0.182342
C299  C     C_3   0.956635 0.556563 0.744846 -0.804248
C300  C     C_3   0.415344 0.922264 0.232484 0.186113
C301  C     C_R   0.927402 0.204045 0.295945 0.916819
C302  C     C_3   0.422579 0.952318 0.279677 -0.798127
C303  C     C_3   0.579777 0.078245 0.780910 0.184746
C304  C     C_3   0.562178 0.044171 0.739316 -0.789134
C305  C     C_3   0.412910 0.754830 0.915807 0.213343
C306  C     C_3   0.421920 0.703087 0.937172 -0.810397
C307  C     C_3   0.575194 0.214342 0.078089 0.167373
C308  C     C_3   0.551647 0.254766 0.046749 -0.802869
C309  C     C_3   0.418076 0.075984 0.770261 0.204531
C310  C     C_3   0.432453 0.049942 0.722158 -0.800749
C311  C     C_3   0.573271 0.921507 0.211891 0.163339
C312  C     C_R   0.071704 0.796758 0.703086 0.932165
C313  C     C_3   0.548242 0.952279 0.251811 -0.826377
C314  C     C_3   0.416546 0.234322 0.077338 0.203665
C315  C     C_3   0.426680 0.283360 0.050770 -0.821172
C316  C     C_3   0.571285 0.788255 0.921273 0.181372
C317  C     C_3   0.543265 0.748242 0.949484 -0.842838
C318  C     C_3   0.643035 0.147096 0.289328 0.208730
C319  C     C_3   0.617235 0.129222 0.336606 -0.719252
C320  C     C_3   0.373909 0.875764 0.717619 0.256862
C321  C     C_3   0.391889 0.915116 0.680382 -0.800364
C322  C     C_3   0.621273 0.287277 0.868497 0.209471
C323  C     C_R   0.296990 0.202884 0.071363 0.930847
C324  C     C_3   0.579484 0.324189 0.881184 -0.776675
C325  C     C_3   0.436306 0.785087 0.084007 0.170813
C326  C     C_3   0.475127 0.743332 0.081018 -0.757031
C327  C     C_3   0.623660 0.875303 0.717737 0.252474
C328  C     C_3   0.585737 0.895223 0.680144 -0.786319
C329  C     C_3   0.439361 0.084068 0.212770 0.157144
C330  C     C_3   0.480325 0.085043 0.252783 -0.747558
C331  C     C_3   0.641514 0.709572 0.147424 0.206031
C332  C     C_3   0.613429 0.662754 0.131620 -0.715461
C333  C     C_3   0.370185 0.284409 0.877921 0.220370
C334  C     C_R   0.296443 0.703496 0.427949 0.940902
C335  C     C_R   0.702810 0.797182 0.928703 0.916397
C336  C     C_3   0.380969 0.323323 0.917984 -0.798753
C337  C     C_3   0.075690 0.771640 0.417791 0.203287
C338  C     C_3   0.048677 0.724070 0.432550 -0.798801
C339  C     C_3   0.921654 0.212115 0.574357 0.169499
C340  C     C_3   0.952757 0.251482 0.548654 -0.821594
C341  C     C_3   0.291185 0.145817 0.359582 0.203262
C342  C     C_3   0.336996 0.127388 0.387748 -0.730654
C343  C     C_3   0.788310 0.920713 0.574601 0.182410
C344  C     C_3   0.749449 0.951830 0.548328 -0.849596
C345  C     C_3   0.919990 0.236040 0.414907 0.191934
C346  C     C_R   0.203268 0.703292 0.071820 0.915465
C347  C     C_3   0.945697 0.285320 0.424394 -0.808186
C348  C     C_3   0.078699 0.775060 0.580245 0.195928
C349  C     C_3   0.047160 0.730916 0.563945 -0.803800
C350  C     C_3   0.754412 0.916144 0.415558 0.206525
C351  C     C_3   0.701131 0.929057 0.429896 -0.820772
C352  C     C_3   0.224519 0.080617 0.574438 0.182895
C353  C     C_3   0.270321 0.061296 0.547245 -0.768010
C354  C     C_3   0.852072 0.708179 0.641158 0.194120
C355  C     C_3   0.869531 0.662156 0.612674 -0.703073
C356  C     C_3   0.083327 0.217605 0.431326 0.170373
C357  C     C_R   0.797510 0.297617 0.929070 0.914220
C358  C     C_3   0.084627 0.255249 0.474184 -0.771316
C359  C     C_3   0.709236 0.147447 0.641414 0.200293
C360  C     C_3   0.662854 0.131169 0.612955 -0.711853
C361  C     C_3   0.285315 0.879900 0.371440 0.213843
C362  C     C_3   0.322576 0.921439 0.383371 -0.786444
C363  C     C_3   0.131925 0.287340 0.620877 0.218204
C364  C     C_3   0.123630 0.324691 0.578153 -0.809470
C365  C     C_3   0.875455 0.717737 0.375056 0.264127
C366  C     C_3   0.911437 0.679075 0.396478 -0.794651
C367  C     C_3   0.287056 0.866862 0.621923 0.207556
C368  C     C_R   0.202984 0.928629 0.702778 0.916036
C369  C     C_3   0.325296 0.879278 0.581250 -0.764072
C370  C     C_3   0.791158 0.083131 0.437128 0.151832
C371  C     C_3   0.750458 0.072540 0.475190 -0.781969
C372  C     C_3   0.719371 0.580064 0.578443 0.190460
C373  C     C_3   0.761877 0.553452 0.552872 -0.825973
C374  C     C_3   0.215434 0.369163 0.377737 0.218305
C375  C     C_3   0.176547 0.379680 0.418225 -0.775359
C376  C     C_3   0.351614 0.641578 0.791051 0.197963
C377  C     C_3   0.368563 0.612888 0.837020 -0.693882
C378  C     C_3   0.621373 0.369831 0.213327 0.211476
C379  C     C_R   0.797091 0.071345 0.297125 0.915564
C380  C     C_3   0.578581 0.376048 0.175738 -0.817526
C381  C     C_3   0.208452 0.641646 0.352599 0.199225
C382  C     C_3   0.161781 0.614259 0.370221 -0.701968
C383  C     C_3   0.790277 0.351889 0.641884 0.204187
C384  C     C_3   0.837232 0.367845 0.614042 -0.710342
C385  C     C_3   0.573570 0.578328 0.285659 0.172700
C386  C     C_3   0.548293 0.549285 0.244485 -0.823403
C387  C     C_3   0.375400 0.373471 0.784069 0.254410
C388  C     C_3   0.416710 0.389303 0.819943 -0.809031
C389  C     C_3   0.716606 0.416826 0.434131 0.155859
C390  C     C_R   0.204047 0.295922 0.927523 0.930821
C391  C     C_3   0.756574 0.415544 0.474882 -0.750239
C392  C     C_3   0.213221 0.630785 0.620848 0.203165
C393  C     C_3   0.176429 0.618220 0.579031 -0.762471
C394  C     C_3   0.435732 0.416540 0.281249 0.180958
C395  C     C_3   0.473510 0.418153 0.238558 -0.785241
C396  C     C_3   0.621722 0.633300 0.787096 0.202106
C397  C     C_3   0.580439 0.620624 0.824647 -0.764750
C398  C     C_3   0.277490 0.419636 0.576039 0.192521
C399  C     C_3   0.233207 0.443844 0.550376 -0.772477
C400  C     C_3   0.733383 0.578808 0.415504 0.193057
C401  C     C_R   0.795954 0.704114 0.072709 0.932772
C402  C     C_3   0.781289 0.550284 0.424516 -0.812263
C403  C     C_3   0.576731 0.419749 0.725805 0.197547
C404  C     C_3   0.551858 0.441499 0.771699 -0.785381
C405  C     C_3   0.413646 0.582877 0.262131 0.202640
C406  C     C_3   0.422821 0.556942 0.213164 -0.802092
C407  C     C_3   0.416292 0.276873 0.434001 0.170467
C408  C     C_3   0.413430 0.234702 0.472668 -0.754736
C409  C     C_3   0.633447 0.787788 0.621933 0.201456
C410  C     C_3   0.620317 0.825246 0.580843 -0.761941
C411  C     C_3   0.419155 0.724257 0.578002 0.203895
C412  C     C_R   0.203933 0.072528 0.296134 0.943162
C413  C     C_3   0.441567 0.769065 0.551699 -0.789426
C414  C     C_3   0.579318 0.265954 0.415464 0.189750
C415  C     C_3   0.552431 0.217407 0.425785 -0.813701
C416  C     C_3   0.640558 0.790470 0.353309 0.204734
C417  C     C_3   0.611135 0.836645 0.368705 -0.706843
C418  C     C_3   0.353212 0.208919 0.641069 0.204397
C419  C     C_3   0.371229 0.162619 0.613432 -0.717974
C420  C     C_3   0.577172 0.291806 0.573261 0.164753
C421  C     C_3   0.541978 0.254379 0.549913 -0.827697
C422  C     C_3   0.374268 0.783609 0.374289 0.258320
C423  C     C_R   0.797063 0.928648 0.702826 0.923357
C424  C     C_3   0.398399 0.821683 0.409003 -0.788347
C425  C     C_R   0.797064 0.296754 0.071572 0.935821
C426  C     C_R   0.427772 0.296337 0.703649 0.931646
C427  C     C_R   0.203163 0.703193 0.928310 0.923746
C428  C     C_R   0.796165 0.072296 0.703738 0.925441
C429  C     C_R   0.202999 0.928765 0.297020 0.937332
C430  C     C_R   0.797176 0.703018 0.928919 0.946519
C431  C     C_R   0.203455 0.296630 0.071839 0.934626
C432  C     C_R   0.796989 0.928456 0.296958 0.938601
C433  C     C_R   0.203080 0.071686 0.702997 0.943716
C434  C     C_R   0.296026 0.927462 0.203939 0.932038
C435  C     C_R   0.704242 0.072858 0.795872 0.920997
C436  C     C_R   0.070594 0.297623 0.202164 0.924952
C437  C     C_R   0.571927 0.703514 0.296546 0.921517
C438  C     C_R   0.928391 0.703347 0.796994 0.920687
C439  C     C_R   0.703262 0.071664 0.203208 0.917255
C440  C     C_R   0.297154 0.928751 0.797377 0.915845
C441  C     C_R   0.927410 0.703968 0.204133 0.930148
C442  C     C_R   0.072093 0.296514 0.796577 0.919277
C443  C     C_R   0.702789 0.928982 0.797347 0.920616
C444  C     C_R   0.297937 0.070294 0.202046 0.923662
C445  C     C_R   0.928587 0.297060 0.797043 0.939243
C446  C     C_R   0.071136 0.702631 0.202702 0.946704
C447  C     C_R   0.297055 0.071515 0.797105 0.944844
C448  C     C_R   0.297437 0.297430 0.429155 0.935681
C449  C     C_R   0.703164 0.928260 0.203114 0.937570
C450  C     C_R   0.071270 0.702986 0.797130 0.924018
C451  C     C_R   0.927407 0.295806 0.204208 0.923596
C452  C     C_R   0.570924 0.797623 0.797464 0.911610
C453  C     C_R   0.428856 0.202603 0.202621 0.946026
C454  C     C_R   0.203433 0.796573 0.571730 0.932643
C455  C     C_R   0.797202 0.202821 0.428651 0.939047
C456  C     C_R   0.428748 0.797218 0.202767 0.926938
C457  C     C_R   0.571700 0.203326 0.796702 0.937061
C458  C     C_R   0.797018 0.797119 0.428715 0.922245
C459  C     C_R   0.703452 0.703539 0.571978 0.924252
C460  C     C_R   0.202999 0.203071 0.571277 0.930975
C461  C     C_R   0.572221 0.203623 0.203660 0.914580
C462  C     C_R   0.428138 0.796550 0.796793 0.917985
C463  C     C_R   0.203734 0.203674 0.427856 0.942691
C464  C     C_R   0.796095 0.795990 0.572475 0.920089
C465  C     C_R   0.428853 0.202857 0.797335 0.916129
C466  C     C_R   0.571923 0.796518 0.203376 0.904226
C467  C     C_R   0.796294 0.203633 0.572166 0.913805
C468  C     C_R   0.203002 0.797254 0.428660 0.919245
C469  C     C_R   0.203558 0.427793 0.203608 0.938007
C470  C     C_R   0.571792 0.703623 0.703362 0.947937
C471  C     C_R   0.797151 0.571452 0.797293 0.919094
C472  C     C_R   0.202639 0.571171 0.797253 0.909324
C473  C     C_R   0.796558 0.427860 0.203522 0.936070
C474  C     C_R   0.796658 0.571732 0.203349 0.944662
C475  C     C_R   0.203011 0.428678 0.797271 0.921697
C476  C     C_R   0.797360 0.428959 0.797196 0.918991
C477  C     C_R   0.203645 0.572120 0.203655 0.920243
C478  C     C_R   0.679511 0.115051 0.179434 -0.278981
C479  C     C_R   0.320705 0.885182 0.821728 -0.275103
C480  C     C_R   0.818982 0.116562 0.680549 -0.290478
H1    H     H_    0.682980 0.104214 0.048003 0.084639
H2    H     H_    0.188082 0.867588 0.958108 0.272164
H3    H     H_    0.132944 0.167143 0.925873 0.234962
H4    H     H_    0.095750 0.713208 0.953227 0.115729
H5    H     H_    0.050634 0.704240 0.904212 0.121378
H6    H     H_    0.035692 0.796517 0.902091 0.255901
H7    H     H_    0.021131 0.768438 0.961109 0.205319
H8    H     H_    0.078290 0.803536 0.953657 0.230081
H9    H     H_    0.947192 0.293643 0.099820 0.105344
H10   H     H_    0.908035 0.275349 0.048842 0.127293
H11   H     H_    0.932605 0.188854 0.056683 0.220150
H12   H     H_    0.988940 0.225022 0.063263 0.202325
H13   H     H_    0.955616 0.097608 0.698074 0.104007
H14   H     H_    0.960077 0.198454 0.116759 0.273712
H15   H     H_    0.103746 0.325180 0.049333 0.101096
H16   H     H_    0.045369 0.305657 0.076165 0.121672
H17   H     H_    0.046692 0.268043 0.996436 0.193041
H18   H     H_    0.111200 0.253419 0.999265 0.288159
H19   H     H_    0.068651 0.217550 0.035775 0.243716
H20   H     H_    0.829195 0.787722 0.870937 0.111575
H21   H     H_    0.889496 0.799295 0.847354 0.145787
H22   H     H_    0.922614 0.829278 0.924056 0.212350
H23   H     H_    0.863812 0.860287 0.913063 0.193951
H24   H     H_    0.905453 0.054215 0.683415 0.104949
H25   H     H_    0.868130 0.811587 0.958023 0.272879
H26   H     H_    0.288560 0.635851 0.186921 0.140444
H27   H     H_    0.288884 0.685663 0.141614 0.120434
H28   H     H_    0.342429 0.637520 0.085781 0.232485
H29   H     H_    0.369872 0.636545 0.147042 0.230742
H30   H     H_    0.336695 0.582629 0.124297 0.228472
H31   H     H_    0.717813 0.334349 0.873678 0.066372
H32   H     H_    0.706195 0.385072 0.837748 0.142703
H33   H     H_    0.653410 0.422219 0.892512 0.193373
H34   H     H_    0.657783 0.366836 0.931299 0.198255
H35   H     H_    0.910431 0.017270 0.767740 0.268990
H36   H     H_    0.698051 0.418034 0.942517 0.267317
H37   H     H_    0.827136 0.628319 0.288111 0.124295
H38   H     H_    0.886068 0.654998 0.299033 0.136100
H39   H     H_    0.923285 0.577108 0.326014 0.220481
H40   H     H_    0.867099 0.589302 0.360958 0.191801
H41   H     H_    0.867271 0.543524 0.312895 0.269435
H42   H     H_    0.123345 0.335203 0.715242 0.082659
H43   H     H_    0.165450 0.381956 0.708541 0.139100
H44   H     H_    0.105950 0.443192 0.678579 0.234847
H45   H     H_    0.094795 0.387030 0.643679 0.181466
H46   H     H_    0.970071 0.015194 0.736330 0.197684
H47   H     H_    0.053445 0.402261 0.693748 0.254340
H48   H     H_    0.717470 0.627549 0.834470 0.068282
H49   H     H_    0.703633 0.660611 0.887141 0.142877
H50   H     H_    0.654728 0.600896 0.922455 0.190183
H51   H     H_    0.657911 0.567510 0.863665 0.199923
H52   H     H_    0.700592 0.552504 0.911927 0.271248
H53   H     H_    0.288413 0.312859 0.135799 0.136339
H54   H     H_    0.293712 0.361015 0.182345 0.129206
H55   H     H_    0.343224 0.413029 0.125781 0.227081
H56   H     H_    0.370219 0.351419 0.127377 0.228060
H57   H     H_    0.958855 0.061485 0.784777 0.240773
H58   H     H_    0.332877 0.370554 0.074913 0.231596
H59   H     H_    0.166779 0.627521 0.717304 0.065922
H60   H     H_    0.115463 0.663222 0.705889 0.145279
H61   H     H_    0.080786 0.608253 0.651965 0.193362
H62   H     H_    0.134405 0.567876 0.659276 0.204073
H63   H     H_    0.081705 0.559354 0.697644 0.266248
H64   H     H_    0.864607 0.312612 0.289191 0.137900
H65   H     H_    0.816112 0.359178 0.292242 0.125289
H66   H     H_    0.868745 0.413585 0.342947 0.227716
H67   H     H_    0.868926 0.352153 0.370337 0.228103
H68   H     H_    0.099835 0.951346 0.294776 0.120690
H69   H     H_    0.921880 0.373205 0.334531 0.232930
H70   H     H_    0.200652 0.399704 0.949009 0.112876
H71   H     H_    0.213951 0.452065 0.908999 0.117790
H72   H     H_    0.301102 0.451888 0.933736 0.224154
H73   H     H_    0.264244 0.446317 0.990165 0.206579
H74   H     H_    0.295028 0.392846 0.964792 0.264994
H75   H     H_    0.799251 0.548782 0.101114 0.125976
H76   H     H_    0.799565 0.593793 0.051037 0.127496
H77   H     H_    0.712588 0.576898 0.032274 0.241915
H78   H     H_    0.744446 0.517698 0.037569 0.209084
H79   H     H_    0.047526 0.911065 0.282283 0.114692
H80   H     H_    0.705407 0.539544 0.087798 0.244879
H81   H     H_    0.951745 0.401240 0.790036 0.118518
H82   H     H_    0.908331 0.452046 0.782937 0.116386
H83   H     H_    0.920697 0.453261 0.693168 0.229412
H84   H     H_    0.981889 0.450955 0.721768 0.196831
H85   H     H_    0.955450 0.395769 0.694747 0.259441
H86   H     H_    0.099634 0.546719 0.201452 0.127671
H87   H     H_    0.048365 0.590523 0.203884 0.122823
H88   H     H_    0.036983 0.574253 0.293057 0.236864
H89   H     H_    0.037703 0.515769 0.259780 0.209842
H90   H     H_    0.051214 0.930209 0.193467 0.222165
H91   H     H_    0.091877 0.535227 0.294430 0.246273
H92   H     H_    0.714421 0.375760 0.165715 0.077271
H93   H     H_    0.707881 0.334014 0.118304 0.139256
H94   H     H_    0.676532 0.392908 0.058347 0.231767
H95   H     H_    0.643364 0.406637 0.114835 0.179038
H96   H     H_    0.693920 0.446089 0.097121 0.254420
H97   H     H_    0.206444 0.546197 0.902854 0.114394
H98   H     H_    0.199755 0.594310 0.949544 0.110780
H99   H     H_    0.290475 0.589594 0.967414 0.256451
H100  H     H_    0.259754 0.530608 0.975949 0.201651
H101  H     H_    0.055698 0.989227 0.226438 0.203425
H102  H     H_    0.297238 0.541441 0.920828 0.237557
H103  H     H_    0.167892 0.368010 0.282645 0.050606
H104  H     H_    0.112537 0.337976 0.296584 0.153112
H105  H     H_    0.098136 0.396758 0.357301 0.184590
H106  H     H_    0.141822 0.442501 0.327805 0.232736
H107  H     H_    0.077540 0.435095 0.305251 0.261966
H108  H     H_    0.901684 0.545702 0.802228 0.112377
H109  H     H_    0.946546 0.594796 0.813941 0.116065
H110  H     H_    0.980290 0.586697 0.729135 0.267840
H111  H     H_    0.981187 0.527765 0.761668 0.199496
H112  H     H_    0.701452 0.045815 0.074575 0.104252
H113  H     H_    0.110274 0.961429 0.199890 0.263008
H114  H     H_    0.933941 0.539976 0.714577 0.244499
H115  H     H_    0.400212 0.947641 0.203247 0.101309
H116  H     H_    0.451814 0.907941 0.219247 0.123096
H117  H     H_    0.448674 0.933057 0.305130 0.216532
H118  H     H_    0.436874 0.989228 0.269948 0.199464
H119  H     H_    0.386753 0.958386 0.299123 0.272323
H120  H     H_    0.546927 0.097694 0.797355 0.112674
H121  H     H_    0.597408 0.054527 0.810214 0.109221
H122  H     H_    0.594127 0.022845 0.723732 0.268020
H123  H     H_    0.534690 0.017315 0.754579 0.198365
H124  H     H_    0.294988 0.098852 0.954796 0.129077
H125  H     H_    0.545002 0.066758 0.709131 0.238075
H126  H     H_    0.400364 0.779950 0.946193 0.110248
H127  H     H_    0.448562 0.770153 0.901741 0.130535
H128  H     H_    0.443603 0.680312 0.910370 0.221454
H129  H     H_    0.442856 0.705710 0.972399 0.191358
H130  H     H_    0.385950 0.684123 0.944856 0.264800
H131  H     H_    0.545299 0.195200 0.099602 0.104710
H132  H     H_    0.593068 0.186982 0.052550 0.110299
H133  H     H_    0.580256 0.272786 0.022995 0.262671
H134  H     H_    0.522831 0.237783 0.022659 0.200705
H135  H     H_    0.298183 0.049064 0.909367 0.118963
H136  H     H_    0.534476 0.283206 0.071306 0.244417
H137  H     H_    0.400384 0.047934 0.795311 0.115576
H138  H     H_    0.452278 0.090313 0.788677 0.110056
H139  H     H_    0.456391 0.074788 0.699356 0.229955
H140  H     H_    0.452628 0.014992 0.730727 0.192355
H141  H     H_    0.398647 0.040393 0.700382 0.260910
H142  H     H_    0.544242 0.898770 0.192942 0.104722
H143  H     H_    0.590450 0.947400 0.184400 0.101173
H144  H     H_    0.575178 0.978941 0.268162 0.261921
H145  H     H_    0.517112 0.973212 0.234795 0.185798
H146  H     H_    0.209936 0.030537 0.919934 0.241066
H147  H     H_    0.533767 0.927435 0.281537 0.252806
H148  H     H_    0.401031 0.207643 0.049659 0.120268
H149  H     H_    0.452162 0.218800 0.091533 0.116814
H150  H     H_    0.448998 0.308174 0.075020 0.226905
H151  H     H_    0.446806 0.276664 0.015409 0.211096
H152  H     H_    0.391161 0.302413 0.041899 0.256532
H153  H     H_    0.543862 0.808922 0.897884 0.109387
H154  H     H_    0.587926 0.814540 0.948698 0.106951
H155  H     H_    0.568090 0.729966 0.977007 0.261084
H156  H     H_    0.511616 0.765963 0.969222 0.180416
H157  H     H_    0.237788 0.034705 0.981156 0.215839
H158  H     H_    0.528885 0.719849 0.923060 0.256242
H159  H     H_    0.637666 0.188126 0.286341 0.136088
H160  H     H_    0.683616 0.139314 0.292509 0.130392
H161  H     H_    0.626096 0.089378 0.343312 0.225371
H162  H     H_    0.629759 0.151420 0.369015 0.234199
H163  H     H_    0.576166 0.133151 0.332766 0.235359
H164  H     H_    0.333145 0.870738 0.718632 0.059439
H165  H     H_    0.386627 0.838716 0.704736 0.148692
H166  H     H_    0.413813 0.897216 0.650184 0.190167
H167  H     H_    0.360355 0.936468 0.664550 0.216117
H168  H     H_    0.200519 0.085616 0.957483 0.235727
H169  H     H_    0.416399 0.942523 0.698911 0.262346
H170  H     H_    0.628877 0.288392 0.827592 0.119844
H171  H     H_    0.654084 0.299882 0.887033 0.136968
H172  H     H_    0.576326 0.328358 0.922012 0.213522
H173  H     H_    0.587726 0.361059 0.864306 0.194147
H174  H     H_    0.542613 0.312378 0.867108 0.270730
H175  H     H_    0.453456 0.816923 0.104479 0.078392
H176  H     H_    0.427451 0.798503 0.045966 0.110046
H177  H     H_    0.481754 0.732301 0.042131 0.185435
H178  H     H_    0.511123 0.755856 0.096940 0.246633
H179  H     H_    0.718168 0.946891 0.099841 0.100367
H180  H     H_    0.462759 0.709695 0.101729 0.266939
H181  H     H_    0.627076 0.834594 0.718553 0.067672
H182  H     H_    0.661417 0.886251 0.705379 0.141616
H183  H     H_    0.604601 0.920425 0.652990 0.190570
H184  H     H_    0.566818 0.864536 0.660136 0.206502
H185  H     H_    0.555842 0.916859 0.699148 0.266902
H186  H     H_    0.454217 0.103980 0.179432 0.076700
H187  H     H_    0.432314 0.045095 0.201086 0.111381
H188  H     H_    0.488796 0.047798 0.267560 0.183240
H189  H     H_    0.515617 0.099260 0.236657 0.246083
H190  H     H_    0.729227 0.903496 0.050763 0.125382
H191  H     H_    0.469680 0.108528 0.285084 0.274711
H192  H     H_    0.637456 0.713568 0.188450 0.122920
H193  H     H_    0.681694 0.704547 0.138664 0.142107
H194  H     H_    0.622707 0.653313 0.092496 0.220848
H195  H     H_    0.623575 0.630827 0.155848 0.230410
H196  H     H_    0.572535 0.668878 0.134443 0.239583
H197  H     H_    0.329539 0.284194 0.869044 0.110821
H198  H     H_    0.389152 0.296492 0.845090 0.148874
H199  H     H_    0.421352 0.331875 0.919033 0.214912
H200  H     H_    0.359775 0.357802 0.909689 0.201959
H201  H     H_    0.818302 0.913478 0.055740 0.217752
H202  H     H_    0.369662 0.310913 0.955464 0.268027
H203  H     H_    0.048153 0.797004 0.399687 0.110441
H204  H     H_    0.090172 0.790274 0.451752 0.109258
H205  H     H_    0.072972 0.701113 0.456901 0.229638
H206  H     H_    0.013624 0.733576 0.452223 0.194366
H207  H     H_    0.039074 0.701962 0.399031 0.261447
H208  H     H_    0.899284 0.192313 0.545641 0.102825
H209  H     H_    0.947424 0.185048 0.592396 0.104910
H210  H     H_    0.979112 0.268574 0.575392 0.264311
H211  H     H_    0.974144 0.233701 0.518229 0.186615
H212  H     H_    0.793194 0.975718 0.061790 0.185449
H213  H     H_    0.928094 0.280846 0.533177 0.252014
H214  H     H_    0.288764 0.186954 0.364373 0.126418
H215  H     H_    0.296299 0.137647 0.319371 0.131415
H216  H     H_    0.344302 0.087712 0.378626 0.225228
H217  H     H_    0.370254 0.149808 0.377650 0.217419
H218  H     H_    0.330820 0.130513 0.428536 0.237132
H219  H     H_    0.808114 0.897896 0.546190 0.113054
H220  H     H_    0.815463 0.946315 0.592649 0.114267
H221  H     H_    0.732995 0.979334 0.574389 0.264356
H222  H     H_    0.767334 0.971740 0.516880 0.186697
H223  H     H_    0.770459 0.041852 0.022972 0.182985
H224  H     H_    0.814598 0.943398 0.115984 0.267911
H225  H     H_    0.719539 0.927125 0.534044 0.259572
H226  H     H_    0.947974 0.209166 0.400011 0.102714
H227  H     H_    0.905564 0.220697 0.450480 0.121019
H228  H     H_    0.921682 0.309628 0.447547 0.225272
H229  H     H_    0.980955 0.278565 0.443509 0.189431
H230  H     H_    0.954379 0.304451 0.388876 0.266346
H231  H     H_    0.097064 0.791809 0.546954 0.117804
H232  H     H_    0.053236 0.803431 0.596905 0.116752
H233  H     H_    0.027549 0.714268 0.596470 0.262129
H234  H     H_    0.018687 0.744126 0.537043 0.201938
H235  H     H_    0.170882 0.130729 0.213779 0.057629
H236  H     H_    0.071311 0.702093 0.546545 0.232556
H237  H     H_    0.773573 0.950260 0.401771 0.119997
H238  H     H_    0.775108 0.903187 0.448971 0.121146
H239  H     H_    0.683372 0.896104 0.447346 0.240819
H240  H     H_    0.700675 0.960397 0.456257 0.186837
H241  H     H_    0.679827 0.940028 0.396304 0.255462
H242  H     H_    0.200491 0.100115 0.546813 0.118590
H243  H     H_    0.203558 0.048431 0.589975 0.124499
H244  H     H_    0.292363 0.036873 0.572256 0.234281
H245  H     H_    0.258804 0.039686 0.514039 0.212383
H246  H     H_    0.118444 0.168284 0.205435 0.140873
H247  H     H_    0.294031 0.092948 0.534950 0.246657
H248  H     H_    0.811022 0.711594 0.636166 0.123832
H249  H     H_    0.859958 0.702559 0.681351 0.134613
H250  H     H_    0.908718 0.653293 0.622568 0.218636
H251  H     H_    0.845732 0.629543 0.621676 0.228250
H252  H     H_    0.867551 0.668964 0.571910 0.241943
H253  H     H_    0.098776 0.181635 0.445667 0.091123
H254  H     H_    0.044114 0.210628 0.420166 0.121429
H255  H     H_    0.047554 0.271219 0.482445 0.186944
H256  H     H_    0.097879 0.236539 0.508843 0.260672
H257  H     H_    0.097352 0.115221 0.141387 0.188269
H258  H     H_    0.109515 0.287293 0.465079 0.267099
H259  H     H_    0.713086 0.188558 0.637276 0.120398
H260  H     H_    0.703898 0.138691 0.681487 0.140907
H261  H     H_    0.653468 0.092004 0.622421 0.220235
H262  H     H_    0.630730 0.155430 0.622456 0.226703
H263  H     H_    0.669581 0.133618 0.572199 0.240061
H264  H     H_    0.286606 0.870907 0.330865 0.114473
H265  H     H_    0.298107 0.847737 0.391175 0.144457
H266  H     H_    0.325925 0.925875 0.424158 0.221767
H267  H     H_    0.359650 0.911756 0.367874 0.189266
H268  H     H_    0.133519 0.062537 0.167772 0.218044
H269  H     H_    0.311802 0.957933 0.367595 0.271931
H270  H     H_    0.172375 0.286796 0.631151 0.113862
H271  H     H_    0.110756 0.301832 0.651442 0.146306
H272  H     H_    0.083406 0.333480 0.574833 0.209769
H273  H     H_    0.145139 0.359400 0.585150 0.205206
H274  H     H_    0.136254 0.311697 0.541507 0.270373
H275  H     H_    0.873386 0.718099 0.334373 0.070648
H276  H     H_    0.836973 0.706640 0.384707 0.146465
H277  H     H_    0.891132 0.653265 0.421982 0.195815
H278  H     H_    0.930378 0.657677 0.366776 0.201738
H279  H     H_    0.071364 0.076444 0.189835 0.255738
H280  H     H_    0.941485 0.697413 0.418183 0.261928
H281  H     H_    0.287027 0.825771 0.629027 0.113356
H282  H     H_    0.299103 0.884527 0.655227 0.136835
H283  H     H_    0.330760 0.920113 0.579016 0.212901
H284  H     H_    0.361469 0.861032 0.589711 0.194678
H285  H     H_    0.313792 0.866211 0.543942 0.269482
H286  H     H_    0.819317 0.107489 0.455416 0.090777
H287  H     H_    0.809838 0.047638 0.426914 0.103690
H288  H     H_    0.725913 0.042484 0.461404 0.223537
H289  H     H_    0.767429 0.061438 0.511096 0.210942
H290  H     H_    0.871146 0.832692 0.784311 0.058879
H291  H     H_    0.727252 0.106036 0.481725 0.280026
H292  H     H_    0.697376 0.600196 0.549624 0.108686
H293  H     H_    0.695027 0.551667 0.596383 0.117459
H294  H     H_    0.782474 0.529986 0.579886 0.257366
H295  H     H_    0.746141 0.529482 0.523518 0.185402
H296  H     H_    0.787757 0.581012 0.536045 0.250576
H297  H     H_    0.216227 0.328432 0.369163 0.102140
H298  H     H_    0.203039 0.387796 0.344828 0.147083
H299  H     H_    0.164073 0.419624 0.415818 0.208522
H300  H     H_    0.143714 0.354116 0.412822 0.195364
H301  H     H_    0.837219 0.885588 0.795736 0.148944
H302  H     H_    0.191674 0.373103 0.456572 0.267144
H303  H     H_    0.310490 0.637151 0.787628 0.120953
H304  H     H_    0.360090 0.681733 0.796457 0.154456
H305  H     H_    0.408118 0.621700 0.845245 0.215391
H306  H     H_    0.345320 0.622861 0.869686 0.230691
H307  H     H_    0.365320 0.572099 0.830531 0.242090
H308  H     H_    0.633807 0.330042 0.213717 0.106818
H309  H     H_    0.650728 0.392969 0.198810 0.156407
H310  H     H_    0.573236 0.415977 0.166602 0.207706
H311  H     H_    0.586749 0.354428 0.141434 0.208551
H312  H     H_    0.893527 0.915053 0.851555 0.185195
H313  H     H_    0.542554 0.361767 0.188236 0.274504
H314  H     H_    0.211634 0.636390 0.311648 0.125052
H315  H     H_    0.203725 0.682065 0.360245 0.140959
H316  H     H_    0.153414 0.624227 0.409421 0.220030
H317  H     H_    0.129292 0.624335 0.346762 0.229122
H318  H     H_    0.167456 0.573292 0.367905 0.238092
H319  H     H_    0.786088 0.310844 0.637538 0.122152
H320  H     H_    0.795162 0.360332 0.682046 0.146979
H321  H     H_    0.846750 0.406937 0.623571 0.219343
H322  H     H_    0.869045 0.343394 0.624035 0.231102
H323  H     H_    0.936432 0.863149 0.837168 0.209929
H324  H     H_    0.831154 0.365422 0.573208 0.239980
H325  H     H_    0.544623 0.600311 0.305678 0.109643
H326  H     H_    0.590771 0.551291 0.311957 0.109428
H327  H     H_    0.575519 0.524308 0.225994 0.262308
H328  H     H_    0.517792 0.526466 0.260485 0.190336
H329  H     H_    0.532783 0.575524 0.216551 0.249938
H330  H     H_    0.368042 0.332985 0.783932 0.053014
H331  H     H_    0.339909 0.389061 0.797948 0.159579
H332  H     H_    0.400527 0.406077 0.853929 0.185398
H333  H     H_    0.440949 0.357475 0.830070 0.227106
H334  H     H_    0.740908 0.090032 0.988160 0.237759
H335  H     H_    0.939673 0.920186 0.801737 0.263735
H336  H     H_    0.440967 0.417857 0.802612 0.264683
H337  H     H_    0.681900 0.400006 0.449913 0.073614
H338  H     H_    0.707794 0.456009 0.424390 0.118299
H339  H     H_    0.762934 0.452517 0.491225 0.176156
H340  H     H_    0.744160 0.391661 0.506013 0.259288
H341  H     H_    0.792650 0.401040 0.460453 0.261923
H342  H     H_    0.211977 0.671700 0.628653 0.114296
H343  H     H_    0.200520 0.612049 0.653505 0.139512
H344  H     H_    0.171453 0.577368 0.576459 0.210958
H345  H     H_    0.139819 0.636033 0.586589 0.193114
H346  H     H_    0.698388 0.901107 0.952352 0.095019
H347  H     H_    0.188939 0.631529 0.542116 0.272893
H348  H     H_    0.454221 0.397072 0.312981 0.090322
H349  H     H_    0.427002 0.455038 0.293509 0.111406
H350  H     H_    0.466951 0.449395 0.212269 0.197971
H351  H     H_    0.512400 0.421278 0.253737 0.246835
H352  H     H_    0.469791 0.384678 0.214564 0.277409
H353  H     H_    0.629013 0.674358 0.787617 0.107316
H354  H     H_    0.654805 0.615160 0.799167 0.136750
H355  H     H_    0.577211 0.579731 0.828710 0.213260
H356  H     H_    0.589110 0.637442 0.861357 0.192950
H357  H     H_    0.700866 0.951814 0.907914 0.122239
H358  H     H_    0.543362 0.634749 0.813453 0.271737
H359  H     H_    0.299674 0.399405 0.547418 0.124775
H360  H     H_    0.301090 0.449400 0.592576 0.127792
H361  H     H_    0.213656 0.469080 0.576650 0.240585
H362  H     H_    0.246188 0.465637 0.517772 0.216682
H363  H     H_    0.206752 0.414826 0.537430 0.237193
H364  H     H_    0.705138 0.552414 0.400330 0.094064
H365  H     H_    0.718977 0.593477 0.451354 0.126762
H366  H     H_    0.807548 0.573152 0.446622 0.225721
H367  H     H_    0.772952 0.515650 0.444331 0.192903
H368  H     H_    0.789498 0.965290 0.926524 0.251264
H369  H     H_    0.799044 0.539808 0.388865 0.269387
H370  H     H_    0.547636 0.400668 0.703303 0.121793
H371  H     H_    0.592797 0.450713 0.703411 0.123720
H372  H     H_    0.578741 0.465210 0.792231 0.238958
H373  H     H_    0.519303 0.464384 0.760589 0.209132
H374  H     H_    0.538915 0.411021 0.796520 0.243201
H375  H     H_    0.399557 0.555022 0.289607 0.106332
H376  H     H_    0.449434 0.597559 0.276719 0.127563
H377  H     H_    0.447538 0.580056 0.188890 0.220650
H378  H     H_    0.440782 0.521073 0.221317 0.188413
H379  H     H_    0.753189 0.965281 0.983088 0.185372
H380  H     H_    0.386839 0.549284 0.193731 0.267199
H381  H     H_    0.401120 0.311389 0.451700 0.089197
H382  H     H_    0.455799 0.284419 0.424452 0.115728
H383  H     H_    0.450445 0.224282 0.487463 0.180121
H384  H     H_    0.391353 0.247040 0.505340 0.261583
H385  H     H_    0.395640 0.200684 0.456797 0.256088
H386  H     H_    0.674636 0.788077 0.628466 0.110560
H387  H     H_    0.615958 0.800196 0.655221 0.133151
H388  H     H_    0.579460 0.830749 0.579446 0.211419
H389  H     H_    0.638761 0.861552 0.588208 0.194970
H390  H     H_    0.790215 0.911325 0.966975 0.253022
H391  H     H_    0.632401 0.812785 0.543500 0.270973
H392  H     H_    0.399991 0.700858 0.549707 0.128344
H393  H     H_    0.449746 0.702074 0.595005 0.130650
H394  H     H_    0.465348 0.790330 0.577919 0.240311
H395  H     H_    0.464513 0.756483 0.519775 0.210666
H396  H     H_    0.411441 0.793762 0.537736 0.244775
H397  H     H_    0.551793 0.293227 0.400383 0.097179
H398  H     H_    0.594194 0.281224 0.450835 0.122212
H399  H     H_    0.577934 0.190897 0.444821 0.233282
H400  H     H_    0.520175 0.224920 0.449769 0.188965
H401  H     H_    0.214177 0.165581 0.128773 0.100621
H402  H     H_    0.538582 0.200759 0.390561 0.266008
H403  H     H_    0.637421 0.786457 0.312205 0.118231
H404  H     H_    0.680439 0.796298 0.362783 0.157177
H405  H     H_    0.618639 0.845545 0.408277 0.213733
H406  H     H_    0.621706 0.869074 0.345318 0.226246
H407  H     H_    0.570486 0.829989 0.364418 0.246025
H408  H     H_    0.312139 0.211779 0.635956 0.131854
H409  H     H_    0.361026 0.204039 0.681366 0.143757
H410  H     H_    0.410727 0.154817 0.622950 0.221707
H411  H     H_    0.348270 0.129768 0.623640 0.230717
H412  H     H_    0.201258 0.104450 0.149031 0.153514
H413  H     H_    0.368468 0.168391 0.572574 0.234693
H414  H     H_    0.600255 0.308928 0.543287 0.106665
H415  H     H_    0.554138 0.321406 0.591244 0.103848
H416  H     H_    0.516776 0.238486 0.578622 0.269818
H417  H     H_    0.519148 0.273614 0.521373 0.183807
H418  H     H_    0.563682 0.223785 0.532362 0.251758
H419  H     H_    0.333457 0.785151 0.373855 0.067196
H420  H     H_    0.383179 0.793539 0.335317 0.147312
H421  H     H_    0.423642 0.846687 0.387437 0.198214
H422  H     H_    0.370027 0.844097 0.428857 0.194537
H423  H     H_    0.168568 0.075028 0.075778 0.204996
H424  H     H_    0.420861 0.802754 0.438258 0.264948
H425  H     H_    0.146933 0.139181 0.077241 0.195472
H426  H     H_    0.787715 0.105044 0.033847 0.270830
H427  H     H_    0.198053 0.121561 0.037889 0.271961
H428  H     H_    0.957180 0.902053 0.303879 0.109163
H429  H     H_    0.909158 0.948462 0.315173 0.102516
H430  H     H_    0.917986 0.979979 0.228787 0.264237
H431  H     H_    0.976296 0.981773 0.262596 0.198519
H432  H     H_    0.965083 0.933115 0.216484 0.243337
H433  H     H_    0.099594 0.049371 0.707632 0.115830
H434  H     H_    0.048554 0.092681 0.714102 0.110347
H435  H     H_    0.045529 0.079340 0.803909 0.228277
H436  H     H_    0.047883 0.018487 0.774428 0.191739
H437  H     H_    0.212350 0.827120 0.871584 0.119760
H438  H     H_    0.102732 0.043974 0.802920 0.260447
H439  H     H_    0.213037 0.863337 0.187137 0.130258
H440  H     H_    0.207649 0.816943 0.138918 0.131697
H441  H     H_    0.155730 0.872066 0.088598 0.224177
H442  H     H_    0.130767 0.871785 0.151033 0.230826
H443  H     H_    0.167201 0.924041 0.129546 0.235048
H444  H     H_    0.788608 0.188831 0.863744 0.127216
H445  H     H_    0.798107 0.139133 0.819508 0.139909
H446  H     H_    0.845909 0.091011 0.880049 0.219738
H447  H     H_    0.870223 0.153798 0.879979 0.230283
H448  H     H_    0.200152 0.886760 0.846843 0.138199
H449  H     H_    0.829845 0.133345 0.929598 0.239814
H450  H     H_    0.166974 0.873117 0.783212 0.067498
H451  H     H_    0.117172 0.834932 0.792842 0.141876
H452  H     H_    0.078590 0.887418 0.847200 0.195780
H453  H     H_    0.131436 0.929429 0.842393 0.199194
H454  H     H_    0.079356 0.937671 0.802988 0.261016
H455  H     H_    0.863336 0.187746 0.212497 0.135006
H456  H     H_    0.814469 0.141552 0.210632 0.122957
H457  H     H_    0.864475 0.087666 0.157113 0.230487
H458  H     H_    0.864882 0.149587 0.130746 0.232557
H459  H     H_    0.170111 0.921159 0.923143 0.209220
H460  H     H_    0.918526 0.126973 0.164383 0.231393
H461  H     H_    0.901476 0.300606 0.953280 0.105435
H462  H     H_    0.952671 0.297336 0.909398 0.120900
H463  H     H_    0.960281 0.206259 0.925772 0.253242
H464  H     H_    0.965871 0.242710 0.981649 0.191375
H465  H     H_    0.908583 0.209869 0.969019 0.251853
H466  H     H_    0.046572 0.689811 0.102305 0.106672
H467  H     H_    0.083847 0.698818 0.046991 0.106667
H468  H     H_    0.056357 0.786405 0.042313 0.231707
H469  H     H_    0.002460 0.745805 0.047001 0.206405
H470  H     H_    0.139338 0.862108 0.913387 0.195077
H471  H     H_    0.023258 0.780696 0.100274 0.266694
H472  H     H_    0.862976 0.787767 0.188772 0.118944
H473  H     H_    0.820190 0.798841 0.138201 0.160390
H474  H     H_    0.882755 0.846507 0.092564 0.214302
H475  H     H_    0.882094 0.869468 0.155754 0.226285
H476  H     H_    0.931237 0.828516 0.135308 0.242161
H477  H     H_    0.188750 0.212401 0.863461 0.129884
H478  H     H_    0.140102 0.204991 0.817742 0.143300
H479  H     H_    0.090765 0.154197 0.875263 0.221556
H480  H     H_    0.153451 0.129777 0.874059 0.232047
O1    O     O_R   0.553790 0.256330 0.314650 -0.601243
O2    O     O_R   0.446210 0.256330 0.314650 -0.582775
O3    O     O_R   0.814650 0.743670 0.946210 -0.599963
O4    O     O_R   0.946210 0.256330 0.185350 -0.605480
O5    O     O_R   0.053790 0.743670 0.814650 -0.595929
O6    O     O_R   0.814650 0.256330 0.946210 -0.595038
O7    O     O_R   0.185350 0.743670 0.053790 -0.591464
O8    O     O_R   0.053790 0.743670 0.185350 -0.586290
O9    O     O_R   0.946210 0.256330 0.814650 -0.579482
O10   O     O_R   0.185350 0.743670 0.946210 -0.600454
O11   O     O_R   0.814650 0.256330 0.053790 -0.594253
O12   O     O_R   0.946210 0.743670 0.814650 -0.620944
O13   O     O_R   0.685350 0.743670 0.446210 -0.580363
O14   O     O_R   0.053790 0.256330 0.185350 -0.596619
O15   O     O_R   0.814650 0.743670 0.053790 -0.581805
O16   O     O_R   0.185350 0.256330 0.946210 -0.609532
O17   O     O_R   0.743670 0.185350 0.053790 -0.585985
O18   O     O_R   0.256330 0.814650 0.946210 -0.600705
O19   O     O_R   0.743670 0.946210 0.185350 -0.600222
O20   O     O_R   0.256330 0.053790 0.814650 -0.576910
O21   O     O_R   0.743670 0.814650 0.946210 -0.597265
O22   O     O_R   0.256330 0.185350 0.053790 -0.604336
O23   O     O_R   0.743670 0.053790 0.814650 -0.586031
O24   O     O_R   0.314650 0.256330 0.553790 -0.609792
O25   O     O_R   0.256330 0.946210 0.185350 -0.582825
O26   O     O_R   0.256330 0.814650 0.053790 -0.583929
O27   O     O_R   0.743670 0.185350 0.946210 -0.598497
O28   O     O_R   0.256330 0.053790 0.185350 -0.620593
O29   O     O_R   0.743670 0.946210 0.814650 -0.592092
O30   O     O_R   0.256330 0.185350 0.946210 -0.595447
O31   O     O_R   0.743670 0.814650 0.053790 -0.608387
O32   O     O_R   0.256330 0.946210 0.814650 -0.613468
O33   O     O_R   0.743670 0.053790 0.185350 -0.589868
O34   O     O_R   0.814650 0.946210 0.743670 -0.610007
O35   O     O_R   0.446210 0.743670 0.314650 -0.597028
O36   O     O_R   0.185350 0.053790 0.256330 -0.604426
O37   O     O_R   0.053790 0.814650 0.743670 -0.594651
O38   O     O_R   0.946210 0.185350 0.256330 -0.582616
O39   O     O_R   0.185350 0.053790 0.743670 -0.587242
O40   O     O_R   0.814650 0.946210 0.256330 -0.578477
O41   O     O_R   0.946210 0.185350 0.743670 -0.586445
O42   O     O_R   0.053790 0.814650 0.256330 -0.586223
O43   O     O_R   0.185350 0.946210 0.256330 -0.600136
O44   O     O_R   0.814650 0.053790 0.743670 -0.586349
O45   O     O_R   0.946210 0.814650 0.256330 -0.592741
O46   O     O_R   0.553790 0.256330 0.685350 -0.574096
O47   O     O_R   0.053790 0.185350 0.743670 -0.591413
O48   O     O_R   0.814650 0.053790 0.256330 -0.589448
O49   O     O_R   0.185350 0.946210 0.743670 -0.602448
O50   O     O_R   0.053790 0.185350 0.256330 -0.596922
O51   O     O_R   0.946210 0.814650 0.743670 -0.596404
O52   O     O_R   0.553790 0.756330 0.814650 -0.596941
O53   O     O_R   0.446210 0.243670 0.185350 -0.587923
O54   O     O_R   0.185350 0.756330 0.553790 -0.599801
O55   O     O_R   0.814650 0.243670 0.446210 -0.588244
O56   O     O_R   0.446210 0.756330 0.185350 -0.581917
O57   O     O_R   0.314650 0.743670 0.553790 -0.595137
O58   O     O_R   0.553790 0.243670 0.814650 -0.598003
O59   O     O_R   0.814650 0.756330 0.446210 -0.598763
O60   O     O_R   0.185350 0.243670 0.553790 -0.610335
O61   O     O_R   0.553790 0.243670 0.185350 -0.591402
O62   O     O_R   0.446210 0.756330 0.814650 -0.607751
O63   O     O_R   0.185350 0.243670 0.446210 -0.599209
O64   O     O_R   0.814650 0.756330 0.553790 -0.582539
O65   O     O_R   0.446210 0.243670 0.814650 -0.620049
O66   O     O_R   0.553790 0.756330 0.185350 -0.603905
O67   O     O_R   0.814650 0.243670 0.553790 -0.592723
O68   O     O_R   0.685350 0.256330 0.446210 -0.590478
O69   O     O_R   0.185350 0.756330 0.446210 -0.589745
O70   O     O_R   0.243670 0.185350 0.553790 -0.590251
O71   O     O_R   0.756330 0.814650 0.446210 -0.604142
O72   O     O_R   0.243670 0.446210 0.185350 -0.578701
O73   O     O_R   0.756330 0.553790 0.814650 -0.598295
O74   O     O_R   0.243670 0.814650 0.446210 -0.616328
O75   O     O_R   0.756330 0.185350 0.553790 -0.598511
O76   O     O_R   0.243670 0.553790 0.814650 -0.596691
O77   O     O_R   0.756330 0.446210 0.185350 -0.613973
O78   O     O_R   0.756330 0.814650 0.553790 -0.598839
O79   O     O_R   0.743670 0.685350 0.553790 -0.597899
O80   O     O_R   0.243670 0.185350 0.446210 -0.591123
O81   O     O_R   0.756330 0.553790 0.185350 -0.584851
O82   O     O_R   0.243670 0.446210 0.814650 -0.602530
O83   O     O_R   0.756330 0.185350 0.446210 -0.589568
O84   O     O_R   0.243670 0.814650 0.553790 -0.594908
O85   O     O_R   0.756330 0.446210 0.814650 -0.599540
O86   O     O_R   0.243670 0.553790 0.185350 -0.584686
O87   O     O_R   0.814650 0.446210 0.243670 -0.578016
O88   O     O_R   0.185350 0.553790 0.756330 -0.596517
O89   O     O_R   0.553790 0.814650 0.243670 -0.592413
O90   O     O_R   0.256330 0.314650 0.446210 -0.603062
O91   O     O_R   0.446210 0.185350 0.756330 -0.588953
O92   O     O_R   0.185350 0.553790 0.243670 -0.595876
O93   O     O_R   0.814650 0.446210 0.756330 -0.595641
O94   O     O_R   0.446210 0.185350 0.243670 -0.589109
O95   O     O_R   0.553790 0.814650 0.756330 -0.596391
O96   O     O_R   0.185350 0.446210 0.756330 -0.597141
O97   O     O_R   0.814650 0.553790 0.243670 -0.599964
O98   O     O_R   0.446210 0.814650 0.756330 -0.598075
O99   O     O_R   0.553790 0.185350 0.243670 -0.605371
O100  O     O_R   0.814650 0.553790 0.756330 -0.584128
O101  O     O_R   0.743670 0.446210 0.685350 -0.585104
O102  O     O_R   0.185350 0.446210 0.243670 -0.609033
O103  O     O_R   0.553790 0.185350 0.756330 -0.587427
O104  O     O_R   0.446210 0.814650 0.243670 -0.600636
O105  O     O_3   0.734333 0.107005 0.108140 -0.564731
O106  O     O_3   0.260796 0.887980 0.889976 -0.567549
O107  O     O_3   0.889154 0.109981 0.736214 -0.556648
O108  O     O_3   0.115785 0.884244 0.257014 -0.572311
O109  O     O_3   0.259725 0.112974 0.886924 -0.571862
O110  O     O_3   0.748256 0.877639 0.121589 -0.571543
O111  O     O_3   0.112347 0.113296 0.261791 -0.569301
O112  O     O_R   0.446210 0.743670 0.685350 -0.596234
O113  O     O_R   0.256330 0.553790 0.314650 -0.582490
O114  O     O_3   0.888560 0.890077 0.735946 -0.575507
O115  O     O_3   0.739699 0.887615 0.887539 -0.566868
O116  O     O_3   0.264672 0.107823 0.107130 -0.571273
O117  O     O_3   0.890760 0.891191 0.265101 -0.562282
O118  O     O_3   0.116440 0.117275 0.742969 -0.566866
O119  O     O_3   0.251710 0.878674 0.120804 -0.563088
O120  O     O_3   0.749376 0.122342 0.877798 -0.577743
O121  O     O_3   0.109476 0.888840 0.735277 -0.574805
O122  O     O_3   0.877930 0.121518 0.251326 -0.567287
O123  O     O_3   0.887684 0.260964 0.887572 -0.565708
O124  O     O_R   0.743670 0.314650 0.446210 -0.582345
O125  O     O_3   0.109734 0.735999 0.109385 -0.559966
O126  O     O_3   0.877935 0.749267 0.122093 -0.570596
O127  O     O_3   0.121820 0.250634 0.878019 -0.574710
O128  O     O_3   0.115612 0.743040 0.884440 -0.574971
O129  O     O_3   0.881821 0.253897 0.118377 -0.575255
O130  O     O_3   0.106426 0.268734 0.105132 -0.568813
O131  O     O_3   0.888952 0.738729 0.890703 -0.565950
O132  O     O_3   0.248625 0.621797 0.121520 -0.567565
O133  O     O_3   0.765157 0.392728 0.890142 -0.571062
O134  O     O_3   0.887587 0.610919 0.238964 -0.565512
O135  O     O_R   0.256330 0.685350 0.553790 -0.598449
O136  O     O_3   0.110861 0.391166 0.765673 -0.571774
O137  O     O_3   0.764895 0.610771 0.892236 -0.572470
O138  O     O_3   0.248539 0.378712 0.121459 -0.566680
O139  O     O_3   0.108321 0.610627 0.764616 -0.576751
O140  O     O_3   0.878151 0.378236 0.248830 -0.561902
O141  O     O_3   0.243000 0.384507 0.884756 -0.577520
O142  O     O_3   0.759127 0.614416 0.114111 -0.570195
O143  O     O_3   0.883394 0.383526 0.756148 -0.567040
O144  O     O_3   0.113130 0.612975 0.240285 -0.571726
O145  O     O_3   0.765006 0.388592 0.109511 -0.569298
O146  O     O_R   0.743670 0.553790 0.314650 -0.606513
O147  O     O_3   0.240591 0.613878 0.886064 -0.568438
O148  O     O_3   0.109547 0.388714 0.236127 -0.572066
O149  O     O_3   0.889144 0.611725 0.763347 -0.560750
O150  O     O_3   0.382858 0.882469 0.243631 -0.572921
O151  O     O_3   0.613599 0.113287 0.760746 -0.563029
O152  O     O_3   0.377243 0.750547 0.877297 -0.574809
O153  O     O_3   0.610207 0.236258 0.110495 -0.563405
O154  O     O_3   0.385254 0.115451 0.758443 -0.565644
O155  O     O_3   0.609288 0.890665 0.234417 -0.558858
O156  O     O_3   0.383130 0.243607 0.116964 -0.570716
O157  O     O_R   0.256330 0.446210 0.685350 -0.589349
O158  O     O_3   0.608428 0.765673 0.891621 -0.562865
O159  O     O_3   0.621978 0.121460 0.248519 -0.580774
O160  O     O_3   0.391352 0.889303 0.765363 -0.577185
O161  O     O_3   0.610666 0.239260 0.887699 -0.567044
O162  O     O_3   0.392369 0.766438 0.106673 -0.566889
O163  O     O_3   0.609949 0.892857 0.765322 -0.576850
O164  O     O_3   0.394473 0.104981 0.231754 -0.566234
O165  O     O_3   0.621507 0.750905 0.121404 -0.579838
O166  O     O_3   0.389943 0.237352 0.891422 -0.570009
O167  O     O_3   0.115207 0.758750 0.385413 -0.565276
O168  O     O_R   0.256330 0.314650 0.553790 -0.590930
O169  O     O_3   0.890258 0.235396 0.609489 -0.560197
O170  O     O_3   0.248677 0.121104 0.378771 -0.563493
O171  O     O_3   0.764396 0.889880 0.609769 -0.566111
O172  O     O_3   0.880831 0.245133 0.381142 -0.569956
O173  O     O_3   0.114889 0.758120 0.614635 -0.574763
O174  O     O_3   0.752101 0.878695 0.378586 -0.569882
O175  O     O_3   0.239995 0.113009 0.612818 -0.570980
O176  O     O_3   0.877921 0.750253 0.622541 -0.565074
O177  O     O_3   0.110064 0.236998 0.390018 -0.577736
O178  O     O_3   0.750854 0.121584 0.621891 -0.573498
O179  O     O_R   0.743670 0.685350 0.446210 -0.604152
O180  O     O_3   0.237248 0.891821 0.389937 -0.562295
O181  O     O_3   0.111541 0.239786 0.609738 -0.585305
O182  O     O_3   0.890025 0.765151 0.392694 -0.580111
O183  O     O_3   0.239823 0.887519 0.610558 -0.563789
O184  O     O_3   0.769373 0.104800 0.394358 -0.558907
O185  O     O_3   0.739241 0.613382 0.613789 -0.568911
O186  O     O_3   0.262248 0.389643 0.390888 -0.567123
O187  O     O_3   0.377310 0.622465 0.749210 -0.564776
O188  O     O_3   0.609024 0.389147 0.260982 -0.584592
O189  O     O_3   0.250225 0.622230 0.378323 -0.562476
O190  O     O_R   0.256330 0.553790 0.685350 -0.616456
O191  O     O_3   0.749180 0.378282 0.621999 -0.578378
O192  O     O_3   0.609755 0.609978 0.264363 -0.562232
O193  O     O_3   0.388711 0.390333 0.736019 -0.572844
O194  O     O_3   0.734654 0.392080 0.391089 -0.564861
O195  O     O_3   0.261362 0.611789 0.610272 -0.564248
O196  O     O_3   0.391540 0.392473 0.265013 -0.564265
O197  O     O_3   0.610800 0.613377 0.739596 -0.563420
O198  O     O_3   0.259711 0.386728 0.613046 -0.576096
O199  O     O_3   0.744376 0.618143 0.382433 -0.573869
O200  O     O_3   0.614266 0.386215 0.741179 -0.574164
O201  O     O_R   0.743670 0.446210 0.314650 -0.586852
O202  O     O_3   0.379154 0.621360 0.252986 -0.576939
O203  O     O_3   0.390335 0.262537 0.390259 -0.571668
O204  O     O_3   0.612990 0.740307 0.611496 -0.562810
O205  O     O_3   0.385569 0.741322 0.614700 -0.580891
O206  O     O_3   0.618263 0.255759 0.381677 -0.568423
O207  O     O_3   0.620983 0.748711 0.379008 -0.565710
O208  O     O_3   0.378592 0.250993 0.621793 -0.578808
O209  O     O_3   0.607957 0.267045 0.607929 -0.559445
O210  O     O_3   0.390446 0.735676 0.388905 -0.574525
O211  O     O_R   0.256330 0.685350 0.446210 -0.578009
O212  O     O_R   0.685350 0.256330 0.553790 -0.591159
O213  O     O_R   0.743670 0.314650 0.553790 -0.610935
O214  O     O_R   0.256330 0.446210 0.314650 -0.615769
O215  O     O_R   0.743670 0.553790 0.685350 -0.576755
O216  O     O_R   0.314650 0.446210 0.743670 -0.602264
O217  O     O_R   0.685350 0.553790 0.256330 -0.572842
O218  O     O_R   0.553790 0.314650 0.743670 -0.595736
O219  O     O_R   0.446210 0.685350 0.256330 -0.592996
O220  O     O_R   0.685350 0.553790 0.743670 -0.613852
O221  O     O_R   0.314650 0.446210 0.256330 -0.583572
O222  O     O_R   0.446210 0.685350 0.743670 -0.577081
O223  O     O_R   0.314650 0.743670 0.446210 -0.607713
O224  O     O_R   0.553790 0.314650 0.256330 -0.606649
O225  O     O_R   0.685350 0.446210 0.256330 -0.620313
O226  O     O_R   0.314650 0.553790 0.743670 -0.578696
O227  O     O_R   0.446210 0.314650 0.256330 -0.597118
O228  O     O_R   0.553790 0.685350 0.743670 -0.595449
O229  O     O_R   0.314650 0.553790 0.256330 -0.606552
O230  O     O_R   0.685350 0.446210 0.743670 -0.593438
O231  O     O_R   0.553790 0.685350 0.256330 -0.595208
O232  O     O_R   0.446210 0.314650 0.743670 -0.607019
O233  O     O_R   0.053790 0.756330 0.314650 -0.585229
O234  O     O_R   0.446210 0.256330 0.685350 -0.584971
O235  O     O_R   0.946210 0.243670 0.685350 -0.574079
O236  O     O_R   0.685350 0.756330 0.053790 -0.583814
O237  O     O_R   0.314650 0.243670 0.946210 -0.601699
O238  O     O_R   0.946210 0.756330 0.685350 -0.585491
O239  O     O_R   0.053790 0.243670 0.314650 -0.596782
O240  O     O_R   0.314650 0.756330 0.946210 -0.597019
O241  O     O_R   0.685350 0.243670 0.053790 -0.588643
O242  O     O_R   0.053790 0.243670 0.685350 -0.614924
O243  O     O_R   0.946210 0.756330 0.314650 -0.607368
O244  O     O_R   0.685350 0.243670 0.946210 -0.612945
O245  O     O_R   0.553790 0.743670 0.314650 -0.582727
O246  O     O_R   0.314650 0.756330 0.053790 -0.590076
O247  O     O_R   0.946210 0.243670 0.314650 -0.604626
O248  O     O_R   0.053790 0.756330 0.685350 -0.597742
O249  O     O_R   0.314650 0.243670 0.053790 -0.599291
O250  O     O_R   0.685350 0.756330 0.946210 -0.588080
O251  O     O_R   0.243670 0.685350 0.053790 -0.588385
O252  O     O_R   0.756330 0.314650 0.946210 -0.598318
O253  O     O_R   0.243670 0.946210 0.685350 -0.612600
O254  O     O_R   0.756330 0.053790 0.314650 -0.590351
O255  O     O_R   0.243670 0.314650 0.946210 -0.594233
O256  O     O_R   0.314650 0.256330 0.446210 -0.594407
O257  O     O_R   0.756330 0.685350 0.053790 -0.588456
O258  O     O_R   0.243670 0.053790 0.314650 -0.581711
O259  O     O_R   0.756330 0.946210 0.685350 -0.589512
O260  O     O_R   0.756330 0.314650 0.053790 -0.597703
O261  O     O_R   0.243670 0.685350 0.946210 -0.581275
O262  O     O_R   0.756330 0.053790 0.685350 -0.587687
O263  O     O_R   0.243670 0.946210 0.314650 -0.599781
O264  O     O_R   0.756330 0.685350 0.946210 -0.609536
O265  O     O_R   0.243670 0.314650 0.053790 -0.591937
O266  O     O_R   0.756330 0.946210 0.314650 -0.597444
O267  O     O_R   0.685350 0.743670 0.553790 -0.597378
O268  O     O_R   0.243670 0.053790 0.685350 -0.576981
O269  O     O_R   0.314650 0.946210 0.243670 -0.603160
O270  O     O_R   0.685350 0.053790 0.756330 -0.589985
O271  O     O_R   0.053790 0.314650 0.243670 -0.602439
O272  O     O_R   0.946210 0.685350 0.756330 -0.580354
O273  O     O_R   0.685350 0.053790 0.243670 -0.589542
O274  O     O_R   0.314650 0.946210 0.756330 -0.603193
O275  O     O_R   0.946210 0.685350 0.243670 -0.613362
O276  O     O_R   0.053790 0.314650 0.756330 -0.616584
O277  O     O_R   0.685350 0.946210 0.756330 -0.610084
O278  O     O_R   0.553790 0.743670 0.685350 -0.611976
O279  O     O_R   0.314650 0.053790 0.243670 -0.585842
O280  O     O_R   0.946210 0.314650 0.756330 -0.589419
O281  O     O_R   0.053790 0.685350 0.243670 -0.576923
O282  O     O_R   0.314650 0.053790 0.756330 -0.586688
O283  O     O_R   0.685350 0.946210 0.243670 -0.574162
O284  O     O_R   0.053790 0.685350 0.756330 -0.607131
O285  O     O_R   0.946210 0.314650 0.243670 -0.581239
O286  O     O_R   0.053790 0.256330 0.814650 -0.581918
O287  O     O_R   0.946210 0.743670 0.185350 -0.595403
O288  O     O_R   0.185350 0.256330 0.053790 -0.592294
Zn1   Zn    Zn3+2 0.500000 0.210530 0.289470 0.929567
Zn2   Zn    Zn3+2 0.210530 0.289470 0.500000 0.891783
Zn3   Zn    Zn3+2 0.789470 0.500000 0.710530 0.975474
Zn4   Zn    Zn3+2 0.210530 0.500000 0.289470 0.935368
Zn5   Zn    Zn3+2 0.789470 0.289470 0.500000 0.934418
Zn6   Zn    Zn3+2 0.210530 0.710530 0.500000 0.952948
Zn7   Zn    Zn3+2 0.789470 0.500000 0.289470 0.944256
Zn8   Zn    Zn3+2 0.210530 0.500000 0.710530 0.944191
Zn9   Zn    Zn3+2 0.289470 0.500000 0.789470 0.957190
Zn10  Zn    Zn3+2 0.710530 0.500000 0.210530 0.950406
Zn11  Zn    Zn3+2 0.500000 0.289470 0.789470 0.917024
Zn12  Zn    Zn3+2 0.500000 0.789470 0.710530 0.948148
Zn13  Zn    Zn3+2 0.500000 0.710530 0.210530 0.934226
Zn14  Zn    Zn3+2 0.710530 0.500000 0.789470 0.946640
Zn15  Zn    Zn3+2 0.289470 0.500000 0.210530 0.965932
Zn16  Zn    Zn3+2 0.500000 0.710530 0.789470 0.945636
Zn17  Zn    Zn3+2 0.500000 0.289470 0.210530 0.920506
Zn18  Zn    Zn3+2 1.000000 0.710530 0.289470 0.945558
Zn19  Zn    Zn3+2 0.000000 0.289470 0.710530 0.945215
Zn20  Zn    Zn3+2 0.710530 0.710530 0.000000 0.968749
Zn21  Zn    Zn3+2 0.289470 0.289470 0.000000 0.911416
Zn22  Zn    Zn3+2 1.000000 0.710530 0.710530 0.956795
Zn23  Zn    Zn3+2 0.710530 0.210530 0.500000 0.943948
Zn24  Zn    Zn3+2 0.000000 0.289470 0.289470 0.954665
Zn25  Zn    Zn3+2 0.289470 0.710530 0.000000 0.959245
Zn26  Zn    Zn3+2 0.710530 0.289470 0.000000 0.943798
Zn27  Zn    Zn3+2 0.289470 0.000000 0.710530 0.945037
Zn28  Zn    Zn3+2 0.710530 0.000000 0.289470 0.973793
Zn29  Zn    Zn3+2 0.289470 0.000000 0.289470 0.946242
Zn30  Zn    Zn3+2 0.710530 0.000000 0.710530 0.958627
Zn31  Zn    Zn3+2 0.000000 0.210530 0.789470 0.977804
Zn32  Zn    Zn3+2 1.000000 0.789470 0.210530 0.950226
Zn33  Zn    Zn3+2 0.210530 0.210530 0.000000 0.914712
Zn34  Zn    Zn3+2 0.289470 0.789470 0.500000 0.927734
Zn35  Zn    Zn3+2 0.789470 0.789470 0.000000 0.938741
Zn36  Zn    Zn3+2 1.000000 0.210530 0.210530 0.951253
Zn37  Zn    Zn3+2 1.000000 0.789470 0.789470 0.937504
Zn38  Zn    Zn3+2 0.789470 0.210530 0.000000 0.932995
Zn39  Zn    Zn3+2 0.210530 0.789470 0.000000 0.951311
Zn40  Zn    Zn3+2 0.789470 0.000000 0.210530 0.963068
Zn41  Zn    Zn3+2 0.210530 0.000000 0.789470 0.946700
Zn42  Zn    Zn3+2 0.789470 0.000000 0.789470 0.961133
Zn43  Zn    Zn3+2 0.210530 0.000000 0.210530 0.930993
Zn44  Zn    Zn3+2 0.500000 0.210530 0.710530 0.978097
Zn45  Zn    Zn3+2 0.500000 0.789470 0.289470 0.955506
Zn46  Zn    Zn3+2 0.289470 0.210530 0.500000 0.916356
Zn47  Zn    Zn3+2 0.710530 0.789470 0.500000 0.941133
Zn48  Zn    Zn3+2 0.789470 0.710530 0.500000 0.951089

loop_
_geom_bond_atom_site_label_1
_geom_bond_atom_site_label_2
_ccdc_geom_bond_type
O63   Zn2   S    
C415  H400  S    
O36   Zn43  S    
C284  H73   S    
C106  C479  A    
C273  H47   S    
C337  C338  S    
C255  H3    S    
C279  O244  A    
C104  C204  A    
C37   C161  A    
C315  H150  S    
C66   C155  A    
C301  O247  A    
C395  H352  S    
C48   C125  A    
C361  H265  S    
C344  H225  S    
C255  H479  S    
C267  H31   S    
C343  H220  S    
C220  O109  S    
C430  O264  A    
C376  H304  S    
C219  H113  S    
C44   C427  S    
C307  O153  S    
C113  O216  A    
C477  O86   A    
C316  H153  S    
C284  H74   S    
C421  H418  S    
C80   C196  A    
C280  H62   S    
C468  O69   A    
C470  O228  A    
C469  O72   A    
C238  H435  S    
C347  H229  S    
C58   C469  S    
C334  O223  A    
C128  O128  S    
C363  O181  S    
C256  O128  S    
C9    C164  A    
C341  H214  S    
C27   C268  S    
C336  H202  S    
O57   Zn34  S    
C268  O243  A    
C419  H411  S    
C308  H134  S    
C459  O79   A    
C210  O210  S    
C161  O161  S    
C204  O204  S    
C20   C446  S    
C260  H11   S    
C262  H19   S    
C284  H72   S    
C359  H259  S    
C434  O269  A    
C288  H84   S    
O29   Zn42  S    
C297  H106  S    
C9    C116  A    
C328  H184  S    
C2    O227  A    
O230  Zn14  S    
O258  Zn29  S    
C20   C125  A    
C353  H245  S    
C405  C406  S    
O48   Zn40  S    
C61   C456  S    
C407  O203  S    
C358  H255  S    
O272  Zn22  S    
C339  H209  S    
C104  C459  S    
C402  H369  S    
O259  Zn30  S    
C68   O68   A    
C225  H201  S    
C416  O207  S    
C65   C154  A    
C195  O195  S    
C252  C253  S    
C455  O83   A    
C4    C109  A    
O96   Zn8   S    
C378  H308  S    
C267  C269  S    
C92   C210  A    
O15   Zn35  S    
C417  H406  S    
C240  H442  S    
C257  O47   A    
C227  H268  S    
C384  H321  S    
C355  H251  S    
C107  C480  A    
C439  C478  S    
C275  H50   S    
C5    C110  A    
C246  O241  A    
C241  C242  S    
C132  O132  S    
C374  C375  S    
C398  O198  S    
C115  O115  S    
C283  O141  S    
C101  O217  A    
C91   C204  A    
C385  O192  S    
C404  H373  S    
C265  O132  S    
C107  O107  S    
C237  C238  S    
C28   C139  A    
C15   C368  S    
C220  C221  S    
C42   C105  A    
C181  O181  S    
C319  H161  S    
O30   Zn33  S    
C61   C162  A    
C282  H67   S    
C87   C193  A    
C382  H317  S    
C103  C448  S    
C420  H414  S    
C82   C188  A    
O251  Zn25  S    
C81   C195  A    
C1    C95   S    
C243  H450  S    
C226  H246  S    
C325  H176  S    
C286  H80   S    
O54   Zn6   S    
C245  O122  S    
C365  H275  S    
C386  H328  S    
C409  H386  S    
C379  O48   A    
C349  H236  S    
C42   C246  S    
C225  H212  S    
C372  H293  S    
C66   C165  A    
C214  H448  S    
C294  H98   S    
O53   Zn17  S    
O80   Zn46  S    
C3    C108  A    
C65   C465  S    
C465  O91   A    
O213  Zn5   S    
C76   C174  A    
C10   C117  A    
C318  O159  S    
C381  O189  S    
C72   C463  S    
C79   O230  A    
C362  H267  S    
C219  H101  S    
C218  O108  S    
C254  H478  S    
C242  H446  S    
C313  H145  S    
C11   C118  A    
C310  H141  S    
C232  H412  S    
C424  H424  S    
O67   Zn5   S    
C274  H48   S    
C47   C115  A    
C112  O222  A    
C7    C114  A    
C448  O256  A    
O38   Zn36  S    
C201  O237  A    
C294  C295  S    
C232  H401  S    
C329  C330  S    
C408  H383  S    
C248  H462  S    
C406  H380  S    
C423  O259  A    
O3    Zn35  S    
C253  H474  S    
C292  H92   S    
O218  Zn11  S    
C40   C431  S    
C345  C347  S    
C18   C224  S    
C303  H120  S    
O46   Zn44  S    
C164  O164  S    
C171  O171  S    
C230  O115  S    
C436  O14   A    
C300  C302  S    
C102  C223  S    
C62   C151  A    
O41   Zn31  S    
O83   Zn23  S    
C364  H272  S    
C236  H432  S    
C357  O6    A    
O220  Zn14  S    
C348  H232  S    
C31   C179  S    
C2    C89   S    
C331  C332  S    
C167  O167  S    
C101  O146  A    
C70   C468  S    
C255  H480  S    
C59   C139  A    
C267  H32   S    
O22   Zn33  S    
C57   O135  A    
C370  H287  S    
C376  H303  S    
C35   O35   A    
C90   O229  A    
O7    Zn39  S    
C414  C415  S    
C60   C145  A    
C248  H461  S    
C367  O183  S    
C385  C386  S    
C280  H61   S    
C347  H230  S    
C410  H388  S    
C392  C393  S    
C441  O275  A    
C157  O215  A    
O253  Zn27  S    
C277  H55   S    
C30   C168  S    
C341  H215  S    
C4    C447  S    
C105  O105  S    
C281  H64   S    
O24   Zn46  S    
C410  H389  S    
C230  C231  S    
C50   C190  S    
C109  O109  S    
C308  H133  S    
C272  H43   S    
C26   C181  A    
O101  Zn3   S    
C222  H179  S    
C260  H14   S    
C262  H18   S    
C359  H260  S    
C363  H271  S    
C192  O192  S    
C303  O151  S    
C390  O255  A    
C343  C344  S    
C288  H83   S    
C297  H107  S    
C24   C99   S    
O201  Zn7   S    
C328  H183  S    
C75   C183  A    
O271  Zn24  S    
C456  O56   A    
C446  O8    A    
C259  O129  S    
O104  Zn45  S    
C379  O254  A    
C184  O184  S    
C475  O96   A    
C405  O202  S    
C73   C464  S    
C274  O137  S    
C278  H59   S    
C172  O172  S    
O211  Zn6   S    
C324  H172  S    
C326  H180  S    
C412  O258  A    
C388  H332  S    
C8    C115  A    
C396  H354  S    
C261  O130  S    
C263  H20   S    
O228  Zn16  S    
C394  H348  S    
C470  O278  A    
C61   C150  A    
C458  O59   A    
O1    Zn1   S    
C393  H344  S    
C113  O157  A    
C327  H181  S    
C94   C205  A    
C239  O119  S    
C160  O160  S    
C17   C114  A    
C417  H407  S    
C240  H441  S    
C182  O182  S    
O229  Zn15  S    
C394  H349  S    
C235  O240  A    
C384  H324  S    
C42   C153  A    
C36   C142  A    
C355  H252  S    
C196  O196  S    
C474  O97   A    
C281  C282  S    
C316  O158  S    
O59   Zn48  S    
C78   C157  S    
C96   C206  A    
O10   Zn39  S    
O11   Zn38  S    
C138  O138  S    
C211  C213  S    
C226  C227  S    
C93   C209  A    
C278  C280  S    
O55   Zn5   S    
C217  H46   S    
O270  Zn30  S    
O274  Zn27  S    
C401  O15   A    
C319  H162  S    
C311  O155  S    
C424  H422  S    
C282  H66   S    
C191  O191  S    
C322  H171  S    
C69   C163  A    
C382  H316  S    
C343  H219  S    
C401  O257  A    
C320  C321  S    
C215  H470  S    
C183  O183  S    
C305  O152  S    
C422  O210  S    
C307  H131  S    
O243  Zn18  S    
C429  O43   A    
C124  O190  A    
C360  H263  S    
C251  H471  S    
C365  H276  S    
C56   C149  A    
C386  H327  S    
C409  H387  S    
O215  Zn3   S    
O146  Zn7   S    
C213  H223  S    
C415  H402  S    
C294  H97   S    
C385  H325  S    
O58   Zn11  S    
C244  H454  S    
O8    Zn32  S    
C420  C421  S    
C228  H301  S    
C86   C193  A    
O89   Zn45  S    
C186  O186  S    
C50   C110  A    
C274  C275  S    
C7    C423  S    
C362  H266  S    
C67   C453  S    
C14   C151  A    
C254  H477  S    
C234  H428  S    
C455  O55   A    
C331  H193  S    
C221  H168  S    
C80   C146  S    
C264  H22   S    
C51   C109  A    
O31   Zn35  S    
C202  O202  S    
C112  O112  A    
C95   C188  A    
C206  O206  S    
C46   O218  A    
C413  H394  S    
C241  H444  S    
C229  H323  S    
C234  H429  S    
C397  H355  S    
C309  O154  S    
O78   Zn47  S    
C281  H65   S    
C316  C317  S    
C154  O154  S    
C465  O65   A    
C303  C304  S    
C253  H475  S    
C57   C97   S    
C391  H339  S    
C158  O158  S    
C380  H313  S    
C216  C217  S    
C344  H222  S    
C175  O175  S    
C273  H45   S    
C268  O45   A    
C16   C379  S    
C474  O81   A    
C383  C384  S    
C461  O61   A    
C68   O124  A    
O86   Zn15  S    
C220  H124  S    
O99   Zn1   S    
C466  O89   A    
C31   C107  A    
C236  H431  S    
C36   C126  A    
C348  H231  S    
C321  H166  S    
C395  H350  S    
C416  C417  S    
C352  H243  S    
C285  H75   S    
C342  H216  S    
C39   C131  A    
O241  Zn26  S    
C64   C159  A    
C380  H311  S    
C351  H239  S    
C350  C351  S    
C370  H286  S    
C63   C152  A    
C449  O19   A    
C394  C395  S    
C230  H357  S    
C359  C360  S    
C278  H60   S    
C426  O234  A    
C409  C410  S    
C69   C452  S    
C143  O143  S    
C59   C147  A    
C155  O155  S    
C356  H254  S    
C233  H423  S    
C375  H299  S    
C179  O235  A    
C438  O12   A    
C30   C167  A    
C342  H218  S    
C62   C161  A    
C288  H85   S    
C307  H132  S    
C5    C449  S    
C375  H302  S    
C269  H33   S    
C308  H136  S    
C328  H185  S    
C311  H143  S    
C332  H194  S    
C29   C129  A    
C356  O177  S    
C256  C258  S    
O217  Zn10  S    
C262  H17   S    
C159  C478  A    
O262  Zn30  S    
C471  O100  A    
C403  O200  S    
C60   C473  S    
C389  O194  S    
O245  Zn45  S    
C160  C479  A    
C74   C455  S    
C353  H247  S    
C277  H56   S    
O263  Zn29  S    
C346  O7    A    
C3    C180  A    
C223  O213  A    
C12   C119  A    
C396  H353  S    
C361  O180  S    
C356  C358  S    
C90   O113  A    
C165  O165  S    
C102  C209  A    
O232  Zn11  S    
C469  O102  A    
C393  H345  S    
C348  O173  S    
C327  H182  S    
C299  H111  S    
C248  O123  S    
C448  O90   A    
O269  Zn29  S    
C440  O32   A    
C100  C334  S    
O278  Zn12  S    
C26   C118  A    
C283  H71   S    
C323  O22   A    
C433  O39   A    
C357  O252  A    
C14   C435  S    
C427  O10   A    
C216  O107  S    
C304  H122  S    
C56   C137  A    
C387  H331  S    
C227  H257  S    
C453  O53   A    
C365  O182  S    
C116  O116  S    
C8    C443  S    
C87   C208  A    
O273  Zn28  S    
C460  O60   A    
O288  Zn33  S    
C133  O133  S    
O9    Zn31  S    
C87   C426  S    
C234  O117  S    
C55   C141  A    
C260  H12   S    
C424  H421  S    
C420  O209  S    
C129  O129  S    
C322  H170  S    
C439  O33   A    
C263  C264  S    
C34   C141  A    
C373  H294  S    
C392  H343  S    
O249  Zn21  S    
C187  O187  S    
C228  H290  S    
C136  O136  S    
C57   O57   A    
C55   C136  A    
C77   C460  S    
O279  Zn29  S    
C44   C147  A    
C84   C191  A    
C302  H119  S    
C214  H437  S    
C289  H86   S    
C459  O267  A    
O287  Zn32  S    
C286  H78   S    
C44   C128  A    
C19   C143  A    
C289  O144  S    
C367  H281  S    
C298  H108  S    
C447  O20   A    
C215  H2    S    
C35   C92   S    
C385  H326  S    
C438  O272  A    
C279  O27   A    
C244  H453  S    
O234  Zn44  S    
C307  C308  S    
C309  H137  S    
C298  H109  S    
C211  H1    S    
C33   C438  S    
O103  Zn44  S    
O216  Zn9   S    
C443  O29   A    
C387  O193  S    
C8    C163  A    
C323  O249  A    
C476  O93   A    
C460  O70   A    
C285  C286  S    
C153  O153  S    
C313  H147  S    
C78   C185  A    
C13   O179  A    
C330  H191  S    
C37   C279  S    
O239  Zn24  S    
C411  O205  S    
C145  O145  S    
C98   C207  A    
C301  O38   A    
C121  O121  S    
C105  C478  A    
C399  H362  S    
C22   C121  A    
C135  O201  A    
C413  H395  S    
C125  O125  S    
C241  H445  S    
C83   C189  A    
C320  H164  S    
O25   Zn43  S    
C397  H356  S    
C329  H186  S    
C11   C433  S    
C99   C208  A    
C321  H169  S    
C327  C328  S    
C259  H9    S    
C261  C262  S    
O27   Zn38  S    
C253  H476  S    
C391  H340  S    
C266  H28   S    
C108  O108  S    
O43   Zn43  S    
C344  H221  S    
C354  O176  S    
C473  O87   A    
C359  O178  S    
O219  Zn13  S    
C371  H289  S    
O32   Zn41  S    
C188  O188  S    
C48   C132  A    
C28   C128  A    
C239  H439  S    
O44   Zn42  S    
C39   C137  A    
C266  H29   S    
C292  O145  S    
O98   Zn12  S    
C213  H334  S    
O82   Zn9   S    
C203  O203  S    
C309  C310  S    
C378  H309  S    
C389  H337  S    
C321  H167  S    
C137  O137  S    
C452  O52   A    
C163  O163  S    
C292  C293  S    
C353  H244  S    
C426  O232  A    
C285  H76   S    
C141  O141  S    
C118  O118  S    
C454  O84   A    
O42   Zn32  S    
C366  H280  S    
O18   Zn39  S    
C25   C136  A    
O14   Zn36  S    
O50   Zn36  S    
O225  Zn10  S    
C407  H381  S    
C300  H116  S    
C315  H151  S    
O74   Zn34  S    
C78   C197  A    
O37   Zn37  S    
C64   C461  S    
C17   C176  A    
C256  H4    S    
C280  H63   S    
C468  O74   A    
C430  O3    A    
C156  O156  S    
C347  H228  S    
C472  O88   A    
C224  O50   A    
C356  H253  S    
C375  H300  S    
C173  O173  S    
C444  O28   A    
C342  H217  S    
C367  C369  S    
O28   Zn43  S    
C398  H360  S    
C419  H410  S    
C131  O131  S    
C12   C434  S    
C269  H34   S    
C425  O11   A    
C296  O148  S    
C390  O16   A    
C463  O80   A    
O254  Zn28  S    
C43   C425  S    
O17   Zn38  S    
O252  Zn26  S    
C245  H455  S    
C212  O238  A    
C310  H139  S    
O2    Zn1   S    
C89   C203  A    
C222  O110  S    
C221  H146  S    
C394  O196  S    
C346  O251  A    
C185  O185  S    
C168  O233  A    
C189  O189  S    
C261  H15   S    
C51   C166  A    
C422  H420  S    
C45   C323  S    
C177  O177  S    
C324  H174  S    
C326  H178  S    
C436  O271  A    
O95   Zn12  S    
C14   C120  A    
C220  H135  S    
C376  O187  S    
C245  C247  S    
C339  H208  S    
C270  O134  S    
C218  C219  S    
C37   C120  A    
C447  O282  A    
O135  Zn6   S    
C350  O174  S    
C122  O122  S    
C411  H393  S    
C91   C197  A    
C383  H319  S    
C38   C162  A    
C126  O126  S    
C341  C342  S    
C398  C399  S    
C55   C475  S    
C378  C380  S    
C402  H367  S    
C114  O114  S    
C240  H443  S    
C20   C144  A    
C355  H250  S    
C247  H460  S    
C276  O138  S    
C298  O149  S    
C52   C144  A    
C403  H371  S    
O246  Zn25  S    
O20   Zn41  S    
O49   Zn41  S    
C332  H196  S    
C411  C413  S    
C432  O40   A    
C168  O42   A    
C295  H99   S    
C34   C127  A    
C178  O178  S    
C77   C181  A    
C440  O274  A    
C369  H283  S    
C317  H155  S    
O280  Zn19  S    
C428  O44   A    
C79   O101  A    
C170  O170  S    
C234  C236  S    
C295  H102  S    
C174  O174  S    
C199  O199  S    
C200  O200  S    
C420  H415  S    
C25   C442  S    
C373  H295  S    
C12   C150  A    
C53   C133  A    
C18   C111  A    
C271  H41   S    
C225  H224  S    
C6    C412  S    
C231  H379  S    
C67   C156  A    
C302  H118  S    
C289  H87   S    
C43   C145  A    
C286  H77   S    
C457  O103  A    
C352  C353  S    
C467  O75   A    
C102  C191  A    
C251  H469  S    
C367  H282  S    
C249  H463  S    
C86   C198  A    
C216  H13   S    
O283  Zn28  S    
C49   C357  S    
C241  O120  S    
C387  C388  S    
C462  O62   A    
C358  H258  S    
C214  O106  S    
C309  H138  S    
C3    C429  S    
C1    O224  A    
C371  H288  S    
C431  O288  A    
C16   C184  A    
C239  H440  S    
C97   C195  A    
C33   C149  A    
C70   C167  A    
C26   C257  S    
C278  O139  S    
O65   Zn11  S    
C246  O17   A    
C300  O150  S    
C384  H322  S    
C312  O37   A    
C209  O209  S    
C10   C432  S    
C271  H39   S    
C397  H358  S    
C351  H241  S    
C231  H368  S    
C476  O85   A    
C464  O64   A    
C130  O130  S    
C340  H211  S    
C193  O193  S    
C413  H396  S    
O61   Zn17  S    
C190  O236  A    
C6    C111  A    
C17   C212  S    
C458  O71   A    
C329  H187  S    
C370  C371  S    
O81   Zn10  S    
C19   C123  A    
C98   C199  A    
O34   Zn42  S    
C273  H44   S    
C259  H10   S    
C79   C84   S    
C243  O121  S    
O23   Zn42  S    
C292  H93   S    
C409  O204  S    
C250  O125  S    
C472  O76   A    
C354  H248  S    
O16   Zn33  S    
O226  Zn9   S    
O244  Zn26  S    
C439  O273  A    
C427  O261  A    
C88   C437  S    
C325  C326  S    
C290  O246  A    
C418  H409  S    
C148  O148  S    
C389  H338  S    
C41   C235  S    
C222  C225  S    
C64   C153  A    
C336  H200  S    
C238  H438  S    
C461  O99   A    
C443  O277  A    
C350  H238  S    
C407  H382  S    
C300  H115  S    
C228  O114  S    
C222  H190  S    
O267  Zn47  S    
C212  O51   A    
C221  H157  S    
C233  H425  S    
O79   Zn48  S    
C92   C202  A    
C389  C391  S    
C6    C170  A    
C337  H204  S    
C29   C140  A    
O5    Zn37  S    
O235  Zn19  S    
O35   Zn45  S    
C285  O142  S    
C405  H375  S    
C310  H140  S    
C305  H126  S    
O100  Zn3   S    
C398  H359  S    
C237  H434  S    
C231  H390  S    
C314  H148  S    
C45   C116  A    
C94   C112  S    
C444  O279  A    
C363  H270  S    
C372  O185  S    
C245  H456  S    
C411  H392  S    
O231  Zn13  S    
C327  O163  S    
C314  H149  S    
C223  O212  A    
C451  O285  A    
C261  H16   S    
C7    C171  A    
O282  Zn27  S    
C1    O1    A    
C422  H419  S    
C324  H173  S    
C326  H177  S    
O286  Zn31  S    
C86   C113  S    
C71   C178  A    
C462  O98   A    
O276  Zn19  S    
C388  H333  S    
O39   Zn41  S    
C250  H467  S    
C13   O13   A    
C243  C244  S    
C75   C454  S    
C21   C122  A    
C399  H361  S    
O268  Zn27  S    
C383  H320  S    
C275  H51   S    
C194  O194  S    
C363  C364  S    
C71   C169  A    
C217  H35   S    
C402  H366  S    
C96   C194  A    
C406  H378  S    
C416  H404  S    
O256  Zn46  S    
C247  H457  S    
C345  O172  S    
C404  H372  S    
C377  H305  S    
C338  H207  S    
C331  O165  S    
C332  H195  S    
C445  O9    A    
C250  C251  S    
C218  H79   S    
C208  O208  S    
O190  Zn8   S    
C254  C255  S    
C295  H100  S    
O52   Zn16  S    
C339  C340  S    
C293  H94   S    
C369  H284  S    
C317  H156  S    
O157  Zn8   S    
C162  O162  S    
C243  H451  S    
C466  O66   A    
C34   C390  S    
C88   C207  A    
C374  O186  S    
C88   C192  A    
C56   C471  S    
C374  H298  S    
C373  H296  S    
C127  O127  S    
O88   Zn8   S    
C28   C450  S    
C428  O262  A    
C32   C148  A    
O285  Zn24  S    
C349  H233  S    
C372  H292  S    
C302  H117  S    
C73   C176  A    
O62   Zn16  S    
O21   Zn35  S    
C120  O120  S    
C418  O208  S    
C201  O30   A    
O90   Zn2   S    
C39   C430  S    
C100  C210  A    
C371  H291  S    
C252  H472  S    
C352  O175  S    
C82   C194  A    
C249  H464  S    
C451  O4    A    
C432  O266  A    
C270  C271  S    
C414  H397  S    
C97   C205  A    
C51   C201  S    
O84   Zn34  S    
C2    O2    A    
C331  H192  S    
C440  C479  S    
C62   C457  S    
C467  O67   A    
C257  O242  A    
C403  C404  S    
C32   C130  A    
C330  H188  S    
C41   C152  A    
C151  O151  S    
C316  H154  S    
C46   O46   A    
C19   C445  S    
C58   C148  A    
C378  O188  S    
C351  H240  S    
C337  O167  S    
C449  O283  A    
C320  H165  S    
C271  H40   S    
C270  H38   S    
C330  H189  S    
O221  Zn15  S    
O91   Zn44  S    
C264  H23   S    
O12   Zn37  S    
O224  Zn17  S    
C74   C172  A    
C258  H8    S    
C422  C424  S    
O94   Zn1   S    
C103  C186  A    
C471  O73   A    
C345  H226  S    
C254  O127  S    
C81   C124  S    
C381  H314  S    
C400  C402  S    
C400  H364  S    
C299  H110  S    
O13   Zn47  S    
C315  H152  S    
C335  O250  A    
C442  O276  A    
C429  O263  A    
O45   Zn32  S    
C414  O206  S    
O112  Zn12  S    
O223  Zn34  S    
C325  H175  S    
C333  H197  S    
C259  C260  S    
C85   C101  S    
C376  C377  S    
O102  Zn4   S    
C418  C419  S    
C265  C266  S    
O72   Zn15  S    
C368  O49   A    
O248  Zn22  S    
C477  O92   A    
C63   C462  S    
C290  O26   A    
C256  H5    S    
C336  H199  S    
C291  H89   S    
O75   Zn23  S    
C366  H278  S    
C442  O286  A    
C27   C182  A    
C48   C346  S    
O250  Zn20  S    
C350  H237  S    
C169  O169  S    
C157  O220  A    
C211  O105  S    
C289  C291  S    
C21   C301  S    
C27   C117  A    
C103  C203  A    
C306  H130  S    
C24   O24   A    
C335  O21   A    
C435  O23   A    
C419  H413  S    
C59   C472  S    
C283  H70   S    
C29   C451  S    
C272  H42   S    
O77   Zn10  S    
C10   C174  A    
C322  C324  S    
O70   Zn46  S    
O87   Zn7   S    
O233  Zn18  S    
O92   Zn4   S    
C405  H376  S    
C305  H127  S    
C106  O106  S    
C334  O211  A    
C63   C160  A    
C269  H36   S    
C110  O110  S    
C311  H142  S    
C450  O5    A    
C54   C134  A    
C372  C373  S    
C16   C122  A    
C242  H449  S    
C296  H104  S    
C67   C164  A    
C18   C177  A    
C272  C273  S    
C144  O144  S    
C40   C138  A    
C267  O133  S    
C215  H459  S    
C337  H203  S    
C266  H30   S    
C318  H160  S    
C232  O116  S    
C111  O111  S    
C228  C229  S    
C124  O226  A    
C396  O197  S    
O265  Zn21  S    
O124  Zn5   S    
C52   C132  A    
C93   C200  A    
C388  H336  S    
C250  H466  S    
C314  C315  S    
C5    C155  A    
C65   C166  A    
C218  H68   S    
C237  O118  S    
C340  H210  S    
C277  H58   S    
C428  C480  S    
C275  H52   S    
O261  Zn25  S    
C50   C165  A    
C94   C187  A    
O113  Zn4   S    
C38   C119  A    
C296  C297  S    
C406  H377  S    
C464  O78   A    
C416  H403  S    
C381  C382  S    
O255  Zn21  S    
O257  Zn20  S    
C76   C458  S    
C298  C299  S    
C247  H458  S    
C21   C172  A    
O238  Zn22  S    
O242  Zn19  S    
C333  C336  S    
O4    Zn36  S    
C49   C133  A    
C377  H306  S    
C265  H27   S    
O179  Zn48  S    
C400  O199  S    
C338  H206  S    
C304  H123  S    
C387  H330  S    
C317  H158  S    
C319  H163  S    
C435  O270  A    
C235  O18   A    
C365  C366  S    
C89   C196  A    
C414  H398  S    
C348  C349  S    
C293  H95   S    
C425  O260  A    
O247  Zn24  S    
C252  H473  S    
C237  H433  S    
C369  H285  S    
C386  H329  S    
C227  H279  S    
C431  O265  A    
O260  Zn26  S    
C23   C441  S    
C80   C186  A    
C437  O231  A    
C374  H297  S    
C434  O25   A    
C360  H262  S    
C421  H416  S    
C349  H234  S    
C211  H112  S    
C421  H417  S    
C123  O123  S    
C74   C184  A    
O281  Zn18  S    
C249  H465  S    
O40   Zn40  S    
C287  O143  S    
C437  O245  A    
O264  Zn20  S    
C274  H49   S    
C58   C138  A    
C95   C206  A    
C456  O104  A    
O275  Zn18  S    
C83   C202  A    
C176  O176  S    
O76   Zn9   S    
C264  H25   S    
O214  Zn4   S    
C43   C129  A    
C364  H274  S    
C423  O34   A    
C393  H347  S    
O212  Zn23  S    
C24   O168  A    
O60   Zn2   S    
O68   Zn23  S    
C287  H81   S    
C270  H37   S    
C294  O147  S    
C47   C335  S    
C179  O41   A    
C45   C156  A    
C139  O139  S    
C258  H7    S    
C60   C140  A    
C23   C126  A    
C322  O161  S    
C340  H213  S    
C91   C470  S    
C311  C313  S    
C229  H335  S    
C216  H24   S    
C345  H227  S    
C22   C173  A    
C415  H399  S    
C23   C134  A    
C368  O253  A    
C213  H426  S    
C381  H315  S    
O66   Zn13  S    
C325  O162  S    
C53   C476  S    
C236  H430  S    
C303  H121  S    
C178  C480  A    
C454  O54   A    
C383  O191  S    
C99   C198  A    
O227  Zn17  S    
C395  H351  S    
C117  O117  S    
C352  H242  S    
C361  H264  S    
C276  C277  S    
O236  Zn20  S    
C354  C355  S    
C283  C284  S    
C380  H310  S    
O69   Zn6   S    
C197  O197  S    
C312  O248  A    
C333  H198  S    
O97   Zn7   S    
C339  O169  S    
C4    C154  A    
C445  O280  A    
C239  C240  S    
C453  O94   A    
C433  O268  A    
C146  O221  A    
C68   C96   S    
C238  H436  S    
C366  H277  S    
C180  O180  S    
C418  H408  S    
C149  O149  S    
C408  H385  S    
C49   C123  A    
C446  O281  A    
C82   C135  S    
C463  O63   A    
C306  H129  S    
C291  H88   S    
C146  O214  A    
C217  H57   S    
C15   C183  A    
C224  O239  A    
C410  H391  S    
C233  H427  S    
C281  O140  S    
C392  O195  S    
C152  O152  S    
O277  Zn30  S    
C252  O126  S    
C140  O140  S    
C41   C106  A    
C297  H105  S    
C343  O171  S    
C396  C397  S    
C441  O287  A    
O240  Zn25  S    
C134  O134  S    
C299  H114  S    
C391  H341  S    
C31   C169  A    
C475  O82   A    
C207  O207  S    
C296  H103  S    
C287  C288  S    
C81   C187  A    
C358  H256  S    
O64   Zn48  S    
O19   Zn40  S    
C54   C142  A    
C219  H90   S    
C150  O150  S    
C318  H159  S    
C147  O147  S    
C226  H235  S    
C248  C249  S    
O237  Zn21  S    
C40   C130  A    
C30   C108  A    
C276  H54   S    
C370  O184  S    
C417  H405  S    
C263  H21   S    
C229  H312  S    
C11   C175  A    
O71   Zn47  S    
C25   C127  A    
C119  O119  S    
O26   Zn39  S    
C232  C233  S    
C54   C474  S    
C304  H125  S    
C320  O160  S    
C305  C306  S    
O6    Zn38  S    
C22   C312  S    
C404  H374  S    
O266  Zn28  S    
C377  H307  S    
C75   C173  A    
C403  H370  S    
C100  C189  A    
C338  H205  S    
O56   Zn13  S    
C84   C200  A    
C85   C192  A    
C104  C185  A    
C35   O219  A    
C71   C467  S    
C382  H318  S    
O47   Zn31  S    
C205  O205  S    
C287  H82   S    
C341  O170  S    
C38   C290  S    
C293  H96   S    
C392  H342  S    
C13   C98   S    
C198  O198  S    
C85   C199  A    
C407  C408  S    
C282  H69   S    
C73   C171  A    
C452  O95   A    
C33   C131  A    
O85   Zn14  S    
C77   C175  A    
C190  O31   A    
C135  O225  A    
C306  H128  S    
C360  H261  S    
C72   C177  A    
C76   C182  A    
C263  O131  S    
C36   C401  S    
C276  H53   S    
C354  H249  S    
C214  C215  S    
C32   C436  S    
O51   Zn37  S    
O33   Zn40  S    
C314  O156  S    
C244  H452  S    
C251  H468  S    
C53   C143  A    
C72   C170  A    
C329  O164  S    
C318  C319  S    
C272  O136  S    
C9    C444  S    
C69   C158  A    
C166  O166  S    
C230  H346  S    
C457  O58   A    
C142  O142  S    
C159  O159  S    
C242  H447  S    
C313  H144  S    
O93   Zn3   S    
C291  H91   S    
C83   C90   S    
O284  Zn22  S    
C15   C121  A    
C362  H269  S    
C364  H273  S    
C399  H363  S    
O168  Zn2   S    
C66   C466  S    
C361  C362  S    
C265  H26   S    
C52   C477  S    
C226  O111  S    
C412  O36   A    
C333  O166  S    
C46   C93   S    
C473  O77   A    
C408  H384  S    
C258  H6    S    
C400  H365  S    
O73   Zn14  S    
C450  O284  A    
C70   C180  A    
O222  Zn16  S    
C47   C158  A    
