data_mof_unit_19472.cif
_audit_creation_date              2013-03-05T15:47:36-0500
_audit_creation_method            fapswitch 2.2
_symmetry_space_group_name_H-M    P1
_symmetry_Int_Tables_number       1
_space_group_crystal_system       triclinic
_cell_length_a                    10.816633
_cell_length_b                    12.973149
_cell_length_c                    11.743901
_cell_angle_alpha                 99.098989
_cell_angle_beta                  93.646503
_cell_angle_gamma                 91.294477
_cell_volume                      1623.04910122

loop_
_atom_site_label
_atom_site_type_symbol
_atom_site_description
_atom_site_fract_x
_atom_site_fract_y
_atom_site_fract_z
_atom_type_partial_charge
O1    O     O_R   0.506570 0.354460 0.582000 -0.518869
O2    O     O_R   0.490940 0.341410 0.386200 -0.598917
C1    C     C_R   0.496159 0.299511 0.479164 0.867340
O3    O     O_R   0.327470 0.506530 0.597920 -0.554835
O4    O     O_R   0.311840 0.493480 0.402120 -0.598327
C2    C     C_R   0.262605 0.507609 0.501473 0.802518
Cu1   Cu    Cu3+1 0.509250 0.507730 0.615930 1.043413
Cu2   Cu    Cu3+1 0.490750 0.492270 0.384070 0.980225
O5    O     O_R   0.509060 0.658590 0.613800 -0.590651
O6    O     O_R   0.493430 0.645540 0.418000 -0.614370
O7    O     O_R   0.688160 0.506520 0.597880 -0.589121
O8    O     O_R   0.672530 0.493470 0.402080 -0.564037
C3    C     C_R   0.504391 0.700274 0.520712 0.734011
C4    C     C_R   0.737275 0.491192 0.499526 0.820199
H1    H     H_    0.098598 0.482645 0.316741 0.191796
C5    C     C_R   0.127874 0.572336 0.716687 -0.189080
H2    H     H_    0.212839 0.618405 0.719830 0.193308
C6    C     C_R   0.075583 0.563301 0.821020 0.353736
C7    C     C_R   0.966172 0.502795 0.817495 -0.219285
H3    H     H_    0.931900 0.485429 0.897217 0.224430
C8    C     C_R   0.903422 0.460756 0.711438 0.303867
C9    C     C_R   0.945966 0.487894 0.607385 -0.016294
C10   C     C_R   0.068923 0.525445 0.609536 0.019793
C11   C     C_R   0.127914 0.513376 0.504017 -0.074478
C12   C     C_R   0.056460 0.490655 0.398810 -0.159377
H4    H     H_    0.875752 0.468479 0.315422 0.215230
C13   C     C_R   0.929174 0.479255 0.397765 -0.121473
C14   C     C_R   0.871956 0.480517 0.501392 -0.075587
C15   C     C_R   0.517462 0.813407 0.531256 -0.203686
C16   C     C_R   0.489928 0.186427 0.467330 -0.050381
C17   C     C_R   0.416366 0.018852 0.361154 0.014568
C18   C     C_R   0.426370 0.127166 0.370979 -0.265785
C19   C     C_R   0.551829 0.137675 0.550394 -0.089628
C20   C     C_R   0.547451 0.028900 0.541179 0.040099
C21   C     C_R   0.466239 0.970126 0.453614 0.134523
C22   C     C_R   0.436460 0.865914 0.463209 -0.060388
C23   C     C_R   0.612718 0.868373 0.606815 -0.058733
C24   C     C_R   0.621424 0.978206 0.617964 -0.055256
H5    H     H_    0.385465 0.165438 0.302656 0.158950
H6    H     H_    0.603439 0.185570 0.622163 0.228398
N1    N     N_R   0.523180 0.519350 0.790130 -0.237427
N2    N     N_R   0.476820 0.480650 0.209890 -0.237913
C25   C     C_R   0.383287 0.397321 0.026327 0.261949
C26   C     C_R   0.396813 0.408328 0.147312 0.011594
C27   C     C_R   0.546638 0.546005 0.155295 0.157216
C28   C     C_R   0.537181 0.538315 0.032721 -0.027125
C29   C     C_R   0.456885 0.461324 0.966365 -0.122112
C30   C     C_R   0.455314 0.450721 0.843041 0.531057
C31   C     C_R   0.596632 0.595700 0.854695 0.072058
C32   C     C_R   0.606264 0.605726 0.975131 -0.199271
H7    H     H_    0.649767 0.648334 0.812492 0.157829
H8    H     H_    0.667648 0.667075 0.022231 0.179812
H9    H     H_    0.340599 0.359757 0.192105 0.157026
C33   C     C_2   0.715504 0.038122 0.701885 0.494092
H10   H     H_    0.713607 0.034282 0.793346 0.133917
O9    O     O_2   0.797344 0.090055 0.668665 -0.451947
N3    N     N_R   0.394069 0.361175 0.774054 0.147868
O10   O     O_R   0.439891 0.269564 0.776139 -0.329584
O11   O     O_R   0.282791 0.367368 0.727500 -0.302152
N4    N     N_R   0.288495 0.325599 0.968684 0.162350
O12   O     O_R   0.293918 0.227324 0.978715 -0.304514
O13   O     O_R   0.183075 0.361622 0.935988 -0.286562
C34   C     C_2   0.632933 0.625103 0.223767 0.444416
H11   H     H_    0.599354 0.699966 0.261812 0.101583
O14   O     O_2   0.743867 0.609995 0.230541 -0.546920
N5    N     N_R   0.137646 0.609253 0.930032 0.152638
O15   O     O_R   0.245115 0.657366 0.933778 -0.346795
O16   O     O_R   0.087150 0.603566 0.026695 -0.315882
N6    N     N_R   0.810858 0.378756 0.708945 0.164242
O17   O     O_R   0.753324 0.369041 0.800895 -0.348521
O18   O     O_R   0.795345 0.305700 0.619148 -0.341853
C35   C     C_2   0.312021 0.817292 0.419867 0.462148
H12   H     H_    0.296735 0.733340 0.402595 0.085382
O19   O     O_2   0.222434 0.871408 0.408938 -0.507099
C36   C     C_2   0.706691 0.809189 0.666968 0.399519
H13   H     H_    0.733776 0.733112 0.625334 0.071069
O20   O     O_2   0.752774 0.842789 0.763638 -0.548802
C37   C     C_2   0.366767 0.960595 0.247707 0.475502
H14   H     H_    0.304116 0.998119 0.192292 0.105715
O21   O     O_2   0.400336 0.872775 0.212190 -0.532344

loop_
_geom_bond_atom_site_label_1
_geom_bond_atom_site_label_2
_geom_bond_distance
_ccdc_geom_bond_type
N5    O16   1.302313 A    
C34   O14   1.219840 D    
C7    H3    1.082508 S    
C36   H13   1.085195 S    
Cu1   Cu2   2.692735 S    
C27   C28   1.424053 A    
Cu1   O7    1.960279 S    
C15   C22   1.407262 A    
H4    C13   1.082177 S    
C3    C15   1.456140 S    
C7    C8    1.403686 A    
Cu2   N2    2.022858 S    
C6    C7    1.399990 A    
O4    C2    1.301704 A    
O7    C4    1.290781 A    
C37   O21   1.221268 D    
N3    O11   1.299503 A    
N4    O13   1.300471 A    
C20   C21   1.420344 A    
C18   H5    1.084831 S    
N6    O18   1.301045 A    
O5    C3    1.292788 A    
C28   C29   1.409887 A    
C26   H9    1.082458 S    
C29   C30   1.431978 A    
C5    H2    1.080310 S    
C31   H7    1.080639 S    
C32   H8    1.081854 S    
C10   C11   1.418107 A    
N5    O15   1.301863 A    
C23   C36   1.495745 S    
C9    C14   1.425344 A    
C8    C9    1.424526 A    
N2    C26   1.354123 A    
O3    Cu1   1.963616 S    
N1    C31   1.355556 A    
C33   O9    1.220605 D    
C19   H6    1.080252 S    
C30   N3    1.429709 S    
C11   C12   1.401379 A    
C35   O19   1.221377 D    
C37   H14   1.085708 S    
C27   C34   1.473482 S    
C8    N6    1.439882 S    
N4    O12   1.301065 A    
O1    C1    1.298519 A    
C21   C22   1.406191 A    
C20   C24   1.416151 A    
C1    C16   1.451199 S    
C25   C26   1.403214 A    
C23   C24   1.410546 A    
C17   C18   1.392761 A    
C24   C33   1.485085 S    
Cu2   O8    1.963615 S    
C2    C11   1.462466 S    
C19   C20   1.397617 A    
C36   O20   1.220257 D    
C25   N4    1.429947 S    
O3    C2    1.296056 A    
O8    C4    1.307924 A    
C5    C10   1.413662 A    
C17   C21   1.423951 A    
C12   C13   1.380471 A    
C17   C37   1.485379 S    
Cu1   O5    1.961285 S    
C33   H10   1.084567 S    
C16   C19   1.389640 A    
O1    Cu1   1.964349 S    
Cu2   O6    1.964349 S    
O2    Cu2   1.961285 S    
C35   H12   1.082782 S    
O6    C3    1.296297 A    
O4    Cu2   1.960279 S    
C6    N5    1.440912 S    
C28   C32   1.415081 A    
O2    C1    1.292993 A    
C16   C18   1.395027 A    
N3    O10   1.301155 A    
N1    C30   1.386058 A    
Cu1   N1    2.023091 S    
N6    O17   1.301627 A    
H1    C12   1.083424 S    
C34   H11   1.083576 S    
C5    C6    1.401981 A    
C31   C32   1.396684 A    
C15   C23   1.416994 A    
C13   C14   1.397976 A    
C9    C10   1.403334 A    
C4    C14   1.465579 S    
C25   C29   1.430183 A    
N2    C27   1.380173 A    
C22   C35   1.497214 S    
