data_mof_unit_40894.cif
_audit_creation_date              2012-10-26T21:06:35-0400
_audit_creation_method            fapswitch 2.2
_symmetry_space_group_name_H-M    P1
_symmetry_Int_Tables_number       1
_space_group_crystal_system       triclinic
_cell_length_a                    15.878459
_cell_length_b                    10.901707
_cell_length_c                    9.554627
_cell_angle_alpha                 91.056746
_cell_angle_beta                  88.481069
_cell_angle_gamma                 92.352424
_cell_volume                      1651.70409716

loop_
_atom_site_label
_atom_site_type_symbol
_atom_type_description
_atom_site_fract_x
_atom_site_fract_y
_atom_site_fract_z
_atom_type_partial_charge
C1    C     C_R   0.497346 0.261872 0.498797 0.565568
C2    C     C_R   0.556157 0.574166 0.071123 0.196994
C3    C     C_R   0.339832 0.499163 0.501984 0.540341
C4    C     C_R   0.660156 0.501664 0.498329 0.564973
C5    C     C_3   0.963624 0.422284 0.589169 0.083195
C6    C     C_3   0.036363 0.601382 0.427161 -0.005873
C7    C     C_3   0.025564 0.402637 0.464906 0.270207
C8    C     C_3   0.973175 0.620040 0.553303 0.246698
C9    C     C_1   0.250194 0.500018 0.508431 0.008346
C10   C     C_1   0.749883 0.506294 0.494428 0.027393
C11   C     C_3   0.020390 0.530517 0.643167 0.254578
C12   C     C_R   0.497891 0.737581 0.501442 0.559291
C13   C     C_3   0.978945 0.491823 0.374489 0.234636
C14   C     C_3   0.083229 0.509127 0.518917 -0.023460
C15   C     C_3   0.917003 0.511668 0.498935 -0.003971
C16   C     C_1   0.174787 0.502601 0.515379 0.015662
C17   C     C_1   0.825421 0.509938 0.493855 0.038561
C18   C     C_R   0.486605 0.057573 0.371685 0.253612
C19   C     C_R   0.483255 0.939076 0.629673 0.247670
C20   C     C_3   0.995202 0.216112 0.352656 0.047087
C21   C     C_3   0.008387 0.080627 0.377609 -0.272857
C22   C     C_3   0.938875 0.999389 0.312030 -0.466335
C23   C     C_R   0.493695 0.931431 0.375770 -0.141317
C24   C     C_3   0.991414 0.816420 0.650723 0.014429
C25   C     C_3   0.943483 0.914683 0.732145 -0.255012
C26   C     C_3   0.002857 0.996548 0.819868 -0.476421
C27   C     C_3   0.956101 0.546033 0.142383 0.028176
C28   C     C_3   0.890371 0.643449 0.168540 -0.256516
C29   C     C_3   0.894695 0.737558 0.052502 -0.465149
C30   C     C_3   0.108233 0.595859 0.828012 -0.017129
C31   C     C_3   0.158445 0.502067 0.903722 -0.239107
C32   C     C_3   0.235466 0.563018 0.972476 -0.459705
C33   C     C_3   0.389733 0.130671 0.224226 0.019832
C34   C     C_R   0.489821 0.066461 0.625659 -0.140420
C35   C     C_3   0.333017 0.013047 0.214915 -0.291536
C36   C     C_3   0.243989 0.043847 0.174727 -0.475676
C37   C     C_3   0.384090 0.843306 0.773451 0.028747
C38   C     C_3   0.325598 0.949973 0.802951 -0.279513
C39   C     C_3   0.235216 0.903339 0.833372 -0.497224
C40   C     C_R   0.492407 0.870872 0.503556 -0.036887
C41   C     C_R   0.491831 0.127384 0.497450 -0.033939
C42   C     C_R   0.442521 0.429844 0.076729 0.027002
C43   C     C_R   0.555546 0.573873 0.923236 0.040650
C44   C     C_R   0.443295 0.426852 0.928782 0.182752
Cu1   Cu    Cu3+1 0.500000 0.500020 0.640660 1.003879
Cu2   Cu    Cu3+1 0.500000 0.499980 0.359340 1.009409
H1    H     H_    0.495654 0.880712 0.277248 0.184774
H2    H     H_    0.948648 0.901929 0.335553 0.196469
H3    H     H_    0.940029 0.010148 0.196587 0.155319
H4    H     H_    0.029187 0.860641 0.565166 0.162208
H5    H     H_    0.034627 0.775269 0.723032 0.148255
H6    H     H_    0.909846 0.971666 0.658188 0.190221
H7    H     H_    0.895357 0.870153 0.802804 0.191992
H8    H     H_    0.037398 0.940552 0.893597 0.134004
H9    H     H_    0.965865 0.063078 0.882602 0.191957
H10   H     H_    0.048899 0.047750 0.750995 0.175007
H11   H     H_    0.943964 0.501801 0.038835 0.216977
H12   H     H_    0.489660 0.117164 0.724147 0.193126
H13   H     H_    0.021127 0.585989 0.134107 0.172661
H14   H     H_    0.826580 0.597795 0.172563 0.206851
H15   H     H_    0.900963 0.691721 0.270130 0.194105
H16   H     H_    0.958206 0.784126 0.047274 0.158623
H17   H     H_    0.847080 0.807742 0.073924 0.174990
H18   H     H_    0.881441 0.691692 0.950186 0.195412
H19   H     H_    0.095075 0.672417 0.902812 0.142375
H20   H     H_    0.146365 0.636661 0.740076 0.116646
H21   H     H_    0.117786 0.457283 0.986054 0.193688
H22   H     H_    0.178669 0.430078 0.827779 0.202876
H23   H     H_    0.395072 0.377466 0.135084 0.113813
H24   H     H_    0.280784 0.598942 0.891194 0.157739
H25   H     H_    0.266734 0.494830 0.035887 0.174421
H26   H     H_    0.216622 0.639303 0.043638 0.171376
H27   H     H_    0.385795 0.176502 0.122538 0.171810
H28   H     H_    0.364833 0.193975 0.306764 0.138069
H29   H     H_    0.359758 0.948600 0.135745 0.180312
H30   H     H_    0.328715 0.967011 0.317754 0.165531
H31   H     H_    0.215294 0.103417 0.256948 0.172638
H32   H     H_    0.204425 0.958235 0.163764 0.184585
H33   H     H_    0.245184 0.092514 0.073617 0.164114
H34   H     H_    0.599566 0.633304 0.865280 0.155517
H35   H     H_    0.379432 0.780683 0.863962 0.157769
H36   H     H_    0.361788 0.788683 0.680911 0.131639
H37   H     H_    0.348917 0.005314 0.893594 0.196719
H38   H     H_    0.325266 0.010214 0.710520 0.178148
H39   H     H_    0.210507 0.850028 0.742074 0.145233
H40   H     H_    0.194748 0.982663 0.853523 0.164279
H41   H     H_    0.232292 0.844558 0.927103 0.148731
H42   H     H_    0.001920 0.233055 0.238441 0.187724
H43   H     H_    0.929631 0.236331 0.388436 0.170649
H44   H     H_    0.070435 0.054890 0.332387 0.185630
H45   H     H_    0.008347 0.065487 0.491982 0.187366
H46   H     H_    0.876104 0.023650 0.355814 0.172498
I1    I     I_    0.903260 0.285217 0.718491 -0.398756
I2    I     I_    0.109152 0.743722 0.320249 -0.611161
I3    I     I_    0.353727 0.301221 0.838625 -0.493388
I4    I     I_    0.645619 0.700169 0.160302 -0.373554
N1    N     N_R   0.500020 0.500030 0.852070 -0.234574
N2    N     N_R   0.499980 0.499970 0.147930 -0.229753
O1    O     O_R   0.500000 0.319660 0.618740 -0.481885
O2    O     O_3   0.933113 0.728686 0.595614 -0.554329
O3    O     O_3   0.948680 0.452848 0.242216 -0.589454
O4    O     O_3   0.029761 0.541681 0.789791 -0.564135
O5    O     O_3   0.476227 0.109119 0.242600 -0.528151
O6    O     O_3   0.469854 0.884282 0.758416 -0.534991
O7    O     O_R   0.500000 0.680340 0.381260 -0.495616
O8    O     O_R   0.499990 0.319630 0.381170 -0.462793
O9    O     O_R   0.500010 0.680370 0.618830 -0.472950
O10   O     O_R   0.379080 0.500000 0.618760 -0.487501
O11   O     O_R   0.620920 0.500000 0.381240 -0.467159
O12   O     O_R   0.379080 0.499970 0.381190 -0.514565
O13   O     O_R   0.620920 0.500030 0.618810 -0.495105
O14   O     O_3   0.057362 0.287938 0.423581 -0.556668

loop_
_geom_bond_atom_site_label_1
_geom_bond_atom_site_label_2
_ccdc_geom_bond_type
C22   H2    S    
C4    O11   A    
C29   H17   S    
C38   H37   S    
C37   O6    S    
C35   C36   S    
C39   H41   S    
C26   H9    S    
C1    O1    A    
C32   H26   S    
Cu1   Cu2   S    
C31   H21   S    
C35   H29   S    
C28   C29   S    
C9    C16   T    
C25   H7    S    
C5    C11   S    
C36   H31   S    
C42   N2    A    
C30   C31   S    
C11   C14   S    
C3    O12   A    
C23   C40   A    
Cu2   O7    S    
C20   H42   S    
C7    O14   S    
C44   N1    A    
C20   O14   S    
C7    C14   S    
C6    I2    S    
Cu1   O10   S    
C1    O8    A    
C28   H15   S    
C24   H5    S    
Cu2   N2    S    
C29   H18   S    
C24   O2    S    
C21   C22   S    
C37   H35   S    
C34   C41   A    
C42   C44   A    
C26   H8    S    
C32   H25   S    
C21   H44   S    
C28   H14   S    
C24   H4    S    
C31   H22   S    
C35   H30   S    
C23   H1    S    
C18   C23   A    
C38   C39   S    
C24   C25   S    
Cu1   O1    S    
C18   C41   A    
C5    C7    S    
C32   H24   S    
C6    C8    S    
C43   H34   S    
C36   H33   S    
C42   H23   S    
C12   C40   S    
C37   C38   S    
C3    C9    S    
C6    C14   S    
C19   O6    S    
C31   C32   S    
C2    C43   A    
C30   O4    S    
C30   H20   S    
C22   H3    S    
C1    C41   S    
C4    O13   A    
C8    C15   S    
C13   C15   S    
C27   H11   S    
C14   C16   S    
C37   H36   S    
C39   H39   S    
C13   O3    S    
C21   H45   S    
C33   H27   S    
C15   C17   S    
C29   H16   S    
C38   H38   S    
C33   O5    S    
C43   N1    A    
C19   C34   A    
C26   H10   S    
C12   O9    A    
C5    I1    S    
Cu1   O13   S    
C3    O10   A    
C20   H43   S    
C36   H32   S    
C2    I4    S    
C25   C26   S    
C25   H6    S    
Cu2   O12   S    
Cu1   N1    S    
C6    C13   S    
C12   O7    A    
C8    C11   S    
Cu2   O8    S    
C33   C35   S    
C27   O3    S    
C11   O4    S    
C18   O5    S    
C8    O2    S    
C5    C15   S    
C30   H19   S    
C19   C40   A    
C33   H28   S    
C7    C13   S    
C20   C21   S    
C2    N2    A    
Cu2   O11   S    
C27   C28   S    
C34   H12   S    
C22   H46   S    
C27   H13   S    
C10   C17   T    
C39   H40   S    
C4    C10   S    
C44   I3    S    
Cu1   O9    S    
