data_mof_unit_32766.cif
_audit_creation_date              2012-12-10T17:40:51-0500
_audit_creation_method            fapswitch 2.2
_symmetry_space_group_name_H-M    P1
_symmetry_Int_Tables_number       1
_space_group_crystal_system       triclinic
_cell_length_a                    14.806343
_cell_length_b                    15.344527
_cell_length_c                    9.907429
_cell_angle_alpha                 92.119079
_cell_angle_beta                  90.955614
_cell_angle_gamma                 89.916271
_cell_volume                      2249.07851773

loop_
_atom_site_label
_atom_site_type_symbol
_atom_type_description
_atom_site_fract_x
_atom_site_fract_y
_atom_site_fract_z
_atom_type_partial_charge
C1    C     C_R   0.384762 0.876022 0.497377 0.846658
C2    C     C_R   0.686737 0.245092 0.399506 -0.206989
C3    C     C_R   0.175332 0.242187 0.431137 -0.210866
C4    C     C_R   0.186668 0.745159 0.399589 -0.207132
C5    C     C_R   0.694723 0.822338 0.495568 -0.104747
C6    C     C_R   0.677348 0.196845 0.515244 -0.143680
C7    C     C_R   0.194645 0.322260 0.495590 -0.104439
C8    C     C_R   0.177353 0.696839 0.515266 -0.143425
C9    C     C_R   0.335200 0.998114 0.136478 -0.156763
C10   C     C_R   0.835200 0.498122 0.136478 -0.156953
C11   C     C_R   0.253739 0.998237 0.064575 -0.201256
C12   C     C_R   0.380885 0.120390 0.501007 0.832195
C13   C     C_R   0.753739 0.498251 0.064575 -0.201329
C14   C     C_R   0.253470 0.000151 0.924968 -0.184410
C15   C     C_R   0.753471 0.500167 0.924969 -0.184318
C16   C     C_R   0.334668 0.001475 0.856409 -0.132743
C17   C     C_R   0.834669 0.501487 0.856409 -0.132770
C18   C     C_R   0.418593 0.000452 0.925859 0.159628
C19   C     C_R   0.918593 0.500461 0.925859 0.159571
C20   C     C_R   0.418715 0.999602 0.070444 0.170281
C21   C     C_R   0.918715 0.499609 0.070444 0.170331
C22   C     C_R   0.577843 0.999518 0.073420 -0.117706
C23   C     C_R   0.884776 0.376009 0.497380 0.846730
C24   C     C_R   0.077843 0.499501 0.073420 -0.117611
C25   C     C_R   0.615340 0.124676 0.504131 0.902097
C26   C     C_R   0.622240 0.882584 0.499088 0.895076
C27   C     C_R   0.115333 0.624681 0.504135 0.902591
C28   C     C_R   0.122220 0.382565 0.499089 0.895403
C29   C     C_R   0.577799 0.998986 0.930260 -0.033865
C30   C     C_R   0.077799 0.498965 0.930260 -0.033826
C31   C     C_R   0.425451 0.285903 0.634686 -0.182432
C32   C     C_R   0.395345 0.736583 0.690259 -0.148802
C33   C     C_R   0.925097 0.785688 0.636064 -0.182669
C34   C     C_R   0.880936 0.620441 0.501014 0.832233
C35   C     C_R   0.895239 0.236658 0.690478 -0.148640
C36   C     C_R   0.446162 0.366282 0.696735 -0.248063
C37   C     C_R   0.385082 0.692689 0.809438 -0.261008
C38   C     C_R   0.945588 0.865925 0.698752 -0.248067
C39   C     C_R   0.884891 0.192842 0.809715 -0.260793
C40   C     C_R   0.885996 0.935199 0.687349 -0.138678
C41   C     C_R   0.799175 0.167396 0.847541 -0.133136
C42   C     C_R   0.386511 0.435518 0.685440 -0.138556
C43   C     C_R   0.299399 0.667191 0.847335 -0.133097
C44   C     C_R   0.805540 0.924924 0.612996 0.422121
C45   C     C_R   0.238079 0.176879 0.433209 -0.207444
C46   C     C_R   0.724776 0.179614 0.761512 0.513162
C47   C     C_R   0.305794 0.425075 0.611786 0.421864
C48   C     C_R   0.224944 0.679448 0.761434 0.512935
C49   C     C_R   0.779506 0.840772 0.559169 -0.025183
C50   C     C_R   0.738616 0.208188 0.627443 0.003027
C51   C     C_R   0.279613 0.340828 0.558531 -0.025199
C52   C     C_R   0.238690 0.708116 0.627395 0.003285
C53   C     C_R   0.341728 0.271753 0.566852 0.060072
C54   C     C_R   0.320500 0.749137 0.602594 0.055744
C55   C     C_R   0.841592 0.771676 0.567538 0.060008
C56   C     C_R   0.257583 0.801731 0.391039 -0.215372
C57   C     C_R   0.820449 0.249178 0.602689 0.055678
C58   C     C_R   0.319232 0.190810 0.502871 -0.055419
C59   C     C_R   0.323774 0.804306 0.492685 -0.090457
C60   C     C_R   0.819302 0.690884 0.502875 -0.055765
C61   C     C_R   0.823796 0.304283 0.492701 -0.090568
C62   C     C_R   0.738387 0.677148 0.432479 -0.207256
C63   C     C_R   0.757664 0.301650 0.390966 -0.215404
C64   C     C_R   0.675643 0.742447 0.430389 -0.210936
H1    H     H_    0.222487 0.114427 0.383398 0.134646
H2    H     H_    0.141379 0.498031 0.877948 0.174392
H3    H     H_    0.475854 0.235480 0.639704 0.151674
H4    H     H_    0.461900 0.760206 0.666540 0.157638
H5    H     H_    0.975514 0.735282 0.641115 0.152198
H6    H     H_    0.961818 0.260245 0.666811 0.157615
H7    H     H_    0.510176 0.375739 0.749651 0.154781
H8    H     H_    0.442509 0.683668 0.876533 0.159501
H9    H     H_    0.009423 0.875265 0.752202 0.154896
H10   H     H_    0.942276 0.183845 0.876904 0.159447
H11   H     H_    0.904742 0.998714 0.730093 0.161825
H12   H     H_    0.260216 0.843828 0.305745 0.162154
H13   H     H_    0.789627 0.142604 0.947240 0.147547
H14   H     H_    0.405377 0.499116 0.727740 0.161955
H15   H     H_    0.289919 0.642338 0.947007 0.147616
H16   H     H_    0.610938 0.730053 0.380346 0.147622
H17   H     H_    0.638749 0.239389 0.315795 0.175257
H18   H     H_    0.110465 0.229675 0.381662 0.147308
H19   H     H_    0.138630 0.739501 0.315940 0.175166
H20   H     H_    0.641457 0.999236 0.128718 0.146985
H21   H     H_    0.141456 0.499206 0.128717 0.146976
H22   H     H_    0.330090 0.996534 0.243371 0.196673
H23   H     H_    0.722953 0.614831 0.382117 0.134923
H24   H     H_    0.830091 0.496532 0.243370 0.196692
H25   H     H_    0.190455 0.997023 0.117693 0.143519
H26   H     H_    0.690455 0.497037 0.117694 0.143539
H27   H     H_    0.745832 0.997032 0.487096 0.313304
H28   H     H_    0.601538 0.218655 0.771316 0.319112
H29   H     H_    0.245757 0.497030 0.486054 0.313437
H30   H     H_    0.101731 0.718518 0.771527 0.319018
H31   H     H_    0.760347 0.343692 0.305607 0.162241
H32   H     H_    0.189936 0.000582 0.869243 0.142522
H33   H     H_    0.689936 0.500600 0.869243 0.142483
H34   H     H_    0.328709 0.003364 0.749398 0.202095
H35   H     H_    0.828710 0.503370 0.749398 0.202141
H36   H     H_    0.641380 0.998073 0.877949 0.174439
N1    N     N_R   0.498810 0.000000 0.142780 -0.123243
N2    N     N_R   0.998810 0.500000 0.142780 -0.123270
N3    N     N_R   0.498740 0.000000 0.857170 -0.119765
N4    N     N_R   0.998740 0.500000 0.857170 -0.119848
O1    O     O_R   0.408390 0.908380 0.614690 -0.642069
O2    O     O_R   0.591620 0.908390 0.614640 -0.595776
O3    O     O_R   0.091620 0.591610 0.614640 -0.559528
O4    O     O_R   0.091620 0.408390 0.614640 -0.595858
O5    O     O_R   0.591610 0.091610 0.385310 -0.621677
O6    O     O_R   0.591610 0.908390 0.385310 -0.624458
O7    O     O_R   0.091610 0.591610 0.385310 -0.621700
O8    O     O_R   0.091610 0.408390 0.385310 -0.624488
O9    O     O_3   0.758893 0.999541 0.585593 -0.781217
O10   O     O_3   0.641137 0.177846 0.819964 -0.772675
O11   O     O_3   0.258975 0.499607 0.584506 -0.781393
O12   O     O_R   0.408390 0.091620 0.614690 -0.644011
O13   O     O_3   0.141349 0.677646 0.820012 -0.772832
O14   O     O_R   0.908390 0.408380 0.614690 -0.642064
O15   O     O_R   0.908390 0.591620 0.614690 -0.644191
O16   O     O_R   0.408370 0.908380 0.385360 -0.641522
O17   O     O_R   0.408370 0.091620 0.385360 -0.629340
O18   O     O_R   0.908370 0.408380 0.385360 -0.641503
O19   O     O_R   0.908370 0.591620 0.385360 -0.629377
O20   O     O_R   0.591620 0.091610 0.614640 -0.559337
Zn1   Zn    Zn3+2 0.500010 0.000000 0.653130 0.966283
Zn2   Zn    Zn3+2 0.000010 0.500000 0.653130 0.966117
Zn3   Zn    Zn3+2 0.499980 0.000000 0.346870 0.936246
Zn4   Zn    Zn3+2 0.999980 0.500000 0.346870 0.936239

loop_
_geom_bond_atom_site_label_1
_geom_bond_atom_site_label_2
_ccdc_geom_bond_type
C44   C49   A    
C33   C55   A    
C34   O19   A    
C56   H12   S    
C22   C29   A    
C13   H26   S    
C36   C42   A    
C4    C8    A    
C26   O2    A    
C23   O14   A    
O16   Zn3   S    
C39   C41   A    
C28   O8    A    
C31   H3    S    
O2    Zn1   S    
C10   H24   S    
C22   N1    A    
C19   C21   A    
O17   Zn3   S    
C3    C7    A    
C1    C59   S    
C41   H13   S    
H30   O13   S    
C6    C25   S    
C43   H15   S    
C63   H31   S    
C29   N3    A    
C60   C62   A    
H29   O11   S    
C39   H10   S    
C14   H32   S    
C61   C63   A    
C62   C64   A    
N1    Zn3   S    
O5    Zn3   S    
C12   O17   A    
C35   H6    S    
C41   C46   A    
C24   H21   S    
C8    C52   A    
C40   C44   A    
C24   N2    A    
C36   H7    S    
C25   O5    A    
O6    Zn3   S    
C32   H4    S    
C12   C58   S    
C27   O7    A    
C55   C60   A    
C4    C56   A    
C34   C60   S    
C64   H16   S    
C5    C49   A    
C2    C6    A    
C15   H33   S    
C32   C54   A    
C52   C54   A    
C23   O18   A    
C54   C59   A    
C10   C21   A    
C45   C58   A    
C46   O10   S    
C17   C19   A    
C47   C51   A    
C20   N1    A    
C49   C55   A    
C3    C45   A    
C6    C50   A    
C7    C28   S    
H27   O9    S    
C5    C64   A    
C51   C53   A    
C1    O16   A    
C22   H20   S    
C37   C43   A    
C35   C39   A    
C9    H22   S    
C9    C11   A    
C19   N4    A    
C11   H25   S    
C9    C20   A    
C27   O3    A    
C3    H18   S    
C30   H2    S    
C32   C37   A    
C31   C53   A    
C17   H35   S    
C47   O11   S    
C21   N2    A    
C44   O9    S    
C42   H14   S    
O12   Zn1   S    
C13   C15   A    
C45   H1    S    
C14   C16   A    
C2    C63   A    
C43   C48   A    
C23   C61   S    
C34   O15   A    
C15   C17   A    
C26   O6    A    
C29   H36   S    
C50   C57   A    
O3    Zn2   S    
C10   C13   A    
C53   C58   A    
C56   C59   A    
C57   C61   A    
C48   O13   S    
C33   H5    S    
C62   H23   S    
C46   C50   A    
N2    Zn4   S    
C33   C38   A    
C40   H11   S    
O1    Zn1   S    
C35   C57   A    
C7    C51   A    
C38   C40   A    
C18   N3    A    
C16   H34   S    
O19   Zn4   S    
C4    H19   S    
C28   O4    A    
C11   C14   A    
C18   C20   A    
C42   C47   A    
O18   Zn4   S    
N3    Zn1   S    
C25   O20   A    
C24   C30   A    
O8    Zn4   S    
C5    C26   S    
O15   Zn2   S    
C48   C52   A    
N4    Zn2   S    
C16   C18   A    
C37   H8    S    
C30   N4    A    
O7    Zn4   S    
C8    C27   S    
C31   C36   A    
C2    H17   S    
O14   Zn2   S    
O4    Zn2   S    
H28   O10   S    
C1    O1    A    
O20   Zn1   S    
C12   O12   A    
C38   H9    S    
