data_mof_unit_6120.cif
_audit_creation_date              2012-10-26T17:11:22-0400
_audit_creation_method            fapswitch 2.2
_symmetry_space_group_name_H-M    P1
_symmetry_Int_Tables_number       1
_space_group_crystal_system       triclinic
_cell_length_a                    27.920904
_cell_length_b                    18.724546
_cell_length_c                    16.864624
_cell_angle_alpha                 90.00002
_cell_angle_beta                  62.570663
_cell_angle_gamma                 90.0
_cell_volume                      7825.72825914

loop_
_atom_site_label
_atom_site_type_symbol
_atom_type_description
_atom_site_fract_x
_atom_site_fract_y
_atom_site_fract_z
_atom_type_partial_charge
C1    C     C_R   0.295010 0.728240 0.329650 0.557755
C2    C     C_R   0.581817 0.000000 0.567831 -0.075927
C3    C     C_R   0.690485 0.713609 0.903820 -0.009224
C4    C     C_R   0.926606 0.903024 0.066531 0.553762
C5    C     C_R   0.073438 0.096913 0.933434 0.556207
C6    C     C_R   0.073438 0.903087 0.933434 0.556208
C7    C     C_R   0.926606 0.096976 0.066531 0.553761
C8    C     C_R   0.426562 0.403087 0.066565 0.556207
C9    C     C_R   0.573394 0.596976 0.933469 0.553762
C10   C     C_R   0.573394 0.403023 0.933469 0.553762
C11   C     C_R   0.426562 0.596913 0.066565 0.556207
C12   C     C_R   0.072772 0.628432 0.425752 0.035403
C13   C     C_R   0.918182 0.500000 0.432169 -0.075927
C14   C     C_R   0.974954 0.371237 0.413633 0.034909
C15   C     C_R   0.974954 0.628763 0.413633 0.034910
C16   C     C_R   0.072772 0.371567 0.425752 0.035403
C17   C     C_R   0.525046 0.128763 0.586367 0.034909
C18   C     C_R   0.427227 0.871568 0.574248 0.035403
C19   C     C_R   0.427228 0.128433 0.574248 0.035403
C20   C     C_R   0.525046 0.871237 0.586367 0.034909
C21   C     C_R   0.053284 0.691759 0.406154 -0.121190
C22   C     C_R   0.004837 0.308022 0.400494 -0.120013
C23   C     C_R   0.004838 0.691978 0.400494 -0.120013
C24   C     C_R   0.113296 0.500000 0.458902 -0.074699
C25   C     C_R   0.053284 0.308241 0.406155 -0.121190
C26   C     C_R   0.495162 0.191978 0.599506 -0.120013
C27   C     C_R   0.446715 0.808241 0.593846 -0.121190
C28   C     C_R   0.446716 0.191759 0.593845 -0.121189
C29   C     C_R   0.495162 0.808022 0.599507 -0.120013
C30   C     C_R   0.995397 0.564663 0.429239 -0.010970
C31   C     C_R   0.044189 0.435392 0.435886 -0.010304
C32   C     C_R   0.044189 0.564608 0.435885 -0.010304
C33   C     C_R   0.995397 0.435337 0.429240 -0.010970
C34   C     C_R   0.455811 0.064608 0.564114 -0.010304
C35   C     C_R   0.574110 0.871640 0.590962 0.378297
C36   C     C_R   0.504603 0.935337 0.570761 -0.010970
C37   C     C_R   0.504603 0.064663 0.570761 -0.010970
C38   C     C_R   0.455811 0.935392 0.564115 -0.010304
C39   C     C_R   0.433190 1.000000 0.555094 -0.029318
C40   C     C_R   0.530715 1.000000 0.568700 -0.029591
C41   C     C_R   0.969285 0.500000 0.431300 -0.029591
C42   C     C_R   0.066810 0.500000 0.444906 -0.029318
C43   C     C_R   0.362473 0.934419 0.537277 0.013164
C44   C     C_R   0.606771 0.065817 0.568868 0.013343
C45   C     C_R   0.606771 0.934183 0.568868 0.013343
C46   C     C_R   0.378700 0.127579 0.568025 0.374942
C47   C     C_R   0.362473 0.065581 0.537277 0.013164
C48   C     C_R   0.893229 0.434183 0.431132 0.013343
C49   C     C_R   0.137527 0.565581 0.462723 0.013163
C50   C     C_R   0.137527 0.434419 0.462723 0.013164
C51   C     C_R   0.893229 0.565817 0.431132 0.013343
C52   C     C_R   0.321813 0.934809 0.507262 -0.012536
C53   C     C_R   0.662302 0.065683 0.550451 -0.009991
C54   C     C_R   0.662302 0.934317 0.550451 -0.009991
C55   C     C_R   0.321813 0.065191 0.507262 -0.012535
C56   C     C_R   0.837698 0.434317 0.449549 -0.009991
C57   C     C_R   0.378700 0.872421 0.568025 0.374942
C58   C     C_R   0.178187 0.565191 0.492738 -0.012536
C59   C     C_R   0.178187 0.434809 0.492738 -0.012535
C60   C     C_R   0.837698 0.565683 0.449549 -0.009991
C61   C     C_R   0.303507 0.000000 0.491355 -0.189372
C62   C     C_R   0.688499 0.000000 0.541686 -0.188044
C63   C     C_R   0.811501 0.500000 0.458313 -0.188044
C64   C     C_R   0.196493 0.500000 0.508645 -0.189372
C65   C     C_R   0.574110 0.128360 0.590962 0.378297
C66   C     C_R   0.121300 0.372421 0.431975 0.374942
C67   C     C_R   0.925890 0.628360 0.409038 0.378297
C68   C     C_R   0.925890 0.371640 0.409038 0.378297
C69   C     C_R   0.704948 0.271685 0.670378 0.559297
C70   C     C_R   0.121300 0.627579 0.431974 0.374942
C71   C     C_R   0.220948 0.767780 0.953171 0.035881
C72   C     C_R   0.779213 0.232452 0.046657 0.031430
C73   C     C_R   0.779213 0.767548 0.046657 0.031430
C74   C     C_R   0.220948 0.232220 0.953171 0.035881
C75   C     C_R   0.720786 0.267548 0.953343 0.031430
C76   C     C_R   0.279052 0.732220 0.046829 0.035881
C77   C     C_R   0.279052 0.267780 0.046829 0.035881
C78   C     C_R   0.720787 0.732452 0.953343 0.031430
C79   C     C_R   0.241362 0.698496 0.947843 -0.103903
C80   C     C_R   0.704948 0.728314 0.670378 0.559296
C81   C     C_R   0.758695 0.301665 0.051926 -0.109665
C82   C     C_R   0.758697 0.698334 0.051923 -0.109665
C83   C     C_R   0.241361 0.301504 0.947844 -0.103903
C84   C     C_R   0.741304 0.198334 0.948074 -0.109665
C85   C     C_R   0.258638 0.801504 0.052157 -0.103903
C86   C     C_R   0.258639 0.198496 0.052156 -0.103903
C87   C     C_R   0.741302 0.801666 0.948077 -0.109665
C88   C     C_R   0.270068 0.680841 0.994351 -0.100804
C89   C     C_R   0.729832 0.319088 0.005595 -0.110641
C90   C     C_R   0.729834 0.680911 0.005592 -0.110642
C91   C     C_R   0.295010 0.271760 0.329650 0.557755
C92   C     C_R   0.270067 0.319159 0.994352 -0.100804
C93   C     C_R   0.770168 0.180912 0.994405 -0.110642
C94   C     C_R   0.229932 0.819159 0.005649 -0.100804
C95   C     C_R   0.229933 0.180841 0.005648 -0.100804
C96   C     C_R   0.770165 0.819089 0.994408 -0.110642
C97   C     C_R   0.144554 0.829584 0.943664 -0.115984
C98   C     C_R   0.855640 0.170718 0.056180 -0.118755
C99   C     C_R   0.855639 0.829283 0.056180 -0.118755
C100  C     C_R   0.144554 0.170416 0.943664 -0.115984
C101  C     C_R   0.644360 0.329282 0.943820 -0.118755
C102  C     C_R   0.795052 0.228314 0.329622 0.559297
C103  C     C_R   0.355446 0.670416 0.056335 -0.115984
C104  C     C_R   0.355446 0.329584 0.056336 -0.115984
C105  C     C_R   0.644361 0.670717 0.943820 -0.118755
C106  C     C_R   0.117809 0.851858 0.895032 -0.011614
C107  C     C_R   0.882341 0.148373 0.104856 -0.014854
C108  C     C_R   0.882340 0.851627 0.104856 -0.014854
C109  C     C_R   0.117809 0.148142 0.895032 -0.011614
C110  C     C_R   0.617659 0.351627 0.895144 -0.014854
C111  C     C_R   0.382191 0.648142 0.104968 -0.011614
C112  C     C_R   0.382191 0.351858 0.104968 -0.011614
C113  C     C_R   0.204990 0.771760 0.670350 0.557755
C114  C     C_R   0.617659 0.648373 0.895144 -0.014854
C115  C     C_R   0.136400 0.829610 0.806900 -0.138256
C116  C     C_R   0.863773 0.170671 0.192974 -0.124359
C117  C     C_R   0.863773 0.829329 0.192974 -0.124360
C118  C     C_R   0.136400 0.170390 0.806900 -0.138256
C119  C     C_R   0.636227 0.329329 0.807025 -0.124359
C120  C     C_R   0.363600 0.670390 0.193100 -0.138256
C121  C     C_R   0.363600 0.329610 0.193100 -0.138256
C122  C     C_R   0.636227 0.670671 0.807025 -0.124360
C123  C     C_R   0.182507 0.787472 0.765839 -0.008980
C124  C     C_R   0.204990 0.228240 0.670350 0.557755
C125  C     C_R   0.817687 0.212862 0.234012 -0.008639
C126  C     C_R   0.817687 0.787137 0.234012 -0.008639
C127  C     C_R   0.182507 0.212528 0.765839 -0.008980
C128  C     C_R   0.682313 0.287137 0.765988 -0.008639
C129  C     C_R   0.317492 0.712528 0.234160 -0.008979
C130  C     C_R   0.317492 0.287472 0.234160 -0.008979
C131  C     C_R   0.682313 0.712863 0.765988 -0.008639
C132  C     C_R   0.209409 0.765476 0.814572 -0.096739
C133  C     C_R   0.790892 0.235036 0.185165 -0.118653
C134  C     C_R   0.790892 0.764963 0.185165 -0.118653
C135  C     C_R   0.795052 0.771685 0.329622 0.559296
C136  C     C_R   0.209409 0.234524 0.814572 -0.096739
C137  C     C_R   0.709108 0.264964 0.814835 -0.118653
C138  C     C_R   0.290591 0.734524 0.185428 -0.096739
C139  C     C_R   0.290591 0.265476 0.185428 -0.096739
C140  C     C_R   0.709108 0.735036 0.814835 -0.118653
C141  C     C_R   0.201597 0.631247 0.509886 0.576545
C142  C     C_R   0.803956 0.368111 0.470431 0.580882
C143  C     C_R   0.803956 0.631889 0.470431 0.580882
C144  C     C_R   0.201597 0.368753 0.509886 0.576544
C145  C     C_R   0.696044 0.131889 0.529569 0.580881
C146  C     C_R   0.386704 0.000000 0.541098 -0.074699
C147  C     C_R   0.298402 0.868753 0.490114 0.576545
C148  C     C_R   0.298403 0.131247 0.490114 0.576545
C149  C     C_R   0.696044 0.868111 0.529569 0.580881
C150  C     C_R   0.190740 0.786810 0.903586 -0.009835
C151  C     C_R   0.809515 0.213609 0.096179 -0.009223
C152  C     C_R   0.809515 0.786391 0.096179 -0.009224
C153  C     C_R   0.190740 0.213189 0.903586 -0.009835
C154  C     C_R   0.690485 0.286391 0.903820 -0.009223
C155  C     C_R   0.309260 0.713189 0.096413 -0.009835
C156  C     C_R   0.309260 0.286810 0.096413 -0.009835
Cu1   Cu    Cu3+1 0.209920 0.785290 0.495070 1.011474
Cu2   Cu    Cu3+1 0.504760 0.500000 0.075850 0.925255
Cu3   Cu    Cu3+1 0.995240 0.000000 0.924150 0.925254
Cu4   Cu    Cu3+1 0.004760 1.000000 0.075850 0.940457
Cu5   Cu    Cu3+1 0.790080 0.214710 0.504930 1.002764
Cu6   Cu    Cu3+1 0.790080 0.785290 0.504930 1.002765
Cu7   Cu    Cu3+1 0.209920 0.214710 0.495070 1.011474
Cu8   Cu    Cu3+1 0.709920 0.285290 0.495070 1.002764
Cu9   Cu    Cu3+1 0.290080 0.714710 0.504930 1.011474
Cu10  Cu    Cu3+1 0.290080 0.285290 0.504930 1.011474
Cu11  Cu    Cu3+1 0.709920 0.714710 0.495070 1.002764
Cu12  Cu    Cu3+1 0.495240 0.500000 0.924150 0.940457
F1    F     F_    0.585657 0.813968 0.627966 -0.631458
F2    F     F_    0.344350 0.183028 0.605918 -0.633771
F3    F     F_    0.344350 0.816972 0.605918 -0.633771
F4    F     F_    0.585657 0.186032 0.627966 -0.631458
F5    F     F_    0.155650 0.316972 0.394082 -0.633771
F6    F     F_    0.914343 0.686032 0.372034 -0.631458
F7    F     F_    0.914343 0.313968 0.372034 -0.631458
F8    F     F_    0.155650 0.683028 0.394081 -0.633771
H1    H     H_    0.509476 0.758003 0.613059 0.170658
H2    H     H_    0.730935 0.000000 0.524717 0.157641
H3    H     H_    0.769065 0.500000 0.475282 0.157641
H4    H     H_    0.226277 0.500000 0.532985 0.155401
H5    H     H_    0.215454 0.873357 0.009634 0.107579
H6    H     H_    0.784709 0.126754 0.990475 0.104655
H7    H     H_    0.784705 0.873247 0.990481 0.104656
H8    H     H_    0.215455 0.126642 0.009632 0.107579
H9    H     H_    0.715291 0.373246 0.009525 0.104655
H10   H     H_    0.284546 0.626642 0.990366 0.107579
H11   H     H_    0.284545 0.373358 0.990367 0.107579
H12   H     H_    0.425056 0.241604 0.603297 0.166042
H13   H     H_    0.715295 0.626753 0.009519 0.104656
H14   H     H_    0.234446 0.657724 0.908715 0.104971
H15   H     H_    0.765642 0.342560 0.090881 0.107759
H16   H     H_    0.765645 0.657438 0.090876 0.107759
H17   H     H_    0.234445 0.342276 0.908717 0.104972
H18   H     H_    0.734358 0.157440 0.909119 0.107759
H19   H     H_    0.265554 0.842275 0.091285 0.104971
H20   H     H_    0.265555 0.157724 0.091283 0.104972
H21   H     H_    0.734355 0.842562 0.909124 0.107759
H22   H     H_    0.130086 0.846494 0.012334 0.133349
H23   H     H_    0.425056 0.758396 0.603298 0.166042
H24   H     H_    0.870070 0.153722 0.987551 0.131354
H25   H     H_    0.870069 0.846279 0.987551 0.131355
H26   H     H_    0.130086 0.153506 0.012333 0.133349
H27   H     H_    0.629930 0.346278 0.012449 0.131354
H28   H     H_    0.369914 0.653506 0.987666 0.133349
H29   H     H_    0.369914 0.346494 0.987667 0.133349
H30   H     H_    0.629931 0.653721 0.012449 0.131355
H31   H     H_    0.116174 0.847526 0.768960 0.155149
H32   H     H_    0.883953 0.152679 0.230958 0.165906
H33   H     H_    0.883953 0.847321 0.230958 0.165906
H34   H     H_    0.509476 0.241997 0.613058 0.170658
H35   H     H_    0.116174 0.152474 0.768960 0.155149
H36   H     H_    0.616047 0.347321 0.769042 0.165907
H37   H     H_    0.383826 0.652474 0.231040 0.155149
H38   H     H_    0.383826 0.347526 0.231040 0.155149
H39   H     H_    0.616047 0.652679 0.769042 0.165906
H40   H     H_    0.246095 0.734240 0.782408 0.154257
H41   H     H_    0.754261 0.266381 0.217272 0.130657
H42   H     H_    0.754261 0.733619 0.217271 0.130658
H43   H     H_    0.246095 0.265760 0.782408 0.154257
H44   H     H_    0.745739 0.233619 0.782728 0.130657
H45   H     H_    0.074944 0.258396 0.396703 0.166042
H46   H     H_    0.253904 0.765760 0.217592 0.154257
H47   H     H_    0.253904 0.234240 0.217591 0.154257
H48   H     H_    0.745739 0.766381 0.782729 0.130658
H49   H     H_    0.990524 0.741997 0.386941 0.170658
H50   H     H_    0.990524 0.258003 0.386942 0.170658
H51   H     H_    0.074944 0.741604 0.396702 0.166041
H52   H     H_    0.273723 1.000000 0.467015 0.155401
O1    O     O_R   0.255040 0.869590 0.478480 -0.530982
O2    O     O_R   0.817950 0.203450 0.375560 -0.482700
O3    O     O_R   0.817950 0.796550 0.375560 -0.482700
O4    O     O_R   0.182050 0.203450 0.624440 -0.527525
O5    O     O_R   0.682050 0.296550 0.624440 -0.482699
O6    O     O_R   0.317950 0.703450 0.375560 -0.527526
O7    O     O_R   0.317950 0.296550 0.375560 -0.527526
O8    O     O_R   0.682050 0.703450 0.624440 -0.482699
O9    O     O_R   0.250530 0.763330 0.367210 -0.467095
O10   O     O_R   0.749470 0.236670 0.632790 -0.528082
O11   O     O_R   0.749470 0.763330 0.632790 -0.528082
O12   O     O_R   0.744960 0.130410 0.521520 -0.531295
O13   O     O_R   0.250530 0.236670 0.367210 -0.467095
O14   O     O_R   0.750530 0.263330 0.367210 -0.528082
O15   O     O_R   0.249470 0.736670 0.632790 -0.467095
O16   O     O_R   0.249470 0.263330 0.632790 -0.467094
O17   O     O_R   0.750530 0.736670 0.367210 -0.528082
O18   O     O_R   0.177260 0.690030 0.513710 -0.440442
O19   O     O_R   0.822740 0.309970 0.486290 -0.436256
O20   O     O_R   0.822740 0.690030 0.486290 -0.436256
O21   O     O_R   0.177260 0.309970 0.513710 -0.440441
O22   O     O_R   0.677260 0.190030 0.513710 -0.436256
O23   O     O_R   0.744960 0.869590 0.521520 -0.531295
O24   O     O_R   0.322740 0.809970 0.486290 -0.440441
O25   O     O_R   0.322740 0.190030 0.486290 -0.440441
O26   O     O_R   0.677260 0.809970 0.513710 -0.436256
O27   O     O_R   0.051640 0.926880 0.885090 -0.511452
O28   O     O_R   0.948360 0.073120 0.114910 -0.508648
O29   O     O_R   0.948360 0.926880 0.114910 -0.508648
O30   O     O_R   0.051640 0.073120 0.885090 -0.511453
O31   O     O_R   0.551640 0.426880 0.885090 -0.508648
O32   O     O_R   0.448360 0.573120 0.114910 -0.511452
O33   O     O_R   0.448360 0.426880 0.114910 -0.511452
O34   O     O_R   0.255040 0.130410 0.478480 -0.530983
O35   O     O_R   0.551640 0.573120 0.885090 -0.508648
O36   O     O_R   0.940620 0.926560 0.986760 -0.515814
O37   O     O_R   0.059380 0.073440 0.013240 -0.512865
O38   O     O_R   0.059380 0.926560 0.013240 -0.512865
O39   O     O_R   0.940620 0.073440 0.986760 -0.515815
O40   O     O_R   0.440620 0.426560 0.986760 -0.512865
O41   O     O_R   0.559380 0.573440 0.013240 -0.515814
O42   O     O_R   0.559380 0.426560 0.013240 -0.515815
O43   O     O_R   0.440620 0.573440 0.986760 -0.512866
O44   O     O_R   0.755040 0.369590 0.478480 -0.531296
O45   O     O_R   0.244960 0.630410 0.521520 -0.530982
O46   O     O_R   0.244960 0.369590 0.521520 -0.530982
O47   O     O_R   0.755040 0.630410 0.478480 -0.531296
O48   O     O_R   0.182050 0.796550 0.624440 -0.527525

loop_
_geom_bond_atom_site_label_1
_geom_bond_atom_site_label_2
_ccdc_geom_bond_type
C100  C153  A    
C5    O37   A    
C31   C42   A    
C132  C150  A    
C133  C151  A    
C74   C83   A    
C102  C125  S    
C14   C33   A    
C19   C46   A    
C3    C105  A    
C16   C31   A    
C119  H36   S    
C9    C114  S    
C1    C129  S    
C52   C61   A    
C77   C156  S    
Cu9   O24   S    
Cu10  O16   S    
C122  H39   S    
C144  O46   A    
C131  C140  A    
C13   C51   A    
C44   C53   A    
C91   O13   A    
Cu3   O36   S    
C113  O15   A    
C97   C150  A    
C132  H40   S    
C124  O16   A    
Cu1   O18   S    
Cu6   O3    S    
C119  C128  A    
C47   C146  A    
C100  C109  A    
C29   H1    S    
C58   C64   A    
Cu12  O40   S    
C113  O48   A    
C23   H49   S    
C109  C118  A    
C21   H51   S    
C147  O24   A    
C92   H11   S    
C115  C123  A    
C127  C136  A    
C85   H19   S    
Cu5   O10   S    
C101  C110  A    
C120  C129  A    
Cu8   O22   S    
C105  C114  A    
C36   C40   A    
C72   C151  S    
C6    C106  S    
C104  H29   S    
C124  O4    A    
C124  C127  S    
C50   C59   A    
Cu11  O47   S    
C35   C45   A    
C15   C30   A    
C139  H47   S    
C16   C25   A    
C82   C90   A    
C76   C155  S    
C106  C115  A    
C8    C112  S    
C18   C38   A    
C11   O32   A    
C136  C153  A    
C147  O1    A    
C58   C141  S    
Cu4   O29   S    
C6    O27   A    
C84   C93   A    
C86   C95   A    
C2    C40   A    
C126  C134  A    
C102  O2    A    
C10   O31   A    
C148  O34   A    
C70   F8    S    
C76   C85   A    
C78   C87   A    
C144  O21   A    
Cu4   O38   S    
C123  C132  A    
C27   C29   A    
C80   O8    A    
C141  O45   A    
C121  C130  A    
Cu1   O48   S    
C71   C79   A    
Cu1   O1    S    
C105  H30   S    
C136  H43   S    
C99   C108  A    
Cu2   O41   S    
Cu12  O31   S    
C37   C40   A    
C60   C143  S    
C38   C39   A    
C75   C84   A    
C71   C150  S    
C138  H46   S    
C67   F6    S    
C91   O7    A    
C143  O20   A    
C39   C146  A    
C53   C62   A    
C69   O5    A    
Cu10  O46   S    
C86   H20   S    
C20   C35   A    
C69   C128  S    
C2    C44   A    
C22   C25   A    
C6    O38   A    
C30   C41   A    
Cu9   O15   S    
C94   H5    S    
C44   C65   A    
C2    C45   A    
C24   C50   A    
C65   F4    S    
C34   C39   A    
C27   H23   S    
Cu7   O4    S    
C101  H27   S    
Cu12  O43   S    
Cu1   Cu9   S    
C104  C112  A    
C140  H48   S    
C1    O9    A    
C120  H37   S    
C46   F2    S    
C118  H35   S    
C83   H17   S    
Cu6   O23   S    
C4    O36   A    
C15   C67   A    
C26   H34   S    
C51   C67   A    
C7    O39   A    
C19   C28   A    
C116  H32   S    
C116  C125  A    
C73   C152  S    
C7    C107  S    
C118  C127  A    
C96   H7    S    
C122  C131  A    
C117  C126  A    
C12   C70   A    
C32   C42   A    
C89   H9    S    
C108  C117  A    
C110  C119  A    
C59   C144  S    
C22   H50   S    
Cu3   O30   S    
C99   C152  A    
C14   C22   A    
C117  H33   S    
C81   C89   A    
C112  C121  A    
Cu6   O11   S    
C55   C148  S    
C101  C154  A    
Cu2   O32   S    
C55   C61   A    
Cu7   O13   S    
C107  C116  A    
C75   C89   A    
C142  O19   A    
C51   C60   A    
C8    O33   A    
C138  C155  A    
C4    O29   A    
C34   C37   A    
C24   C42   A    
C135  O17   A    
Cu3   O27   S    
Cu8   O14   S    
C13   C41   A    
Cu2   Cu12  S    
C78   C90   A    
C4    C108  S    
C80   O11   A    
Cu5   O19   S    
C28   H12   S    
C7    O28   A    
C145  O12   A    
Cu10  O7    S    
Cu10  O25   S    
C103  C111  A    
C103  H28   S    
C9    O41   A    
C100  H26   S    
C69   O10   A    
C72   C81   A    
C56   C142  S    
Cu9   O6    S    
C80   C131  S    
C135  O3    A    
C99   H25   S    
C143  O47   A    
C11   O43   A    
C130  C139  A    
C74   C95   A    
C79   C88   A    
C68   F7    S    
C98   C151  A    
Cu11  O8    S    
C45   C54   A    
C61   H52   S    
C11   C111  S    
Cu7   Cu10  S    
C91   C130  S    
C54   C62   A    
C134  H42   S    
C98   C107  A    
C93   H6    S    
C18   C57   A    
Cu3   Cu4   S    
C113  C123  S    
C1    O6    A    
C134  C152  A    
C53   C145  S    
C48   C68   A    
C72   C93   A    
C103  C155  A    
C126  C135  S    
C49   C70   A    
C21   C23   A    
C35   F1    S    
C16   C66   A    
C87   H21   S    
C73   C82   A    
Cu5   Cu8   S    
C46   C47   A    
C82   H16   S    
C17   C65   A    
Cu2   O42   S    
C98   H24   S    
C33   C41   A    
C121  H38   S    
Cu4   O28   S    
C36   C38   A    
C43   C146  A    
C5    C109  S    
Cu7   O34   S    
C137  C154  A    
C10   C110  S    
Cu6   O20   S    
C43   C52   A    
Cu5   O2    S    
C20   C36   A    
C10   O42   A    
C14   C68   A    
C73   C96   A    
C3    C78   S    
C149  O23   A    
C77   C92   A    
C115  H31   S    
C8    O40   A    
C71   C94   A    
C83   C92   A    
C59   C64   A    
C60   C63   A    
C17   C26   A    
C64   H4    S    
C95   H8    S    
Cu3   O39   S    
C63   H3    S    
C81   H15   S    
C129  C138  A    
C79   H14   S    
C31   C33   A    
C66   F5    S    
C25   H45   S    
C76   C88   A    
Cu1   O9    S    
C88   H10   S    
Cu8   O44   S    
C148  O25   A    
Cu11  O26   S    
C12   C32   A    
C54   C149  S    
C20   C29   A    
C145  O22   A    
Cu7   O21   S    
C84   H18   S    
C43   C57   A    
C149  O26   A    
Cu11  O17   S    
C12   C21   A    
C133  H41   S    
C49   C58   A    
C74   C153  S    
C111  C120  A    
C128  C137  A    
C85   C94   A    
Cu2   O33   S    
C87   C96   A    
C141  O18   A    
C56   C63   A    
C17   C37   A    
C104  C156  A    
C50   C66   A    
C102  O14   A    
C77   C86   A    
C52   C147  S    
Cu5   O12   S    
C97   C106  A    
C47   C55   A    
C125  C133  A    
C24   C49   A    
C48   C56   A    
Cu8   O5    S    
C97   H22   S    
C18   C27   A    
C19   C34   A    
C62   H2    S    
C13   C48   A    
C26   C28   A    
C30   C32   A    
C75   C154  S    
C139  C156  A    
C9    O35   A    
C137  H44   S    
C15   C23   A    
C5    O30   A    
Cu12  O35   S    
C142  O44   A    
Cu6   Cu11  S    
C114  C122  A    
Cu4   O37   S    
C3    C140  A    
Cu9   O45   S    
C57   F3    S    
C90   H13   S    
