data_mof_unit_15944.cif
_audit_creation_date              2012-12-10T19:00:03-0500
_audit_creation_method            fapswitch 2.2
_symmetry_space_group_name_H-M    P1
_symmetry_Int_Tables_number       1
_space_group_crystal_system       triclinic
_cell_length_a                    10.79302
_cell_length_b                    10.692415
_cell_length_c                    9.913071
_cell_angle_alpha                 91.076571
_cell_angle_beta                  91.012822
_cell_angle_gamma                 91.442483
_cell_volume                      1143.24965027

loop_
_atom_site_label
_atom_site_type_symbol
_atom_type_description
_atom_site_fract_x
_atom_site_fract_y
_atom_site_fract_z
_atom_type_partial_charge
C1    C     C_R   0.498787 0.260108 0.499086 0.869778
C2    C     C_R   0.500580 0.739872 0.500793 0.874532
C3    C     C_R   0.873207 0.507171 0.503808 -0.088977
C4    C     C_R   0.127799 0.504842 0.496511 -0.098129
C5    C     C_R   0.942714 0.513587 0.625574 0.002740
C6    C     C_R   0.059999 0.521108 0.376109 -0.002205
C7    C     C_R   0.530292 0.062653 0.381606 -0.146635
C8    C     C_R   0.466767 0.937231 0.617293 -0.141666
C9    C     C_R   0.532234 0.934649 0.382951 -0.166086
C10   C     C_R   0.464914 0.065213 0.616027 -0.176156
C11   C     C_R   0.500588 0.872427 0.500931 -0.051780
C12   C     C_R   0.497254 0.127484 0.498351 -0.042491
C13   C     C_R   0.548506 0.598889 0.075943 -0.109632
C14   C     C_R   0.447511 0.402898 0.924009 -0.071807
C15   C     C_R   0.549135 0.599613 0.932736 0.065162
C16   C     C_R   0.444612 0.403324 0.067413 0.052653
C17   C     C_R   0.260261 0.501980 0.498714 0.891424
C18   C     C_R   0.740145 0.503653 0.501525 0.873317
C19   C     C_R   0.211595 0.756601 0.149040 -0.201927
C20   C     C_R   0.843247 0.555092 0.986958 -0.297994
C21   C     C_R   0.160659 0.700877 0.262166 -0.072035
C22   C     C_R   0.860720 0.498945 0.860166 -0.129317
C23   C     C_R   0.114917 0.576808 0.254865 0.131737
C24   C     C_R   0.900344 0.571672 0.752310 0.123569
C25   C     C_R   0.121676 0.508550 0.133516 -0.223153
C26   C     C_R   0.924985 0.700176 0.773382 -0.216173
C27   C     C_R   0.173827 0.564099 0.020514 -0.106413
C28   C     C_R   0.910144 0.755664 0.900275 -0.081814
C29   C     C_R   0.217557 0.689179 0.026925 0.069325
C30   C     C_R   0.868598 0.683797 0.008288 0.084017
C31   C     C_R   0.933149 0.507268 0.379700 -0.236516
C32   C     C_R   0.068116 0.497095 0.619492 -0.199345
H1    H     H_    0.245461 0.852763 0.156641 0.155017
H2    H     H_    0.809732 0.497815 0.067941 0.145183
H3    H     H_    0.156116 0.754639 0.355607 0.133981
H4    H     H_    0.845267 0.399013 0.846617 0.152928
H5    H     H_    0.087566 0.412478 0.126773 0.148370
H6    H     H_    0.960011 0.756671 0.692128 0.160234
H7    H     H_    0.180457 0.508957 0.928873 0.153964
H8    H     H_    0.930621 0.854823 0.913627 0.180334
H9    H     H_    0.881514 0.507729 0.285698 0.151172
H10   H     H_    0.120383 0.493286 0.713089 0.187110
H11   H     H_    0.556196 0.110528 0.290539 0.187343
H12   H     H_    0.440721 0.889392 0.708166 0.198986
H13   H     H_    0.559240 0.884817 0.292356 0.178454
H14   H     H_    0.437913 0.115042 0.706612 0.171781
H15   H     H_    0.587845 0.677242 0.133922 0.161161
H16   H     H_    0.403707 0.326911 0.865705 0.168492
N1    N     N_R   0.499970 0.499970 0.857200 -0.132744
N2    N     N_R   0.500030 0.500030 0.142800 -0.142238
O1    O     O_R   0.499990 0.316750 0.614620 -0.629221
O2    O     O_R   0.500010 0.683250 0.385380 -0.632975
O3    O     O_R   0.499990 0.316780 0.385290 -0.646932
O4    O     O_R   0.500010 0.683220 0.614710 -0.621696
O5    O     O_R   0.316760 0.500000 0.614660 -0.580368
O6    O     O_R   0.683240 0.500000 0.385340 -0.630717
O7    O     O_R   0.316760 0.500020 0.385330 -0.642499
O8    O     O_R   0.683240 0.499980 0.614670 -0.636644
Zn1   Zn    Zn3+2 0.500000 0.499980 0.653120 0.969150
Zn2   Zn    Zn3+2 0.500000 0.500020 0.346880 0.935042
C33   C     C_2   0.268185 0.751609 0.907544 0.359709
H17   H     H_    0.306817 0.846155 0.917026 0.092347
O9    O     O_2   0.266328 0.699263 0.797116 -0.578622
C34   C     C_2   0.847636 0.743302 0.141519 0.390412
H18   H     H_    0.802314 0.691228 0.220038 0.053609
O10   O     O_2   0.879544 0.852024 0.164984 -0.565951
C35   C     C_2   0.607542 0.707890 0.867645 0.413903
H19   H     H_    0.659479 0.695016 0.776553 0.123481
O11   O     O_2   0.602527 0.812630 0.918244 -0.609233
C36   C     C_2   0.372676 0.302837 0.132574 0.380080
H20   H     H_    0.329589 0.319467 0.228415 0.130338
O12   O     O_2   0.357117 0.200425 0.077384 -0.610745

loop_
_geom_bond_atom_site_label_1
_geom_bond_atom_site_label_2
_ccdc_geom_bond_type
C10   H14   S    
C14   H16   S    
C28   H8    S    
C9    H13   S    
C36   H20   S    
C21   H3    S    
C30   C34   S    
C27   C29   A    
C22   H4    S    
C17   O5    A    
C26   C28   A    
N1    Zn1   S    
C18   O6    A    
C9    C11   A    
C5    C32   A    
N2    Zn2   S    
C34   H18   S    
C3    C5    A    
C28   C30   A    
C6    C31   A    
C15   C35   S    
C29   C33   S    
C20   C30   A    
C15   N1    A    
C3    C31   A    
C1    O1    A    
C8    H12   S    
C4    C32   A    
C1    C12   S    
C2    O2    A    
O2    Zn2   S    
C8    C11   A    
C6    C23   S    
C10   C12   A    
C22   C24   A    
C4    C6    A    
C19   C21   A    
O3    Zn2   S    
C20   C22   A    
O5    Zn1   S    
O4    Zn1   S    
C13   C15   A    
C21   C23   A    
C19   H1    S    
C33   H17   S    
C16   N2    A    
C14   C16   A    
C7    C12   A    
C14   N1    A    
O1    Zn1   S    
C2    C11   S    
C27   H7    S    
C35   H19   S    
C19   C29   A    
O6    Zn2   S    
C23   C25   A    
C16   C36   S    
C3    C18   S    
C8    C10   A    
C1    O3    A    
C2    O4    A    
C20   H2    S    
C17   O7    A    
C7    H11   S    
C13   H15   S    
C32   H10   S    
C5    C24   S    
O7    Zn2   S    
C36   O12   D    
C34   O10   D    
C31   H9    S    
C25   H5    S    
O8    Zn1   S    
C25   C27   A    
C18   O8    A    
C33   O9    D    
C26   H6    S    
C13   N2    A    
C24   C26   A    
C35   O11   D    
C7    C9    A    
C4    C17   S    
