data_mof_unit_5059.cif
_audit_creation_date              2012-12-10T18:21:48-0500
_audit_creation_method            fapswitch 2.2
_symmetry_space_group_name_H-M    P1
_symmetry_Int_Tables_number       1
_space_group_crystal_system       triclinic
_cell_length_a                    19.329628
_cell_length_b                    10.625418
_cell_length_c                    9.415218
_cell_angle_alpha                 90.096913
_cell_angle_beta                  91.211217
_cell_angle_gamma                 89.819226
_cell_volume                      1933.30385715

loop_
_atom_site_label
_atom_site_type_symbol
_atom_type_description
_atom_site_fract_x
_atom_site_fract_y
_atom_site_fract_z
_atom_type_partial_charge
C1    C     C_R   0.500330 0.259401 0.499804 0.766567
C2    C     C_R   0.499845 0.740641 0.500251 0.850331
C3    C     C_3   0.557848 0.041509 0.567795 -0.158104
C4    C     C_3   0.442863 0.958773 0.432745 -0.166935
C5    C     C_3   0.556546 0.957268 0.433620 -0.134714
C6    C     C_3   0.444179 0.042869 0.566902 -0.159451
C7    C     C_3   0.500085 0.877648 0.501016 0.019037
C8    C     C_3   0.500560 0.122468 0.499378 0.019934
C9    C     C_3   0.501425 0.959570 0.635377 -0.142842
C10   C     C_3   0.499284 0.040559 0.365108 -0.163522
C11   C     C_3   0.469513 0.599360 0.049195 -0.017778
C12   C     C_3   0.530568 0.400582 0.950631 -0.061992
C13   C     C_3   0.437579 0.501876 0.946592 0.022062
C14   C     C_3   0.562483 0.498136 0.053242 0.007685
C15   C     C_3   0.531957 0.597477 0.951041 -0.016771
C16   C     C_3   0.468031 0.402458 0.048907 -0.024216
C17   C     C_R   0.367144 0.501222 0.498585 0.847365
C18   C     C_R   0.632566 0.502102 0.501441 0.862112
C19   C     C_R   0.258210 0.448841 0.619130 -0.232958
C20   C     C_R   0.741772 0.428596 0.397745 -0.241673
C21   C     C_R   0.186585 0.435760 0.623326 -0.121028
C22   C     C_R   0.813459 0.414851 0.399329 -0.121292
C23   C     C_R   0.145422 0.466397 0.504449 -0.025958
C24   C     C_R   0.853674 0.468393 0.508922 -0.022288
C25   C     C_R   0.176550 0.513551 0.382934 -0.207513
C26   C     C_R   0.821406 0.538782 0.614678 -0.205482
C27   C     C_R   0.248129 0.531867 0.378543 0.448943
C28   C     C_R   0.749652 0.557006 0.611994 0.444008
C29   C     C_R   0.290409 0.495533 0.497161 -0.168581
C30   C     C_R   0.708827 0.497779 0.504335 -0.161078
C31   C     C_R   0.929519 0.457094 0.509641 0.436673
C32   C     C_R   0.069681 0.455625 0.507794 0.436104
Cu1   Cu    Cu3+1 0.500020 0.499990 0.643150 0.979033
Cu2   Cu    Cu3+1 0.499980 0.500010 0.356850 0.990151
H1    H     H_    0.288551 0.420665 0.711808 0.176901
H2    H     H_    0.711825 0.383055 0.313865 0.167676
H3    H     H_    0.558047 0.680470 0.905270 0.155207
H4    H     H_    0.440956 0.320539 0.094907 0.132089
H5    H     H_    0.163495 0.399736 0.718817 0.175227
H6    H     H_    0.837346 0.360705 0.315925 0.171247
H7    H     H_    0.144340 0.539843 0.292239 0.203684
H8    H     H_    0.852631 0.582981 0.697416 0.201947
H9    H     H_    0.602504 0.919025 0.379260 0.156446
H10   H     H_    0.398226 0.081012 0.621373 0.139662
H11   H     H_    0.604880 0.078454 0.623008 0.143067
H12   H     H_    0.395534 0.923259 0.377858 0.170297
H13   H     H_    0.502340 0.923803 0.746145 0.132350
H14   H     H_    0.498392 0.076192 0.254288 0.139322
H15   H     H_    0.385015 0.503731 0.897022 0.160783
H16   H     H_    0.615244 0.496377 0.102022 0.157644
H17   H     H_    0.444773 0.684054 0.094839 0.148960
H18   H     H_    0.556424 0.317068 0.904284 0.130089
N1    N     N_R   0.032221 0.440574 0.385370 -0.218296
N2    N     N_R   0.966972 0.470398 0.632403 -0.216946
N3    N     N_R   0.963434 0.440753 0.386308 -0.215892
N4    N     N_R   0.035804 0.469194 0.631623 -0.211855
N5    N     N_3   0.500050 0.499970 0.858290 -0.175989
N6    N     N_3   0.499950 0.500030 0.141710 -0.170074
O1    O     O_R   0.500030 0.316850 0.620870 -0.593270
O2    O     O_R   0.499970 0.683150 0.379130 -0.574260
O3    O     O_R   0.500000 0.316860 0.379090 -0.595773
O4    O     O_R   0.500000 0.683140 0.620910 -0.577524
O5    O     O_R   0.400160 0.499980 0.620930 -0.609411
O6    O     O_R   0.599840 0.500020 0.379070 -0.604624
O7    O     O_R   0.400130 0.499990 0.379150 -0.493119
O8    O     O_R   0.599870 0.500010 0.620850 -0.511421
S1    S     S_3+6 0.280516 0.604923 0.224997 -0.013624
O9    O     O_2   0.313773 0.506305 0.134672 -0.319488
O10   O     O_2   0.222681 0.666131 0.140711 -0.296410
O11   O     O_3   0.338973 0.714991 0.271984 -0.570033
H19   H     H_    0.338942 0.775254 0.191780 0.352942
S2    S     S_3+6 0.714630 0.659655 0.740370 -0.010151
O12   O     O_2   0.686425 0.582215 0.858989 -0.320838
O13   O     O_2   0.770002 0.745197 0.799480 -0.283506
O14   O     O_3   0.651051 0.747756 0.666638 -0.565873
H20   H     H_    0.637649 0.807670 0.741996 0.357010

loop_
_geom_bond_atom_site_label_1
_geom_bond_atom_site_label_2
_ccdc_geom_bond_type
C27   C29   A    
C1    C8    S    
C17   C29   S    
C2    C7    S    
C6    C9    S    
C4    H12   S    
C19   C21   A    
C24   C26   A    
C1    O1    A    
C2    O2    A    
C13   N5    S    
C15   H3    S    
C11   C15   S    
C12   C16   S    
Cu1   O4    S    
O11   H19   S    
C18   C30   S    
S2    O14   S    
C5    H9    S    
Cu1   O1    S    
C6    H10   S    
Cu2   O2    S    
C15   N5    S    
C28   S2    S    
C4    C7    S    
Cu2   O7    S    
C12   H18   S    
Cu1   O8    S    
N1    N3    A    
C14   N6    S    
N2    N4    A    
S1    O9    D    
C11   H17   S    
C4    C6    S    
C3    C8    S    
C25   H7    S    
C5    C7    S    
C6    C8    S    
C3    H11   S    
Cu2   O3    S    
S1    O10   D    
O14   H20   S    
C20   C30   A    
C3    C9    S    
C21   H5    S    
Cu1   O5    S    
C22   H6    S    
Cu2   O6    S    
Cu1   Cu2   S    
C16   N6    S    
C13   H15   S    
C12   N5    S    
S2    O13   D    
C20   C22   A    
C9    H13   S    
C21   C23   A    
C10   H14   S    
C22   C24   A    
C18   O8    A    
C4    C10   S    
C11   N6    S    
C32   N1    A    
C26   H8    S    
C7    C9    S    
Cu1   N5    S    
C26   C28   A    
C12   C14   S    
S2    O12   D    
C3    C5    S    
C1    O3    A    
C25   C27   A    
C17   O7    A    
S1    O11   S    
C23   C32   S    
C28   C30   A    
C24   C31   S    
C5    C10   S    
C19   H1    S    
C17   O5    A    
C11   C13   S    
C18   O6    A    
C14   H16   S    
C23   C25   A    
C31   N2    A    
C27   S1    S    
C20   H2    S    
C8    C10   S    
C13   C16   S    
Cu2   N6    S    
C14   C15   S    
C31   N3    A    
C32   N4    A    
C2    O4    A    
C16   H4    S    
C19   C29   A    
