data_mof_unit_62304.cif
_audit_creation_date              2013-03-05T16:46:18-0500
_audit_creation_method            fapswitch 2.2
_symmetry_space_group_name_H-M    P1
_symmetry_Int_Tables_number       1
_space_group_crystal_system       triclinic
_cell_length_a                    15.974308
_cell_length_b                    17.104708
_cell_length_c                    23.584879
_cell_angle_alpha                 92.599345
_cell_angle_beta                  91.862891
_cell_angle_gamma                 95.816315
_cell_volume                      6399.99803787

loop_
_atom_site_label
_atom_site_type_symbol
_atom_site_description
_atom_site_fract_x
_atom_site_fract_y
_atom_site_fract_z
_atom_type_partial_charge
O1    O     O_R   0.420530 0.382500 0.497430 -0.531295
O2    O     O_R   0.579470 0.617500 0.502570 -0.539148
O3    O     O_R   0.563720 0.388950 0.502070 -0.539662
O4    O     O_R   0.436280 0.611050 0.497930 -0.529641
C1    C     C_R   0.489889 0.348301 0.501312 0.903100
C2    C     C_R   0.509825 0.651389 0.497971 0.910635
O5    O     O_R   0.428390 0.496750 0.415560 -0.539626
O6    O     O_R   0.571610 0.503250 0.584440 -0.567352
O7    O     O_R   0.571580 0.503200 0.420200 -0.564309
O8    O     O_R   0.428420 0.496800 0.579800 -0.537715
C3    C     C_R   0.500829 0.498975 0.391206 0.901413
C4    C     C_R   0.500025 0.501190 0.608862 0.888975
Cu1   Cu    Cu3+1 0.415220 0.496180 0.497250 1.154853
Cu2   Cu    Cu3+1 0.584780 0.503820 0.502750 1.125102
C5    C     C_R   0.542323 0.571770 0.884431 0.699987
C6    C     C_R   0.538748 0.434945 0.117584 0.698072
N1    N     N_R   0.517359 0.503652 0.852879 -0.446352
N2    N     N_R   0.521651 0.500889 0.148450 -0.445212
C7    C     C_R   0.497284 0.434720 0.879116 0.695022
C8    C     C_R   0.508658 0.568382 0.121745 0.698136
C9    C     C_R   0.511580 0.431160 0.938193 -0.141549
C10   C     C_R   0.521591 0.573313 0.063102 -0.142733
C11   C     C_R   0.523208 0.502797 0.970889 -0.065377
C12   C     C_R   0.524320 0.502379 0.030611 -0.065998
C13   C     C_R   0.533737 0.574798 0.943783 -0.146166
C14   C     C_R   0.528160 0.431062 0.057917 -0.144857
C15   C     C_R   0.512429 0.359129 0.965455 0.248751
C16   C     C_R   0.529156 0.645762 0.035950 0.249856
C17   C     C_R   0.523165 0.359268 0.024968 0.248480
C18   C     C_R   0.537546 0.646556 0.976694 0.246652
O9    O     O_2   0.576404 0.635409 0.858499 -0.398900
O10   O     O_2   0.566617 0.374241 0.144601 -0.405604
O11   O     O_2   0.462856 0.370546 0.848167 -0.414355
O12   O     O_2   0.482128 0.629619 0.151722 -0.415969
C19   C     C_R   0.567056 0.556354 0.244848 0.319939
C20   C     C_R   0.556993 0.450898 0.758989 0.325315
C21   C     C_R   0.556943 0.558807 0.303905 -0.198221
C22   C     C_R   0.546805 0.446543 0.699454 -0.207116
C23   C     C_R   0.505189 0.498742 0.328768 -0.212983
C24   C     C_R   0.502345 0.501943 0.671588 -0.221137
C25   C     C_R   0.463190 0.436139 0.294221 0.235385
C26   C     C_R   0.467041 0.561366 0.703800 0.241299
C27   C     C_R   0.463407 0.440468 0.234540 0.243492
C28   C     C_R   0.466186 0.557780 0.763549 0.243330
C29   C     C_R   0.517179 0.499350 0.209697 0.064421
C30   C     C_R   0.513251 0.504000 0.791384 0.064964
C31   C     C_R   0.483212 0.260683 0.501314 -0.276998
C32   C     C_R   0.510787 0.737859 0.493082 -0.272121
C33   C     C_R   0.550671 0.218177 0.483598 0.272453
C34   C     C_R   0.440270 0.767178 0.466366 0.249924
C35   C     C_R   0.535692 0.136651 0.471182 -0.197980
C36   C     C_R   0.428795 0.847515 0.472436 -0.209844
C37   C     C_R   0.456379 0.096325 0.479931 0.164150
C38   C     C_R   0.490719 0.900289 0.502499 0.160520
C39   C     C_R   0.391726 0.136588 0.502139 0.258879
C40   C     C_R   0.563865 0.872025 0.524941 0.233906
C41   C     C_R   0.405146 0.218410 0.513779 0.195398
C42   C     C_R   0.574695 0.791450 0.519850 0.192838
N3    N     N_2   0.445254 0.013395 0.472351 -0.188049
N4    N     N_2   0.486552 0.982852 0.509510 -0.146241
N5    N     N_R   0.712130 0.509560 0.506880 -0.292534
N6    N     N_R   0.287870 0.490440 0.493120 -0.296934
C43   C     C_R   0.753948 0.477490 0.462232 0.414345
C44   C     C_R   0.247110 0.533189 0.532471 0.418657
C45   C     C_R   0.841224 0.468819 0.466361 -0.289202
C46   C     C_R   0.158928 0.537571 0.528353 -0.284564
C47   C     C_R   0.890244 0.499954 0.514406 0.166388
C48   C     C_R   0.109907 0.495378 0.484143 0.169144
C49   C     C_R   0.848010 0.533521 0.559185 0.153504
C50   C     C_R   0.152287 0.453043 0.443756 0.163389
C51   C     C_R   0.759442 0.536987 0.555282 0.356537
C52   C     C_R   0.240706 0.450432 0.449207 0.366305
N7    N     N_2   0.979986 0.496375 0.521106 -0.143280
N8    N     N_2   0.020312 0.498083 0.476400 -0.157534
N9    N     N_R   0.507476 0.285596 0.933100 0.193737
O13   O     O_R   0.567088 0.271377 0.898970 -0.179742
O14   O     O_R   0.448449 0.229865 0.942147 -0.187120
N10   N     N_R   0.533278 0.719250 0.068302 0.192647
O15   O     O_R   0.595795 0.739300 0.104519 -0.185668
O16   O     O_R   0.479613 0.769484 0.057525 -0.191101
N11   N     N_R   0.340042 0.257870 0.540030 0.183626
O17   O     O_R   0.263502 0.249084 0.518381 -0.217099
O18   O     O_R   0.356398 0.299665 0.587317 -0.306362
N12   N     N_R   0.650017 0.765029 0.543423 0.195562
O19   O     O_R   0.673858 0.785746 0.595727 -0.171560
O20   O     O_R   0.703906 0.737555 0.509536 -0.263900
N13   N     N_R   0.293190 0.573954 0.579236 0.152887
O21   O     O_R   0.318104 0.648266 0.575561 -0.270056
O22   O     O_R   0.283138 0.545746 0.629139 -0.290408
N14   N     N_R   0.710837 0.452728 0.409425 0.142602
O23   O     O_R   0.664874 0.385551 0.404281 -0.251648
O24   O     O_R   0.731363 0.489128 0.363837 -0.328763
C53   C     C_1   0.121640 0.590792 0.567283 0.516716
N15   N     N_1   0.092453 0.633802 0.598376 -0.086557
C54   C     C_1   0.876406 0.420720 0.422943 0.523628
N16   N     N_1   0.903236 0.381445 0.388177 -0.078505
N17   N     N_R   0.895187 0.564303 0.609614 0.175371
O25   O     O_R   0.944727 0.521015 0.636096 -0.243887
O26   O     O_R   0.887208 0.635015 0.630026 -0.200404
N18   N     N_R   0.105904 0.414171 0.395674 0.172192
O27   O     O_R   0.066631 0.455123 0.360205 -0.245979
O28   O     O_R   0.109906 0.339588 0.384047 -0.201182
N19   N     N_R   0.720216 0.566055 0.604434 0.175423
O29   O     O_R   0.730708 0.534482 0.653010 -0.282567
O30   O     O_R   0.682578 0.629636 0.602650 -0.219701
N20   N     N_R   0.280821 0.410238 0.405388 0.178039
O31   O     O_R   0.275261 0.434581 0.354065 -0.253452
O32   O     O_R   0.299957 0.339296 0.412994 -0.230559
N21   N     N_R   0.524513 0.285543 0.051415 0.194170
O33   O     O_R   0.583561 0.240675 0.040259 -0.189851
O34   O     O_R   0.460827 0.258645 0.080370 -0.177222
N22   N     N_R   0.545456 0.720718 0.950314 0.195253
O35   O     O_R   0.609452 0.772259 0.963653 -0.186541
O36   O     O_R   0.483611 0.740543 0.918637 -0.175422
N23   N     N_R   0.629693 0.609977 0.220414 0.162013
O37   O     O_R   0.681595 0.583698 0.184503 -0.264925
O38   O     O_R   0.633932 0.685230 0.232782 -0.231135
N24   N     N_R   0.613914 0.403452 0.786789 0.162656
O39   O     O_R   0.669318 0.435565 0.824789 -0.259767
O40   O     O_R   0.609553 0.327988 0.775276 -0.221136
C55   C     C_1   0.602379 0.621754 0.339325 0.472601
N25   N     N_1   0.638520 0.671916 0.367704 -0.166550
C56   C     C_1   0.584922 0.386560 0.666841 0.457141
N26   N     N_1   0.615281 0.338575 0.640868 -0.137110
N27   N     N_R   0.426753 0.365993 0.319548 0.182481
O41   O     O_R   0.467819 0.335724 0.360271 -0.315168
O42   O     O_R   0.357665 0.327153 0.298434 -0.159271
N28   N     N_R   0.438867 0.628215 0.676431 0.189418
O43   O     O_R   0.484492 0.662502 0.638162 -0.300129
O44   O     O_R   0.373238 0.660550 0.693572 -0.167180
N29   N     N_R   0.410297 0.384586 0.198761 0.179804
O45   O     O_R   0.356885 0.409065 0.162483 -0.262790
O46   O     O_R   0.421911 0.310321 0.197609 -0.166566
N30   N     N_R   0.418975 0.609424 0.796417 0.177974
O47   O     O_R   0.361839 0.580245 0.829867 -0.263425
O48   O     O_R   0.439009 0.685165 0.797796 -0.159856
N31   N     N_R   0.381197 0.715396 0.431287 0.150136
O49   O     O_R   0.407497 0.674341 0.388883 -0.342365
O50   O     O_R   0.301790 0.706935 0.442883 -0.299051
N32   N     N_R   0.635093 0.255906 0.480999 0.167688
O51   O     O_R   0.673142 0.288002 0.527178 -0.298120
O52   O     O_R   0.680082 0.241989 0.437338 -0.268174
C57   C     C_1   0.353224 0.873612 0.447222 0.512069
N33   N     N_1   0.292637 0.893583 0.426699 -0.097106
C58   C     C_1   0.602832 0.092569 0.451310 0.502836
N34   N     N_1   0.656284 0.057197 0.435468 -0.127769
N35   N     N_R   0.313955 0.093431 0.516032 0.182681
O53   O     O_R   0.286208 0.099282 0.567157 -0.207338
O54   O     O_R   0.270830 0.047751 0.477662 -0.250576
N36   N     N_R   0.629670 0.926679 0.551263 0.173057
O55   O     O_R   0.706403 0.927750 0.534179 -0.221509
O56   O     O_R   0.612751 0.977035 0.591227 -0.229098

loop_
_geom_bond_atom_site_label_1
_geom_bond_atom_site_label_2
_geom_bond_distance
_ccdc_geom_bond_type
C46   C48   1.409021 A    
N13   O21   1.300485 A    
C43   C45   1.417611 A    
C53   N15   1.157237 T    
C15   C17   1.408368 A    
N23   O38   1.301347 A    
N7    N8    1.253269 D    
C54   N16   1.156953 T    
O7    Cu2   1.950925 S    
N28   O43   1.301497 A    
N22   O36   1.300796 A    
C58   N34   1.157457 T    
C37   N3    1.414042 S    
C34   N31   1.439741 S    
C56   N26   1.156925 T    
C23   C25   1.414333 A    
C38   N4    1.422930 S    
O5    C3    1.306397 A    
C1    C31   1.491655 S    
C2    C32   1.487309 S    
O1    C1    1.306818 A    
C17   N21   1.433786 S    
N35   O54   1.300105 A    
C12   C14   1.410817 A    
N21   O34   1.300710 A    
N10   O16   1.301050 A    
C5    C13   1.410060 A    
N20   O31   1.301009 A    
C35   C58   1.450171 S    
C48   N8    1.442604 S    
N23   O37   1.301316 A    
N9    O14   1.301029 A    
N5    C43   1.386931 A    
O4    Cu1   1.958764 S    
C49   C51   1.422228 A    
N24   O39   1.301333 A    
N6    C44   1.376304 A    
N29   O46   1.301451 A    
N11   O18   1.301543 A    
N14   O24   1.301326 A    
Cu1   N6    2.025680 S    
N35   O53   1.301215 A    
C50   N18   1.433242 S    
C45   C47   1.408486 A    
N13   O22   1.300739 A    
C34   C36   1.406146 A    
C11   C12   1.408422 A    
C19   N23   1.440120 S    
C47   N7    1.444918 S    
C20   N24   1.440254 S    
C44   N13   1.420538 S    
C22   C56   1.449333 S    
C26   N28   1.441888 S    
C8    O12   1.348660 S    
N5    C51   1.384874 A    
C24   C26   1.415019 A    
C9    C15   1.416431 A    
N3    N4    1.244977 D    
C10   C16   1.416678 A    
Cu1   Cu2   2.697096 S    
C6    C14   1.409665 A    
C25   C27   1.412962 A    
O2    C2    1.309219 A    
C26   C28   1.413746 A    
C15   N9    1.435040 S    
N22   O35   1.300978 A    
N17   O26   1.301286 A    
C36   C38   1.418244 A    
N17   O25   1.301221 A    
C37   C39   1.400674 A    
C28   N30   1.435584 S    
C38   C40   1.405931 A    
C36   C57   1.448048 S    
C25   N27   1.442667 S    
N12   O19   1.301845 A    
C31   C33   1.423003 A    
C7    O11   1.348720 S    
N10   O15   1.301179 A    
N30   O48   1.301289 A    
C28   C30   1.416069 A    
C33   C35   1.406538 A    
Cu2   N5    2.025680 S    
N11   O17   1.301313 A    
C18   N22   1.434020 S    
C35   C37   1.405829 A    
C44   C46   1.418638 A    
C4    C24   1.478081 S    
N9    O13   1.301113 A    
N36   O56   1.301325 A    
C42   N12   1.431981 S    
C31   C41   1.422935 A    
O7    C3    1.295725 A    
C39   N35   1.434657 S    
C45   C54   1.447761 S    
O6    C4    1.295041 A    
N18   O28   1.301030 A    
N6    C52   1.374427 A    
N19   O30   1.296544 A    
N1    C30   1.450030 S    
C3    C23   1.476326 S    
C27   C29   1.416481 A    
C55   N25   1.157517 T    
O3    Cu2   1.958766 S    
O8    C4    1.307963 A    
C27   N29   1.435759 S    
C46   C53   1.447805 S    
C21   C55   1.450689 S    
O4    C2    1.300726 A    
C52   N20   1.421015 S    
C39   C41   1.407322 A    
N27   O41   1.301456 A    
C10   C12   1.410592 A    
O1    Cu1   1.955071 S    
C40   N36   1.438789 S    
N29   O45   1.301074 A    
C19   C29   1.413899 A    
N2    C29   1.449879 S    
C16   N10   1.435113 S    
C13   C18   1.417055 A    
C5    N1    1.370489 A    
C51   N19   1.428926 S    
O6    Cu2   1.945243 S    
C19   C21   1.406632 A    
N31   O50   1.301430 A    
C8    C10   1.410091 A    
O3    C1    1.306155 A    
O8    Cu1   1.950923 S    
N28   O44   1.301241 A    
C32   C42   1.413153 A    
C5    O9    1.348075 S    
N30   O47   1.301823 A    
N32   O52   1.301567 A    
C6    O10   1.348166 S    
N31   O49   1.301225 A    
C9    C11   1.410475 A    
C16   C18   1.408848 A    
C21   C23   1.413128 A    
N21   O33   1.300946 A    
C20   C22   1.405984 A    
C22   C24   1.413097 A    
C20   C30   1.413289 A    
N14   O23   1.297940 A    
N20   O32   1.299773 A    
N32   O51   1.300808 A    
C43   N14   1.429016 S    
C32   C34   1.419304 A    
N18   O27   1.300816 A    
N1    C7    1.370531 A    
C40   C42   1.406574 A    
N2    C8    1.370596 A    
C11   C13   1.410729 A    
O2    Cu2   1.955073 S    
C41   N11   1.437598 S    
N24   O40   1.301342 A    
O5    Cu1   1.945244 S    
C14   C17   1.416976 A    
C6    N2    1.370284 A    
C33   N32   1.439265 S    
N19   O29   1.301629 A    
N27   O42   1.301157 A    
C48   C50   1.403091 A    
N36   O55   1.301301 A    
N12   O20   1.301278 A    
C50   C52   1.419512 A    
C47   C49   1.403580 A    
C57   N33   1.157256 T    
C7    C9    1.409611 A    
C49   N17   1.436742 S    
