data_mof_unit_41532.cif
_audit_creation_date              2012-12-11T15:08:56-0500
_audit_creation_method            fapswitch 2.2
_symmetry_space_group_name_H-M    P1
_symmetry_Int_Tables_number       1
_space_group_crystal_system       triclinic
_cell_length_a                    19.694902
_cell_length_b                    11.503998
_cell_length_c                    18.68046
_cell_angle_alpha                 89.391912
_cell_angle_beta                  90.247254
_cell_angle_gamma                 89.864948
_cell_volume                      4232.14394452

loop_
_atom_site_label
_atom_site_type_symbol
_atom_type_description
_atom_site_fract_x
_atom_site_fract_y
_atom_site_fract_z
_atom_type_partial_charge
C1    C     C_R   0.273377 0.040212 0.854739 0.533518
C2    C     C_R   0.726712 0.041327 0.145549 0.563969
C3    C     C_R   0.773377 0.540214 0.854738 0.533304
C4    C     C_R   0.226711 0.541324 0.145548 0.566665
C5    C     C_3   0.521911 0.730867 0.963544 -0.111060
C6    C     C_3   0.484435 0.727092 0.034852 -0.115834
C7    C     C_3   0.021911 0.230865 0.963545 -0.110989
C8    C     C_3   0.984435 0.227095 0.034853 -0.116281
C9    C     C_3   0.309217 0.517414 0.043043 -0.018040
C10   C     C_3   0.690104 0.517838 0.958415 -0.008595
C11   C     C_3   0.809220 0.017418 0.043046 -0.017377
C12   C     C_3   0.190103 0.017837 0.958415 -0.008311
C13   C     C_3   0.324422 0.559145 0.965391 -0.011350
C14   C     C_3   0.675835 0.560415 0.035394 0.026328
C15   C     C_3   0.824425 0.059152 0.965394 -0.012134
C16   C     C_3   0.175835 0.060412 0.035395 0.025914
C17   C     C_3   0.181148 0.519023 0.025216 -0.247345
C18   C     C_3   0.818672 0.518319 0.975995 -0.241195
C19   C     C_3   0.681150 0.019026 0.025218 -0.247016
C20   C     C_3   0.318671 0.018315 0.975996 -0.241304
C21   C     C_3   0.239885 0.700405 0.054582 -0.271468
C22   C     C_3   0.759426 0.699715 0.943650 -0.269680
C23   C     C_3   0.739887 0.200408 0.054585 -0.271643
C24   C     C_3   0.259426 0.199712 0.943652 -0.269894
C25   C     C_3   0.240801 0.570028 0.069643 0.073481
C26   C     C_3   0.758787 0.569125 0.930529 0.058261
C27   C     C_3   0.740804 0.070031 0.069645 0.074290
C28   C     C_3   0.258786 0.069123 0.930530 0.058827
C29   C     C_3   0.256480 0.606537 0.931386 0.058985
C30   C     C_3   0.743779 0.607372 0.068648 0.050442
C31   C     C_3   0.756483 0.106541 0.931389 0.058333
C32   C     C_3   0.243779 0.107368 0.068650 0.049686
C33   C     C_3   0.197785 0.520207 0.944487 -0.267896
C34   C     C_3   0.802376 0.520481 0.056767 -0.266931
C35   C     C_3   0.697789 0.020208 0.944489 -0.267751
C36   C     C_3   0.302375 0.020476 0.056768 -0.266688
C37   C     C_3   0.238477 0.718643 0.972819 -0.258131
C38   C     C_3   0.761719 0.718804 0.025192 -0.257544
C39   C     C_3   0.738479 0.218646 0.972821 -0.257829
C40   C     C_3   0.261719 0.218800 0.025194 -0.257362
C41   C     C_3   0.504581 0.684456 0.459256 -0.001762
C42   C     C_3   0.487203 0.684187 0.539330 -0.001008
C43   C     C_3   0.008563 0.186100 0.459869 0.000271
C44   C     C_3   0.987979 0.186264 0.538623 -0.002560
C45   C     C_R   0.445232 0.817336 0.862046 0.530773
C46   C     C_R   0.555663 0.817968 0.137883 0.528610
C47   C     C_R   0.945233 0.317336 0.862047 0.526583
C48   C     C_R   0.055663 0.317968 0.137882 0.525018
C49   C     C_3   0.566406 0.867891 0.488411 -0.295597
C50   C     C_3   0.420890 0.865972 0.508536 -0.285017
C51   C     C_3   0.057737 0.388020 0.467899 -0.257826
C52   C     C_3   0.935050 0.386039 0.525692 -0.248979
C53   C     C_3   0.454362 0.883320 0.435248 -0.207356
C54   C     C_3   0.532280 0.891192 0.559558 -0.214644
C55   C     C_3   0.935580 0.358142 0.445051 -0.271299
C56   C     C_3   0.057902 0.361846 0.549597 -0.292633
C57   C     C_3   0.518618 0.813374 0.433547 0.039902
C58   C     C_3   0.470310 0.814317 0.564099 0.028895
C59   C     C_3   0.005697 0.313253 0.427779 0.040480
C60   C     C_3   0.988490 0.314257 0.568243 0.039302
C61   C     C_3   0.166579 0.622025 0.463945 -0.236486
C62   C     C_3   0.830941 0.620611 0.535234 -0.227885
C63   C     C_3   0.677506 0.139152 0.459076 -0.219574
C64   C     C_3   0.326951 0.139660 0.539430 -0.224355
C65   C     C_3   0.174755 0.651218 0.542458 -0.111278
C66   C     C_3   0.822940 0.646789 0.456931 -0.096550
C67   C     C_3   0.685547 0.169951 0.536004 -0.080392
C68   C     C_3   0.320058 0.160986 0.460279 -0.083198
C69   C     C_3   0.224069 0.433889 0.496982 -0.237751
C70   C     C_3   0.746403 0.453364 0.525439 -0.171462
C71   C     C_3   0.730390 0.944095 0.491269 -0.217359
C72   C     C_3   0.256988 0.953634 0.525334 -0.184168
C73   C     C_3   0.290965 0.591257 0.444365 -0.245971
C74   C     C_3   0.710970 0.653988 0.552948 -0.296866
C75   C     C_3   0.800878 0.099194 0.443692 -0.260807
C76   C     C_3   0.202441 0.139695 0.556226 -0.301462
C77   C     C_3   0.221894 0.534020 0.439772 -0.000332
C78   C     C_3   0.766028 0.565693 0.566174 0.008863
C79   C     C_3   0.730505 0.047488 0.437063 0.004041
C80   C     C_3   0.265689 0.067644 0.567967 0.017258
C81   C     C_3   0.245757 0.602934 0.571351 0.065798
C82   C     C_3   0.752242 0.599826 0.427923 0.070383
C83   C     C_3   0.749268 0.106708 0.570229 0.074391
C84   C     C_3   0.251469 0.105632 0.430682 0.079461
C85   C     C_3   0.253442 0.469526 0.570466 0.095339
C86   C     C_3   0.741432 0.468748 0.442136 0.088156
C87   C     C_3   0.738118 0.975617 0.571916 0.086282
C88   C     C_3   0.252537 0.972728 0.441672 0.078686
C89   C     C_R   0.262291 0.640893 0.854311 0.541447
C90   C     C_R   0.737657 0.642003 0.145515 0.535650
C91   C     C_R   0.762292 0.140897 0.854313 0.542303
C92   C     C_R   0.237658 0.141998 0.145517 0.536712
C93   C     C_3   0.296077 0.652176 0.516288 -0.300962
C94   C     C_3   0.697495 0.661970 0.471992 -0.264737
C95   C     C_3   0.812244 0.131110 0.522223 -0.282064
C96   C     C_3   0.190495 0.150257 0.475598 -0.276260
C97   C     C_R   0.275579 0.039237 0.644534 0.538865
C98   C     C_R   0.714745 0.012465 0.361815 0.522184
C99   C     C_R   0.775714 0.538621 0.643813 0.536603
C100  C     C_R   0.210063 0.502281 0.362041 0.528912
C101  C     C_R   0.443543 0.818267 0.638599 0.523769
C102  C     C_R   0.548555 0.818186 0.360797 0.528120
C103  C     C_R   0.969058 0.320863 0.645868 0.537631
C104  C     C_R   0.027281 0.320532 0.351151 0.537617
C105  C     C_R   0.262044 0.648626 0.642272 0.526866
C106  C     C_R   0.740727 0.636806 0.353353 0.521480
C107  C     C_R   0.763198 0.151410 0.641557 0.523197
C108  C     C_R   0.239219 0.142552 0.355992 0.525312
C109  C     C_3   0.479918 0.916478 0.035590 -0.102907
C110  C     C_3   0.518749 0.920040 0.963331 -0.105164
C111  C     C_3   0.979921 0.416481 0.035589 -0.103535
C112  C     C_3   0.018752 0.420039 0.963330 -0.105051
C113  C     C_3   0.433685 0.818596 0.007122 -0.159195
C114  C     C_3   0.568821 0.826339 0.991686 -0.159153
C115  C     C_3   0.933686 0.318601 0.007122 -0.159532
C116  C     C_3   0.068822 0.326335 0.991685 -0.158796
C117  C     C_3   0.472479 0.823191 0.935841 0.049436
C118  C     C_3   0.529927 0.823928 0.063097 0.050757
C119  C     C_3   0.972480 0.323191 0.935841 0.050767
C120  C     C_3   0.029928 0.323929 0.063097 0.052337
Cr1   Cr    Cr6+3 0.229620 0.836040 0.749110 1.005047
Cr2   Cr    Cr6+3 0.770380 0.836040 0.250890 1.033664
Cr3   Cr    Cr6+3 0.729620 0.336040 0.749110 1.009289
Cr4   Cr    Cr6+3 0.270380 0.336040 0.250890 1.041372
Cr5   Cr    Cr6+3 0.387630 0.990680 0.750730 1.027816
Cr6   Cr    Cr6+3 0.612370 0.990680 0.249270 1.029956
Cr7   Cr    Cr6+3 0.887630 0.490680 0.750730 1.039346
Cr8   Cr    Cr6+3 0.112370 0.490680 0.249270 1.031600
Cr9   Cr    Cr6+3 0.386020 0.676590 0.749210 1.050497
Cr10  Cr    Cr6+3 0.613980 0.676590 0.250790 1.059524
Cr11  Cr    Cr6+3 0.886020 0.176590 0.749210 1.058634
Cr12  Cr    Cr6+3 0.113980 0.176590 0.250790 1.060386
H1    H     H_    0.379868 0.805949 0.020308 0.081578
H2    H     H_    0.622518 0.816200 0.977522 0.094750
H3    H     H_    0.879869 0.305957 0.020310 0.081365
H4    H     H_    0.122519 0.316192 0.977521 0.094626
H5    H     H_    0.193430 0.738782 0.077676 0.132442
H6    H     H_    0.805281 0.738284 0.919144 0.135112
H7    H     H_    0.693431 0.238784 0.077679 0.131819
H8    H     H_    0.305282 0.238280 0.919147 0.133789
H9    H     H_    0.284185 0.742585 0.079604 0.107819
H10   H     H_    0.714361 0.741302 0.918810 0.108608
H11   H     H_    0.784187 0.242589 0.079607 0.106413
H12   H     H_    0.214363 0.241302 0.918810 0.108103
H13   H     H_    0.274186 0.786543 0.957516 0.095151
H14   H     H_    0.726061 0.787119 0.039353 0.090321
H15   H     H_    0.774187 0.286547 0.957519 0.094926
H16   H     H_    0.226060 0.287114 0.039355 0.090149
H17   H     H_    0.185923 0.744459 0.957271 0.141837
H18   H     H_    0.814409 0.744176 0.039807 0.143202
H19   H     H_    0.685924 0.244460 0.957273 0.141741
H20   H     H_    0.314408 0.244173 0.039809 0.143156
H21   H     H_    0.634080 0.071229 0.033240 0.145896
H22   H     H_    0.365561 0.070428 0.966908 0.146139
H23   H     H_    0.134077 0.571225 0.033240 0.146007
H24   H     H_    0.865562 0.570433 0.966906 0.146235
H25   H     H_    0.151824 0.546568 0.913524 0.134416
H26   H     H_    0.848352 0.547149 0.087088 0.134323
H27   H     H_    0.651828 0.046564 0.913526 0.134021
H28   H     H_    0.348351 0.047143 0.087090 0.135216
H29   H     H_    0.549484 0.631749 0.450915 0.172814
H30   H     H_    0.444073 0.627285 0.547257 0.188834
H31   H     H_    0.060668 0.163190 0.457581 0.180598
H32   H     H_    0.936368 0.160995 0.541125 0.177673
H33   H     H_    0.604587 0.802871 0.501948 0.121134
H34   H     H_    0.380100 0.807449 0.500202 0.115495
H35   H     H_    0.106227 0.377198 0.440822 0.100954
H36   H     H_    0.884586 0.376624 0.548976 0.113692
H37   H     H_    0.565299 0.874342 0.606011 0.167611
H38   H     H_    0.422244 0.859886 0.389018 0.174467
H39   H     H_    0.098151 0.299015 0.564183 0.125016
H40   H     H_    0.896577 0.292957 0.433396 0.147353
H41   H     H_    0.463628 0.994272 0.065627 0.119565
H42   H     H_    0.532207 0.000624 0.933542 0.119753
H43   H     H_    0.963633 0.494276 0.065626 0.119072
H44   H     H_    0.032211 0.500620 0.933539 0.120039
H45   H     H_    0.469552 0.974031 0.430037 0.180791
H46   H     H_    0.516840 0.983775 0.561778 0.177595
H47   H     H_    0.924600 0.432390 0.411139 0.171279
H48   H     H_    0.067119 0.439165 0.580354 0.156586
H49   H     H_    0.401682 0.947916 0.526925 0.137827
H50   H     H_    0.584647 0.950590 0.466446 0.128009
H51   H     H_    0.953277 0.476074 0.530679 0.153562
H52   H     H_    0.041669 0.478975 0.459571 0.157363
H53   H     H_    0.114817 0.598117 0.450180 0.141232
H54   H     H_    0.872992 0.567447 0.547525 0.138533
H55   H     H_    0.624576 0.114015 0.446710 0.145020
H56   H     H_    0.378084 0.109212 0.554515 0.144635
H57   H     H_    0.175033 0.701640 0.432640 0.178595
H58   H     H_    0.843901 0.701839 0.562820 0.164225
H59   H     H_    0.686323 0.216901 0.425579 0.162436
H60   H     H_    0.324939 0.222812 0.567264 0.162133
H61   H     H_    0.177734 0.746213 0.542972 0.117053
H62   H     H_    0.819889 0.741036 0.453875 0.124380
H63   H     H_    0.696741 0.260333 0.536190 0.098303
H64   H     H_    0.319383 0.254291 0.453389 0.117591
H65   H     H_    0.683572 0.906839 0.485041 0.115668
H66   H     H_    0.297842 0.898030 0.543916 0.096909
H67   H     H_    0.175055 0.407297 0.512070 0.134727
H68   H     H_    0.779972 0.382057 0.540798 0.110038
H69   H     H_    0.331064 0.523683 0.439978 0.153151
H70   H     H_    0.666838 0.625967 0.583203 0.120981
H71   H     H_    0.838836 0.032931 0.427623 0.139010
H72   H     H_    0.159767 0.094895 0.582402 0.122386
H73   H     H_    0.297521 0.652564 0.398902 0.134269
H74   H     H_    0.728055 0.737542 0.572270 0.141185
H75   H     H_    0.807436 0.173793 0.407347 0.137559
H76   H     H_    0.207755 0.225361 0.580594 0.176817
H77   H     H_    0.533011 0.651187 0.933914 0.186520
H78   H     H_    0.478336 0.643405 0.062924 0.143698
H79   H     H_    0.033008 0.151183 0.933916 0.186355
H80   H     H_    0.978335 0.143410 0.062927 0.143512
H81   H     H_    0.282505 0.740687 0.504264 0.103974
H82   H     H_    0.692918 0.748165 0.450000 0.090318
H83   H     H_    0.828799 0.221168 0.525913 0.105537
H84   H     H_    0.172550 0.235514 0.458433 0.092780
H85   H     H_    0.346263 0.646891 0.538061 0.115089
H86   H     H_    0.648601 0.623261 0.462810 0.126219
H87   H     H_    0.852246 0.071991 0.541729 0.143189
H88   H     H_    0.148876 0.090837 0.465499 0.141200
H89   H     H_    0.248716 0.361841 0.474552 0.096491
H90   H     H_    0.695020 0.433811 0.546883 0.117628
H91   H     H_    0.770295 0.885018 0.475798 0.096524
H92   H     H_    0.209108 0.915030 0.544274 0.113220
H93   H     H_    0.302619 0.424086 0.042114 0.160361
H94   H     H_    0.696467 0.424338 0.961631 0.146474
H95   H     H_    0.802623 0.924090 0.042116 0.160501
H96   H     H_    0.196464 0.924337 0.961629 0.146446
H97   H     H_    0.360951 0.631879 0.967349 0.165696
H98   H     H_    0.639579 0.634022 0.032286 0.181051
H99   H     H_    0.860953 0.131888 0.967354 0.165785
H100  H     H_    0.139579 0.134020 0.032288 0.181263
H101  H     H_    0.668460 0.933520 0.046620 0.092198
H102  H     H_    0.331919 0.932516 0.956723 0.096755
H103  H     H_    0.168459 0.433516 0.046618 0.092217
H104  H     H_    0.831920 0.432520 0.956723 0.096572
H105  H     H_    0.712046 0.932610 0.926696 0.106517
H106  H     H_    0.288473 0.933107 0.076225 0.108196
H107  H     H_    0.212039 0.432609 0.926690 0.105924
H108  H     H_    0.788474 0.433111 0.076224 0.107321
O1    O     O_R   0.214130 0.708570 0.829890 -0.530748
O2    O     O_R   0.785870 0.708570 0.170110 -0.524881
O3    O     O_R   0.714130 0.208570 0.829890 -0.533431
O4    O     O_R   0.285870 0.208570 0.170110 -0.524446
O5    O     O_R   0.446360 0.919990 0.675230 -0.496918
O6    O     O_R   0.553640 0.919990 0.324770 -0.502954
O7    O     O_R   0.946360 0.419990 0.675230 -0.493518
O8    O     O_R   0.053640 0.419990 0.324770 -0.508076
O9    O     O_R   0.457170 0.717300 0.668380 -0.473617
O10   O     O_R   0.542830 0.717300 0.331620 -0.464693
O11   O     O_R   0.957170 0.217300 0.668380 -0.491457
O12   O     O_R   0.042830 0.217300 0.331620 -0.481035
O13   O     O_R   0.320870 0.624890 0.673130 -0.510790
O14   O     O_R   0.679130 0.624890 0.326870 -0.503807
O15   O     O_R   0.820870 0.124890 0.673130 -0.492825
O16   O     O_R   0.179130 0.124890 0.326870 -0.491369
O17   O     O_3   0.334430 0.834430 0.749680 -0.328649
O18   O     O_3   0.665570 0.834430 0.250320 -0.339358
O19   O     O_3   0.834430 0.334430 0.749680 -0.320278
O20   O     O_3   0.165570 0.334430 0.250320 -0.338748
O21   O     O_R   0.236050 0.959150 0.825270 -0.514868
O22   O     O_R   0.763950 0.959150 0.174730 -0.470722
O23   O     O_R   0.736050 0.459150 0.825270 -0.515676
O24   O     O_R   0.263950 0.459150 0.174730 -0.470212
O25   O     O_R   0.332100 0.076650 0.832310 -0.526924
O26   O     O_R   0.667900 0.076650 0.167690 -0.534036
O27   O     O_R   0.832100 0.576650 0.832310 -0.523996
O28   O     O_R   0.167900 0.576650 0.167690 -0.532425
O29   O     O_R   0.446500 0.918620 0.826240 -0.499910
O30   O     O_R   0.553500 0.918620 0.173760 -0.499484
O31   O     O_R   0.946500 0.418620 0.826240 -0.503933
O32   O     O_R   0.053500 0.418620 0.173760 -0.505564
O33   O     O_R   0.457310 0.715830 0.831280 -0.503501
O34   O     O_R   0.542690 0.715830 0.168720 -0.497855
O35   O     O_R   0.957310 0.215830 0.831280 -0.508816
O36   O     O_R   0.042690 0.215830 0.168720 -0.504880
O37   O     O_R   0.321000 0.623520 0.824130 -0.481329
O38   O     O_R   0.679000 0.623520 0.175870 -0.482555
O39   O     O_R   0.821000 0.123520 0.824130 -0.476161
O40   O     O_R   0.179000 0.123520 0.175870 -0.479992
O41   O     O_R   0.213990 0.710040 0.667000 -0.518594
O42   O     O_R   0.786010 0.710040 0.333000 -0.525570
O43   O     O_R   0.713990 0.210040 0.667000 -0.523629
O44   O     O_R   0.286010 0.210040 0.333000 -0.525142
O45   O     O_R   0.235920 0.960520 0.674260 -0.512648
O46   O     O_R   0.764080 0.960520 0.325740 -0.500751
O47   O     O_R   0.735920 0.460520 0.674260 -0.512056
O48   O     O_R   0.264080 0.460520 0.325740 -0.496684
O49   O     O_R   0.331960 0.078120 0.669410 -0.519922
O50   O     O_R   0.668040 0.078120 0.330590 -0.516950
O51   O     O_R   0.831960 0.578120 0.669410 -0.504456
O52   O     O_R   0.168040 0.578120 0.330590 -0.503159
N1    N     N_3   0.452731 0.626897 0.415903 -0.596382
H109  H     H_    0.445835 0.542028 0.435109 0.239317
H110  H     H_    0.407510 0.672206 0.418808 0.222884
N2    N     N_3   0.539498 0.626502 0.583305 -0.607510
H111  H     H_    0.563795 0.558368 0.557037 0.228403
H112  H     H_    0.572514 0.685827 0.606115 0.242553
N3    N     N_3   0.972264 0.096955 0.418515 -0.602978
H113  H     H_    0.957566 0.026943 0.451033 0.235588
H114  H     H_    0.930443 0.131003 0.391228 0.235552
N4    N     N_3   0.025855 0.098995 0.581431 -0.612447
H115  H     H_    0.049591 0.036553 0.549799 0.230666
H116  H     H_    0.060855 0.137610 0.615643 0.246465
C121  C     C_1   0.112856 0.636478 0.585687 0.187293
N5    N     N_1   0.064460 0.632127 0.620623 -0.294347
C122  C     C_1   0.885979 0.633179 0.415480 0.186884
N6    N     N_1   0.935463 0.630312 0.382238 -0.297564
C123  C     C_1   0.619616 0.163517 0.573991 0.253805
N7    N     N_1   0.568667 0.162688 0.604582 -0.288655
C124  C     C_1   0.382828 0.144640 0.418784 0.231934
N8    N     N_1   0.430423 0.143386 0.382700 -0.290519
N9    N     N_3   0.676753 0.948194 0.613372 -0.647672
H117  H     H_    0.678797 0.986915 0.663712 0.254768
H118  H     H_    0.673758 0.860056 0.625661 0.201326
N10   N     N_3   0.310491 0.924015 0.404391 -0.659934
H119  H     H_    0.309870 0.950100 0.350550 0.243215
H120  H     H_    0.306091 0.834363 0.403084 0.208072
N11   N     N_3   0.217093 0.413523 0.630565 -0.681077
H121  H     H_    0.169291 0.450329 0.637482 0.235889
H122  H     H_    0.243382 0.425256 0.678762 0.253345
N12   N     N_3   0.792630 0.399274 0.404652 -0.678231
H123  H     H_    0.818230 0.449464 0.366571 0.230027
H124  H     H_    0.769664 0.336678 0.372603 0.222772
C125  C     C_1   0.326332 0.435057 0.576207 0.215496
N13   N     N_1   0.383352 0.411139 0.580904 -0.314489
C126  C     C_1   0.672199 0.431565 0.417906 0.172945
N14   N     N_1   0.618455 0.404257 0.399237 -0.294278
C127  C     C_1   0.796517 0.914384 0.606989 0.173966
N15   N     N_1   0.841945 0.870849 0.636319 -0.284519
C128  C     C_1   0.189801 0.919835 0.410900 0.165448
N16   N     N_1   0.140267 0.884392 0.385721 -0.282401
N17   N     N_3   0.365158 0.539390 0.092741 -0.616266
H125  H     H_    0.408681 0.497507 0.074160 0.226597
H126  H     H_    0.373386 0.628381 0.097202 0.231031
N18   N     N_3   0.631877 0.542480 0.911338 -0.675729
H127  H     H_    0.619165 0.468131 0.882476 0.254906
H128  H     H_    0.642262 0.608745 0.874354 0.242327
N19   N     N_3   0.865160 0.039395 0.092746 -0.619072
H129  H     H_    0.908684 0.997512 0.074166 0.226775
H130  H     H_    0.873387 0.128386 0.097208 0.229467
N20   N     N_3   0.131877 0.042484 0.911338 -0.676163
H131  H     H_    0.119164 0.968136 0.882475 0.254626
H132  H     H_    0.142263 0.108749 0.874355 0.241279
N21   N     N_3   0.357148 0.468331 0.922730 -0.617954
H133  H     H_    0.387185 0.413747 0.954936 0.217742
H134  H     H_    0.321074 0.418805 0.896126 0.232384
N22   N     N_3   0.642775 0.470676 0.079523 -0.612995
H135  H     H_    0.610314 0.419853 0.048403 0.230699
H136  H     H_    0.678771 0.417471 0.104329 0.228735
N23   N     N_3   0.857154 0.968341 0.922733 -0.615656
H137  H     H_    0.887195 0.913763 0.954940 0.217594
H138  H     H_    0.821083 0.918809 0.896130 0.234982
N24   N     N_3   0.142774 0.970673 0.079523 -0.612065
H139  H     H_    0.110314 0.919849 0.048403 0.230653
H140  H     H_    0.178770 0.917469 0.104331 0.229875

loop_
_geom_bond_atom_site_label_1
_geom_bond_atom_site_label_2
_ccdc_geom_bond_type
N12   H124  S    
C82   C94   S    
C55   C59   S    
Cr6   O6    S    
C102  O6    A    
C105  O13   A    
C42   C58   S    
C29   C89   S    
C75   C95   S    
C48   C120  S    
N17   H125  S    
C24   H8    S    
C57   C102  S    
C46   O34   A    
Cr7   O27   S    
C59   C104  S    
Cr8   O20   S    
C5    C6    S    
C18   H104  S    
Cr4   O24   S    
Cr12  O36   S    
C29   C33   S    
C30   C38   S    
C77   C100  S    
C9    C13   S    
C75   H75   S    
C12   C16   S    
C105  O41   A    
C73   C93   S    
Cr4   O4    S    
C60   C103  S    
C34   H108  S    
C108  O44   A    
C110  H42   S    
C113  H1    S    
C61   H57   S    
C54   H37   S    
C23   H11   S    
C66   H62   S    
C109  C118  S    
N4    H116  S    
Cr9   O9    S    
C94   H82   S    
C50   C53   S    
Cr6   O18   S    
C7    C119  S    
C62   H58   S    
C30   C34   S    
N20   H131  S    
Cr2   O22   S    
C20   C28   S    
Cr3   O19   S    
C96   H88   S    
C73   H69   S    
C103  O7    A    
C54   H46   S    
N10   H119  S    
C43   C44   S    
C66   C82   S    
C11   C27   S    
C58   C101  S    
C53   H38   S    
Cr10  O14   S    
N2    H111  S    
C42   N2    S    
C56   H39   S    
C15   N23   S    
C19   H21   S    
C17   H23   S    
C55   H40   S    
C18   H24   S    
C70   H68   S    
Cr5   O25   S    
Cr6   O30   S    
C3    C26   S    
C84   C88   S    
C31   C91   S    
N18   H127  S    
C53   H45   S    
C96   H84   S    
C17   C25   S    
C103  O11   A    
C100  O52   A    
C19   C35   S    
C76   C96   S    
C2    O22   A    
N22   H135  S    
C72   H92   S    
C109  H41   S    
C14   H98   S    
Cr12  O16   S    
C21   H9    S    
C61   C65   S    
Cr5   O29   S    
C78   C99   S    
C73   C77   S    
C75   C79   S    
Cr5   O49   S    
C76   H76   S    
C41   N1    S    
N11   H122  S    
C67   C83   S    
C104  O12   A    
C80   C97   S    
C69   C77   S    
N23   H137  S    
C35   H105  S    
Cr3   O3    S    
C4    C25   S    
C7    C8    S    
Cr12  O20   S    
C32   C92   S    
Cr1   O1    S    
C32   C36   S    
C44   C60   S    
Cr9   O17   S    
N9    H118  S    
C2    O26   A    
C39   H19   S    
C49   C57   S    
C40   H20   S    
C93   H85   S    
C38   H14   S    
C52   C60   S    
C84   C108  S    
C61   C77   S    
C68   C124  S    
C110  C114  S    
C69   H89   S    
C43   C59   S    
C62   H54   S    
C46   O30   A    
Cr7   O31   S    
Cr8   O32   S    
C11   C15   S    
C61   H53   S    
Cr10  O18   S    
Cr11  O11   S    
Cr4   O44   S    
Cr12  O40   S    
C81   C105  S    
C62   C66   S    
C10   C14   S    
C75   H71   S    
C72   H66   S    
C116  C120  S    
C106  O42   A    
C7    C116  S    
C92   O40   A    
N1    H109  S    
C85   N11   S    
C18   C34   S    
C95   H87   S    
Cr1   O41   S    
C4    O24   A    
C22   H10   S    
C89   O37   A    
C114  H2    S    
C107  O15   A    
C91   O39   A    
C64   H56   S    
C113  C117  S    
C48   O36   A    
C112  H44   S    
Cr9   O13   S    
C115  C119  S    
C90   O2    A    
C74   C78   S    
Cr7   O19   S    
Cr10  O34   S    
C112  C116  S    
C69   C85   S    
C56   H48   S    
C45   C117  S    
C21   C25   S    
C97   O49   A    
C15   H99   S    
C55   H47   S    
C62   C78   S    
C101  O9    A    
C76   C80   S    
C7    H79   S    
C42   H30   S    
C15   C31   S    
C16   C32   S    
C5    H77   S    
C100  O48   A    
C63   H55   S    
C72   C80   S    
C115  H3    S    
C45   O33   A    
C44   N4    S    
C89   O1    A    
C82   C106  S    
C47   O31   A    
Cr8   O52   S    
C48   O32   A    
C11   H95   S    
N24   H139  S    
C31   C39   S    
C10   N18   S    
Cr6   O26   S    
C9    H93   S    
C67   H63   S    
C8    H80   S    
C81   C85   S    
Cr1   O17   S    
C22   C38   S    
C83   C87   S    
C41   H29   S    
C41   C42   S    
C106  O14   A    
Cr9   O33   S    
C18   C26   S    
C30   C90   S    
C101  O5    A    
C9    C25   S    
C9    N17   S    
C14   N22   S    
C12   C28   S    
C13   C29   S    
C98   O50   A    
C54   C58   S    
N20   H132  S    
C12   H96   S    
C46   C118  S    
N10   H120  S    
C73   H73   S    
C13   N21   S    
Cr6   O50   S    
C51   H35   S    
C87   C127  S    
C111  C112  S    
C104  O8    A    
C50   H34   S    
C1    C28   S    
C2    C27   S    
N21   H134  S    
Cr11  O39   S    
C52   C55   S    
N2    H112  S    
N12   H123  S    
C108  O16   A    
C64   C80   S    
C16   N24   S    
C17   C33   S    
C110  C117  S    
C71   C79   S    
C33   H25   S    
C65   H61   S    
N17   H126  S    
C36   H106  S    
C3    O27   A    
C40   H16   S    
C93   H81   S    
C122  N6    T    
C68   C84   S    
C24   C28   S    
N18   H128  S    
C51   H52   S    
C53   C57   S    
C74   H70   S    
C64   H60   S    
C56   C60   S    
C50   C58   S    
N3    H113  S    
C49   H33   S    
C66   C122  S    
C65   C81   S    
N19   H129  S    
C38   H18   S    
N22   H136  S    
Cr8   O28   S    
C68   H64   S    
Cr12  O12   S    
Cr1   O45   S    
C86   N12   S    
Cr2   O42   S    
Cr3   O47   S    
C71   C87   S    
Cr4   O48   S    
C31   C35   S    
Cr7   O7    S    
C64   C68   S    
C107  O43   A    
C37   H17   S    
C97   O45   A    
C112  C119  S    
N23   H138  S    
C116  H4    S    
C99   O47   A    
C4    O28   A    
C67   C123  S    
C22   H6    S    
C90   O38   A    
N24   H140  S    
C41   C57   S    
C126  N14   T    
C82   C86   S    
C109  C110  S    
N9    H117  S    
C24   H12   S    
C63   H59   S    
C70   H90   S    
Cr11  O15   S    
C125  N13   T    
C13   H97   S    
N11   H121  S    
C20   C36   S    
C21   C37   S    
Cr4   O20   S    
C121  N5    T    
C22   C26   S    
C29   C37   S    
C74   C94   S    
C44   H32   S    
C43   H31   S    
C124  N8    T    
C5    C114  S    
C70   C78   S    
C95   H83   S    
C127  N15   T    
C79   C98   S    
C52   H51   S    
C94   H86   S    
C86   C126  S    
C128  N16   T    
Cr2   O2    S    
C63   C79   S    
C123  N7    T    
C45   O29   A    
C20   H22   S    
C111  H43   S    
C23   H7    S    
C88   C128  S    
C47   O35   A    
C49   C54   S    
Cr5   O17   S    
C88   N10   S    
C20   H102  S    
C51   C56   S    
C84   C96   S    
C8    C115  S    
Cr1   O21   S    
Cr2   O18   S    
Cr3   O23   S    
Cr9   O37   S    
C23   C27   S    
C19   C27   S    
C109  C113  S    
C10   C26   S    
C47   C119  S    
C14   C30   S    
C99   O51   A    
C19   H101  S    
C85   C125  S    
C72   C88   S    
C71   H65   S    
C17   H103  S    
C63   C67   S    
C71   H91   S    
Cr8   O8    S    
Cr7   O51   S    
C16   H100  S    
C21   H5    S    
C5    C117  S    
C111  C120  S    
Cr10  O38   S    
C6    C113  S    
Cr11  O35   S    
C33   H107  S    
C81   C93   S    
C83   C95   S    
N3    H114  S    
C114  C118  S    
C65   C121  S    
C1    O21   A    
C34   H26   S    
N19   H130  S    
C91   O3    A    
C3    O23   A    
Cr11  O19   S    
C50   H49   S    
C51   C59   S    
Cr10  O10   S    
C70   C86   S    
C8    C120  S    
C69   H67   S    
C74   H74   S    
C43   N3    S    
N4    H115  S    
C102  O10   A    
C76   H72   S    
C6    H78   S    
C12   N20   S    
C11   N19   S    
Cr2   O46   S    
N1    H110  S    
Cr3   O43   S    
C52   H36   S    
C92   O4    A    
C23   C39   S    
C24   C40   S    
C83   C107  S    
C32   C40   S    
C35   H27   S    
C36   H28   S    
C49   H50   S    
C1    O25   A    
C87   N9    S    
C39   H15   S    
C10   H94   S    
C111  C115  S    
Cr5   O5    S    
C37   H13   S    
N21   H133  S    
C6    C118  S    
C98   O46   A    
