data_mof_unit_30506.cif
_audit_creation_date              2013-03-05T16:33:41-0500
_audit_creation_method            fapswitch 2.2
_symmetry_space_group_name_H-M    P1
_symmetry_Int_Tables_number       1
_space_group_crystal_system       triclinic
_cell_length_a                    9.074006
_cell_length_b                    10.833132
_cell_length_c                    9.560407
_cell_angle_alpha                 90.329427
_cell_angle_beta                  89.958673
_cell_angle_gamma                 90.143
_cell_volume                      939.768402241

loop_
_atom_site_label
_atom_site_type_symbol
_atom_site_description
_atom_site_fract_x
_atom_site_fract_y
_atom_site_fract_z
_atom_type_partial_charge
O1    O     O_R   0.500000 0.319640 0.618810 -0.580977
O2    O     O_R   0.500020 0.319680 0.381230 -0.586942
C1    C     C_R   0.496860 0.262412 0.499581 0.789179
O3    O     O_R   0.288380 0.499980 0.618770 -0.594546
O4    O     O_R   0.288400 0.500020 0.381190 -0.565176
C2    C     C_R   0.220716 0.499968 0.500009 0.842858
Cu1   Cu    Cu3+1 0.499990 0.499980 0.640670 0.950137
Cu2   Cu    Cu3+1 0.500010 0.500020 0.359330 0.984578
O5    O     O_R   0.499980 0.680320 0.618770 -0.578116
O6    O     O_R   0.500000 0.680360 0.381190 -0.585842
O7    O     O_R   0.711600 0.499980 0.618810 -0.590510
O8    O     O_R   0.711620 0.500020 0.381230 -0.541138
C3    C     C_R   0.497678 0.737740 0.500153 0.808307
C4    C     C_R   0.779267 0.500007 0.500008 0.855049
C5    C     C_1   0.065550 0.499949 0.500056 -0.136012
C6    C     C_1   0.934420 0.499945 0.500043 -0.116474
C7    C     C_R   0.472117 0.064706 0.623895 0.123768
C8    C     C_R   0.481586 0.129414 0.498490 -0.096801
C9    C     C_R   0.470468 0.063667 0.371690 -0.205252
H1    H     H_    0.468788 0.110966 0.272185 0.169780
C10   C     C_R   0.471284 0.934927 0.372166 -0.188847
H2    H     H_    0.469931 0.886293 0.272849 0.167069
C11   C     C_R   0.483234 0.870978 0.499442 -0.093568
C12   C     C_R   0.473079 0.937627 0.624493 0.132276
C13   C     C_3   0.567127 0.933809 0.752592 -0.479592
C14   C     C_3   0.565266 0.073808 0.752161 -0.441994
H3    H     H_    0.507400 0.893945 0.843388 0.199971
H4    H     H_    0.678311 0.894793 0.731667 0.201857
H5    H     H_    0.504035 0.114273 0.842124 0.201548
H6    H     H_    0.675203 0.115681 0.731647 0.203793
C15   C     C_R   0.626859 0.522781 0.073767 0.215308
N1    N     N_R   0.500920 0.500930 0.147930 -0.224748
C16   C     C_R   0.378717 0.464860 0.074066 -0.056078
H7    H     H_    0.279681 0.437606 0.128687 0.182226
C17   C     C_R   0.378729 0.464833 0.925575 -0.061928
H8    H     H_    0.279700 0.437576 0.870724 0.160142
N2    N     N_R   0.500930 0.500890 0.852020 -0.188686
C18   C     C_R   0.626788 0.522564 0.926345 0.219787
C19   C     C_3   0.719641 0.635908 0.919163 -0.551744
C20   C     C_3   0.718367 0.637802 0.078292 0.128202
H9    H     H_    0.829245 0.617336 0.871516 0.229707
H10   H     H_    0.659476 0.714288 0.872748 0.182116
H11   H     H_    0.659930 0.718610 0.124422 0.113478
N3    N     N_R   0.864406 0.617385 0.138680 0.158531
O9    O     O_R   0.918046 0.697105 0.227365 -0.368678
O10   O     O_R   0.942120 0.520882 0.104456 -0.386017

loop_
_geom_bond_atom_site_label_1
_geom_bond_atom_site_label_2
_geom_bond_distance
_ccdc_geom_bond_type
C9    C10   1.394728 A    
O4    Cu2   1.931340 S    
C11   C12   1.396190 A    
N2    C18   1.364631 A    
C13   H3    1.111833 S    
C15   N1    1.365319 A    
C15   C18   1.409407 A    
Cu2   O8    1.931683 S    
N1    C16   1.369941 A    
C7    C8    1.394774 A    
Cu1   N2    2.020584 S    
Cu1   Cu2   2.689726 S    
C19   H9    1.111943 S    
C10   H2    1.083299 S    
C12   C13   1.494026 S    
C13   H4    1.112375 S    
Cu1   O7    1.931341 S    
C18   C19   1.489285 S    
C14   H5    1.112116 S    
O3    Cu1   1.931682 S    
C7    C14   1.492512 S    
Cu2   O6    1.963599 S    
C17   N2    1.369858 A    
O8    C4    1.291240 A    
C14   H6    1.112587 S    
C19   H10   1.105860 S    
O2    C1    1.293793 A    
C10   C11   1.408038 A    
O4    C2    1.290967 A    
O7    C4    1.290749 A    
C4    C6    1.407864 S    
C2    C5    1.407976 S    
C7    C12   1.376761 A    
C5    C6    1.189879 T    
Cu2   N1    2.021163 S    
C20   N3    1.463665 S    
C16   H7    1.080377 S    
N3    O9    1.300656 A    
C3    C11   1.449707 S    
C1    C8    1.447070 S    
O3    C2    1.291168 A    
C8    C9    1.406032 A    
C19   C20   1.521395 S    
Cu1   O5    1.966032 S    
O5    C3    1.296760 A    
C15   C20   1.496070 S    
C16   C17   1.419640 A    
C13   C14   1.516796 S    
O1    Cu1   1.963599 S    
O6    C3    1.293166 A    
C20   H11   1.113345 S    
O2    Cu2   1.966030 S    
C9    H1    1.083253 S    
N3    O10   1.302550 A    
O1    C1    1.294723 A    
C17   H8    1.080376 S    
