data_mof_unit_48604.cif
_audit_creation_date              2012-10-26T20:24:21-0400
_audit_creation_method            fapswitch 2.2
_symmetry_space_group_name_H-M    P1
_symmetry_Int_Tables_number       1
_space_group_crystal_system       triclinic
_cell_length_a                    15.839823
_cell_length_b                    10.778036
_cell_length_c                    9.451629
_cell_angle_alpha                 89.705621
_cell_angle_beta                  89.934231
_cell_angle_gamma                 90.142434
_cell_volume                      1613.57536078

loop_
_atom_site_label
_atom_site_type_symbol
_atom_type_description
_atom_site_fract_x
_atom_site_fract_y
_atom_site_fract_z
_atom_type_partial_charge
C1    C     C_R   0.499907 0.260160 0.500141 0.580272
C2    C     C_3   0.522254 0.928740 0.645067 -0.255643
C3    C     C_3   0.407532 0.075071 0.452070 -0.160009
C4    C     C_R   0.339870 0.499892 0.500104 0.569507
C5    C     C_3   0.564294 0.072435 0.393808 0.138617
C6    C     C_3   0.496625 0.122221 0.499570 0.031791
C7    C     C_3   0.494880 0.878410 0.497925 -0.016979
C8    C     C_3   0.403622 0.928522 0.461875 -0.033153
C9    C     C_3   0.559705 0.929265 0.388122 -0.210374
C10   C     C_3   0.505844 0.628305 0.085364 -0.127111
C11   C     C_3   0.507773 0.631207 0.918139 -0.043282
C12   C     C_3   0.082654 0.498129 0.499600 0.072068
C13   C     C_3   0.574305 0.431268 0.084946 -0.078807
C14   C     C_3   0.424409 0.442108 0.083409 -0.117768
C15   C     C_3   0.574669 0.430579 0.917149 0.287575
C16   C     C_R   0.498453 0.740037 0.499582 0.554729
C17   C     C_3   0.423148 0.446551 0.916645 -0.098013
C18   C     C_R   0.660074 0.500524 0.499816 0.557268
C19   C     C_3   0.970856 0.384661 0.536292 -0.102384
C20   C     C_3   0.027768 0.413631 0.406419 -0.137605
C21   C     C_1   0.250078 0.499110 0.500433 0.013390
C22   C     C_1   0.749762 0.500736 0.499120 -0.044680
C23   C     C_3   0.971675 0.584356 0.591979 -0.095650
C24   C     C_3   0.026317 0.470488 0.627091 0.314608
C25   C     C_1   0.338320 0.137834 0.529854 0.185739
C26   C     C_1   0.342875 0.882886 0.570295 0.207862
C27   C     C_3   0.698232 0.138426 0.322046 -0.022074
C28   C     C_3   0.788204 0.157950 0.373455 -0.372283
C29   C     C_1   0.372323 0.880303 0.325413 0.179640
C30   C     C_1   0.586015 0.695507 0.872562 0.171362
C31   C     C_3   0.654365 0.248286 0.889647 -0.055614
C32   C     C_3   0.714423 0.269556 0.765265 -0.369973
C33   C     C_3   0.993978 0.416791 0.857062 -0.006140
C34   C     C_3   0.916977 0.499124 0.498794 0.005933
C35   C     C_3   0.030755 0.389338 0.002422 -0.366587
C36   C     C_3   0.028483 0.611727 0.461639 -0.130949
C37   C     C_3   0.972103 0.527277 0.368520 -0.122366
C38   C     C_1   0.174434 0.498385 0.500451 0.000218
C39   C     C_1   0.825346 0.500239 0.498652 -0.075129
C40   C     C_3   0.515676 0.069789 0.649134 -0.218475
Cu1   Cu    Cu3+1 0.500040 0.499860 0.642410 0.982444
Cu2   Cu    Cu3+1 0.499960 0.500140 0.357590 0.893980
H1    H     H_    0.052313 0.344359 0.330336 0.113835
H2    H     H_    0.453771 0.688186 0.880288 0.124340
H3    H     H_    0.634463 0.473127 0.122121 0.088787
H4    H     H_    0.634361 0.476055 0.882409 0.130210
H5    H     H_    0.419019 0.344226 0.120404 0.125711
H6    H     H_    0.367293 0.490658 0.122736 0.139478
H7    H     H_    0.367029 0.500572 0.882273 0.126038
H8    H     H_    0.414451 0.351287 0.874385 0.166608
H9    H     H_    0.572662 0.334981 0.127491 0.131003
H10   H     H_    0.947908 0.550915 0.261572 0.115089
H11   H     H_    0.053512 0.704162 0.430263 0.125991
H12   H     H_    0.483105 0.889198 0.732109 0.142843
H13   H     H_    0.947497 0.653770 0.668247 0.108605
H14   H     H_    0.465691 0.097496 0.725505 0.150180
H15   H     H_    0.576214 0.107271 0.688089 0.186162
H16   H     H_    0.588886 0.902254 0.665284 0.172342
H17   H     H_    0.676560 0.225542 0.270272 0.131940
H18   H     H_    0.698327 0.061631 0.243544 0.119126
H19   H     H_    0.812408 0.071177 0.422384 0.157312
H20   H     H_    0.829494 0.184141 0.283027 0.095639
H21   H     H_    0.790038 0.233154 0.453116 0.153296
H22   H     H_    0.643093 0.147067 0.901260 0.142375
H23   H     H_    0.548369 0.109125 0.286073 0.097043
H24   H     H_    0.686435 0.277222 0.988867 0.077364
H25   H     H_    0.681101 0.257450 0.663245 0.211495
H26   H     H_    0.741567 0.364425 0.769437 0.126728
H27   H     H_    0.767287 0.202256 0.770886 0.098625
H28   H     H_    0.956866 0.334289 0.823253 0.122655
H29   H     H_    0.951198 0.498127 0.866801 0.121558
H30   H     H_    0.066319 0.471218 0.041501 0.162080
H31   H     H_    0.978964 0.367594 0.077935 0.083465
H32   H     H_    0.073936 0.308480 0.996783 0.169525
H33   H     H_    0.623124 0.888730 0.409068 0.151171
H34   H     H_    0.541892 0.900315 0.279320 0.093272
H35   H     H_    0.399466 0.105278 0.339884 0.097830
H36   H     H_    0.561510 0.676952 0.131256 0.131439
H37   H     H_    0.945881 0.291998 0.566902 0.095490
H38   H     H_    0.449848 0.680902 0.121488 0.158763
N1    N     N_3   0.501840 0.500250 0.143650 -0.264340
N2    N     N_3   0.501160 0.503300 0.856280 -0.228654
N3    N     N_1   0.284457 0.186843 0.590478 -0.284291
N4    N     N_1   0.295683 0.846990 0.654779 -0.290808
N5    N     N_1   0.346821 0.843751 0.218758 -0.326659
N6    N     N_1   0.648151 0.744180 0.839055 -0.352057
O1    O     O_R   0.500050 0.317570 0.620260 -0.454682
O2    O     O_3   0.574883 0.306721 0.866815 -0.554803
O3    O     O_3   0.060325 0.441572 0.761172 -0.541118
O4    O     O_R   0.499980 0.317810 0.379740 -0.531089
O5    O     O_R   0.379110 0.499870 0.620240 -0.501052
O6    O     O_R   0.379040 0.500110 0.379720 -0.509811
O7    O     O_R   0.500020 0.682190 0.620260 -0.504506
O8    O     O_R   0.499950 0.682430 0.379740 -0.513443
O9    O     O_R   0.620960 0.499890 0.620280 -0.485281
O10   O     O_R   0.620890 0.500130 0.379760 -0.511751
O11   O     O_3   0.645963 0.110048 0.438962 -0.577024

loop_
_geom_bond_atom_site_label_1
_geom_bond_atom_site_label_2
_ccdc_geom_bond_type
C1    O1    A    
C31   H24   S    
C35   H32   S    
C1    O4    A    
C20   C37   S    
C34   C37   S    
C8    C26   S    
Cu1   Cu2   S    
C2    C7    S    
C3    C6    S    
C24   O3    S    
C10   H36   S    
C7    C8    S    
C16   O7    A    
Cu2   O10   S    
C8    C29   S    
C36   C37   S    
C27   H18   S    
C5    C6    S    
Cu1   N2    S    
C13   N1    S    
C18   O10   A    
C17   N2    S    
C36   H11   S    
C13   H9    S    
Cu1   O7    S    
C21   C38   T    
C19   C20   S    
C11   C30   S    
C40   H14   S    
C27   O11   S    
C23   C24   S    
C31   O2    S    
C9    H34   S    
C30   N6    T    
C29   N5    T    
C32   H26   S    
C4    O5    A    
C28   H19   S    
C18   C22   S    
C18   O9    A    
C14   C17   S    
Cu2   N1    S    
C15   N2    S    
C11   N2    S    
Cu1   O1    S    
C34   C39   S    
C3    C25   S    
C5    H23   S    
C3    C8    S    
C2    H12   S    
C17   H7    S    
C37   H10   S    
C10   H38   S    
C14   H6    S    
C1    C6    S    
Cu2   O4    S    
C5    C9    S    
C33   O3    S    
C31   C32   S    
C23   C34   S    
C12   C20   S    
C11   H2    S    
C19   H37   S    
C14   H5    S    
C33   H28   S    
C32   H25   S    
C7    C16   S    
Cu1   O5    S    
C5    O11   S    
C35   H30   S    
C13   C15   S    
C6    C40   S    
C12   C36   S    
C3    H35   S    
C20   H1    S    
C7    C9    S    
C35   H31   S    
C26   N4    T    
C40   H15   S    
Cu2   O8    S    
C31   H22   S    
C19   C34   S    
C17   H8    S    
C2    H16   S    
C23   H13   S    
C32   H27   S    
C12   C24   S    
C10   N1    S    
C16   O8    A    
C14   N1    S    
C19   C24   S    
C27   H17   S    
C13   H3    S    
C4    C21   S    
Cu1   O9    S    
C22   C39   T    
C33   C35   S    
Cu2   O6    S    
C12   C38   S    
C10   C11   S    
C33   H29   S    
C28   H21   S    
C2    C40   S    
C23   C36   S    
C27   C28   S    
C25   N3    T    
C9    H33   S    
C15   H4    S    
C15   O2    S    
C4    O6    A    
C28   H20   S    
