data_mof_unit_16332.cif
_audit_creation_date              2012-12-11T17:00:26-0500
_audit_creation_method            fapswitch 2.2
_symmetry_space_group_name_H-M    P1
_symmetry_Int_Tables_number       1
_space_group_crystal_system       triclinic
_cell_length_a                    6.959477
_cell_length_b                    13.609838
_cell_length_c                    20.225991
_cell_angle_alpha                 102.880765
_cell_angle_beta                  89.276027
_cell_angle_gamma                 90.969463
_cell_volume                      1867.19999571

loop_
_atom_site_label
_atom_site_type_symbol
_atom_type_description
_atom_site_fract_x
_atom_site_fract_y
_atom_site_fract_z
_atom_type_partial_charge
O1    O     O_R   0.506770 0.599700 0.449550 -0.542204
O2    O     O_R   0.179980 0.595740 0.587960 -0.534700
O3    O     O_R   0.004580 0.400300 0.550450 -0.512925
C1    C     C_R   0.347440 0.614991 0.615877 0.778375
O4    O     O_R   0.177380 0.611700 0.452380 -0.525661
O5    O     O_R   0.001970 0.416370 0.413900 -0.550388
C2    C     C_R   0.346951 0.637937 0.435275 0.787204
O6    O     O_R   0.509390 0.583630 0.586100 -0.540801
O7    O     O_3   0.337530 0.435890 0.487530 -0.379769
V1    V     V_3+5 0.064660 0.511890 0.502310 1.530804
O8    O     O_R   0.671950 0.404260 0.412040 -0.548638
C3    C     C_R   0.840924 0.383018 0.384683 0.686911
O9    O     O_R   0.674540 0.388300 0.547620 -0.547609
C4    C     C_R   0.840456 0.361487 0.564695 0.735804
V2    V     V_3+5 0.564030 0.488110 0.497690 1.480813
O10   O     O_3   0.841030 0.564110 0.512470 -0.366918
C5    C     C_R   0.619436 0.149378 0.626497 -0.066436
H1    H     H_    0.628679 0.194620 0.532606 0.133371
H2    H     H_    0.508648 0.094524 0.607064 0.186996
C6    C     C_R   0.828498 0.282166 0.603884 -0.089092
C7    C     C_R   0.976930 0.308130 0.925079 -0.161105
C8    C     C_R   0.005188 0.382006 0.888188 -0.123818
C9    C     C_R   0.947288 0.364548 0.820866 -0.082199
C10   C     C_R   0.861103 0.271801 0.788635 0.108950
C11   C     C_R   0.802639 0.204933 0.830291 0.060126
C12   C     C_R   0.818832 0.246521 0.717735 -0.005119
C13   C     C_R   0.680093 0.168028 0.694151 0.023834
C14   C     C_R   0.601202 0.111739 0.739190 -0.006183
C15   C     C_R   0.670952 0.127331 0.804906 -0.220778
C16   C     C_R   0.906238 0.296440 0.669282 0.301050
C17   C     C_R   0.690297 0.206337 0.582793 -0.193811
C18   C     C_R   0.873860 0.219538 0.897273 -0.091442
H3    H     H_    0.032799 0.320791 0.976109 0.119563
H4    H     H_    0.962290 0.426550 0.795972 0.158689
H5    H     H_    0.075088 0.452680 0.911541 0.122464
H6    H     H_    0.614549 0.079270 0.836544 0.160208
C19   C     C_R   0.708046 0.182605 0.227733 0.112417
C20   C     C_R   0.865794 0.183858 0.184270 -0.118932
C21   C     C_R   0.022869 0.246921 0.210013 -0.146537
H7    H     H_    0.146654 0.251420 0.178061 0.155099
C22   C     C_R   0.016396 0.310025 0.275523 -0.124436
H8    H     H_    0.135494 0.361124 0.292153 0.166070
C23   C     C_R   0.852202 0.312469 0.317229 -0.116177
C24   C     C_R   0.701378 0.245408 0.292561 0.097795
C25   C     C_3   0.495167 0.268327 0.285904 -0.403582
C26   C     C_3   0.502617 0.200763 0.215399 -0.398483
H9    H     H_    0.473095 0.349011 0.285749 0.198534
H10   H     H_    0.401970 0.237631 0.321785 0.164420
H11   H     H_    0.485529 0.242149 0.174274 0.188562
H12   H     H_    0.412345 0.131738 0.210528 0.159235
C27   C     C_R   0.506647 0.747704 0.705069 0.141306
C28   C     C_R   0.351233 0.682935 0.684137 -0.107528
C29   C     C_R   0.194035 0.687971 0.729316 -0.156464
H13   H     H_    0.071833 0.637850 0.715656 0.142844
C30   C     C_R   0.198793 0.752644 0.794366 -0.147161
H14   H     H_    0.080940 0.749987 0.829245 0.124344
C31   C     C_R   0.358897 0.815877 0.815656 -0.096056
C32   C     C_R   0.509815 0.814359 0.768479 0.065327
C33   C     C_3   0.719601 0.797954 0.775809 -0.220775
C34   C     C_3   0.712722 0.722387 0.707721 -0.441704
H15   H     H_    0.749339 0.763403 0.819472 0.115607
H16   H     H_    0.730927 0.643230 0.712463 0.152902
H17   H     H_    0.797772 0.742780 0.665756 0.227370
C35   C     C_R   0.286959 0.887466 0.388134 -0.192261
H18   H     H_    0.268262 0.011037 0.304367 0.120440
H19   H     H_    0.256548 0.964885 0.412936 0.150653
C36   C     C_R   0.353087 0.716907 0.396472 -0.139911
C37   C     C_R   0.364630 0.682241 0.068434 -0.250568
C38   C     C_R   0.343242 0.605267 0.102979 -0.123382
C39   C     C_R   0.320599 0.626511 0.173483 0.380708
C40   C     C_R   0.332827 0.728369 0.211731 0.014326
C41   C     C_R   0.333758 0.806612 0.174832 0.023966
C42   C     C_R   0.335883 0.756881 0.284415 0.105577
C43   C     C_R   0.303933 0.859135 0.317327 0.069891
C44   C     C_R   0.290455 0.932747 0.279574 -0.174615
C45   C     C_R   0.311249 0.907422 0.209706 -0.168117
C46   C     C_R   0.377304 0.689162 0.325943 -0.225783
C47   C     C_R   0.303627 0.816091 0.427389 0.389703
C48   C     C_R   0.353439 0.782608 0.103318 -0.069639
H20   H     H_    0.430247 0.614737 0.304990 0.183087
H21   H     H_    0.380471 0.663350 0.013700 0.121430
H22   H     H_    0.336546 0.528025 0.074108 0.155839
H23   H     H_    0.303943 0.967524 0.182868 0.107859
O11   O     O_R   0.203450 0.916320 0.913910 -0.506879
O12   O     O_R   0.535520 0.888300 0.047620 -0.542392
O13   O     O_R   0.710860 0.083650 0.086100 -0.541773
C49   C     C_R   0.365428 0.861178 0.063985 0.686738
O14   O     O_R   0.532860 0.904250 0.912040 -0.549018
O15   O     O_R   0.708190 0.099710 0.949550 -0.545622
C50   C     C_R   0.365118 0.882647 0.884692 0.724022
O16   O     O_R   0.206120 0.900260 0.050460 -0.545214
O17   O     O_3   0.375280 0.064080 0.012470 -0.379233
V3    V     V_3+5 0.648180 0.988110 0.997690 1.454968
O18   O     O_R   0.038220 0.111740 0.952370 -0.523541
C51   C     C_R   0.871417 0.138573 0.935314 0.764383
O19   O     O_R   0.040880 0.095790 0.087940 -0.552793
C52   C     C_R   0.872135 0.117830 0.115054 0.683072
V4    V     V_3+5 0.148800 0.011950 0.002300 1.480945
O20   O     O_3   0.871820 0.935920 0.987530 -0.360809
C53   C     C_2   0.837299 0.891438 0.774501 0.805425
O21   O     O_2   0.907200 0.939675 0.827040 -0.551178
O22   O     O_R   0.867546 0.922859 0.713823 -0.636163
H24   H     H_    0.949815 0.986301 0.719904 0.331543
C54   C     C_2   0.446495 0.034561 0.720347 0.762360
O23   O     O_2   0.308033 0.035388 0.758305 -0.563574
O24   O     O_R   0.462560 0.958222 0.661722 -0.628205
H25   H     H_    0.348576 0.909848 0.656026 0.341218
Cl1   Cl    Cl    0.262509 0.853298 0.515308 -0.656934
Cl2   Cl    Cl    0.237150 0.523437 0.206202 -0.742401
Cl3   Cl    Cl    0.128932 0.362545 0.683194 -0.707707

loop_
_geom_bond_atom_site_label_1
_geom_bond_atom_site_label_2
_ccdc_geom_bond_type
C30   H14   S    
C49   O16   A    
C22   H8    S    
C36   C46   A    
C41   C45   A    
C48   C49   S    
O17   V4    S    
C21   C22   A    
C6    C16   A    
C25   C26   S    
C28   C29   A    
C8    H5    S    
C15   H6    S    
C12   C13   A    
C1    C28   S    
C34   H17   S    
C37   H21   S    
C47   Cl1   S    
C14   C15   A    
O13   V3    S    
C10   C12   A    
C41   C48   A    
O5    C3    A    
C20   C21   A    
C46   H20   S    
C7    H3    S    
O24   H25   S    
O18   V4    S    
V2    O10   S    
C34   H16   S    
C42   C43   A    
C25   H9    S    
O13   C52   A    
O17   V3    S    
C38   H22   S    
O12   V3    S    
C37   C38   A    
O19   V4    S    
C9    C10   A    
C39   C40   A    
O1    V2    S    
O7    V1    S    
V3    O20   S    
C1    O6    A    
C11   C18   A    
O12   C49   A    
C33   C34   S    
O9    C4    A    
C33   C53   S    
C22   C23   A    
O22   H24   S    
C36   C47   A    
O11   C50   A    
C20   C52   S    
C45   H23   S    
C54   O24   S    
C54   O23   D    
C29   C30   A    
C11   C15   A    
C7    C18   A    
C33   H15   S    
C31   C50   S    
C27   C28   A    
C5    C13   A    
C4    C6    S    
C10   C11   A    
C43   C44   A    
C21   H7    S    
C40   C42   A    
C32   C33   S    
C29   H13   S    
C35   H19   S    
O15   C51   A    
O2    C1    A    
C44   C45   A    
C19   C20   A    
C39   Cl2   S    
C14   C54   S    
C26   H11   S    
C9    H4    S    
O19   C52   A    
C53   O22   S    
O18   C51   A    
C27   C32   A    
O3    C4    A    
C16   Cl3   S    
C12   C16   A    
O6    V2    S    
O8    V2    S    
O9    V2    S    
C23   C24   A    
C5    C17   A    
O2    V1    S    
C24   C25   S    
O4    C2    A    
C25   H10   S    
O14   V3    S    
C42   C46   A    
O1    C2    A    
C35   C47   A    
O14   C50   A    
O5    V1    S    
O8    C3    A    
H1    C17   S    
C3    C23   S    
C26   H12   S    
H18   C44   S    
O11   V4    S    
C19   C24   A    
C30   C31   A    
O7    V2    S    
O4    V1    S    
O3    V1    S    
V1    O10   S    
C31   C32   A    
C37   C48   A    
C53   O21   D    
C5    H2    S    
O16   V4    S    
O15   V3    S    
C38   C39   A    
C2    C36   S    
C40   C41   A    
C18   C51   S    
V4    O20   S    
C13   C14   A    
C35   C43   A    
C8    C9    A    
C27   C34   S    
C19   C26   S    
C7    C8    A    
C6    C17   A    
