data_mof_unit_62744.cif
_audit_creation_date              2013-03-05T15:54:10-0500
_audit_creation_method            fapswitch 2.2
_symmetry_space_group_name_H-M    P1
_symmetry_Int_Tables_number       1
_space_group_crystal_system       triclinic
_cell_length_a                    8.31056
_cell_length_b                    15.067505
_cell_length_c                    16.455673
_cell_angle_alpha                 97.95303
_cell_angle_beta                  92.981982
_cell_angle_gamma                 97.894051
_cell_volume                      2016.10703408

loop_
_atom_site_label
_atom_site_type_symbol
_atom_site_description
_atom_site_fract_x
_atom_site_fract_y
_atom_site_fract_z
_atom_type_partial_charge
P1    P     P_3+3 0.987060 0.708150 0.571770 0.497626
O1    O     O_2   0.162570 0.722330 0.548140 -0.362881
O2    O     O_3   0.890730 0.608900 0.545420 -0.365813
O3    O     O_3   0.394120 0.666550 0.400060 -0.314631
O4    O     O_2   0.306245 0.824736 0.460840 -0.403323
O5    O     O_3   0.007147 0.733577 0.679212 -0.552350
O6    O     O_3   0.393641 0.812249 0.311055 -0.563017
C1    C     C_3   0.590329 0.846431 0.214812 -0.967738
H1    H     H_    0.506962 0.886154 0.185170 0.299608
H2    H     H_    0.672240 0.892973 0.262349 0.228316
P2    P     P_3+3 0.349540 0.428350 0.313090 0.559269
P3    P     P_3+3 0.942888 0.616700 0.250592 0.560054
O7    O     O_2   0.182040 0.455740 0.301680 -0.330382
O8    O     O_3   0.971530 0.620720 0.357690 -0.342003
O9    O     O_2   0.064293 0.557588 0.210862 -0.291288
O10   O     O_3   0.311199 0.310394 0.286772 -0.542617
O11   O     O_3   0.005578 0.724898 0.225660 -0.470307
C2    C     C_3   0.984293 0.789752 0.292892 0.481325
H3    H     H_    0.065117 0.783737 0.347067 0.154723
H4    H     H_    0.855954 0.781766 0.309599 -0.003004
C3    C     C_3   0.029036 0.884367 0.270644 -0.885513
H5    H     H_    0.159290 0.895930 0.257482 0.298909
H6    H     H_    0.953616 0.892578 0.215270 0.264319
C4    C     C_3   0.767898 0.347726 0.288292 0.265152
H7    H     H_    0.862821 0.407711 0.306530 0.124346
C5    C     C_3   0.752226 0.325049 0.194768 0.084893
H8    H     H_    0.661526 0.263360 0.175493 0.173396
H9    H     H_    0.710803 0.381340 0.166989 0.049410
Ba1   Ba    Ba6+2 0.163630 0.544320 0.462600 1.678227
C6    C     C_3   0.039987 0.657659 0.713406 0.381544
H10   H     H_    0.154516 0.637292 0.691256 0.091069
H11   H     H_    0.938367 0.600760 0.697487 0.118198
C7    C     C_3   0.059503 0.682758 0.806576 -0.880968
H12   H     H_    0.164821 0.737159 0.824398 0.280385
H13   H     H_    0.080387 0.623180 0.836121 0.210054
C8    C     C_3   0.250475 0.270657 0.353072 0.454683
H14   H     H_    0.349362 0.274364 0.401896 0.127227
C9    C     C_3   0.184887 0.171570 0.322311 -0.868608
H15   H     H_    0.161256 0.133986 0.374693 0.194383
H16   H     H_    0.274650 0.139303 0.285176 0.303032
P4    P     P_3+3 0.823240 0.291840 0.428170 0.584655
O12   O     O_2   0.647720 0.277620 0.451840 -0.326085
O13   O     O_3   0.919570 0.391090 0.454510 -0.329025
O14   O     O_3   0.416180 0.333440 0.599870 -0.300893
O15   O     O_3   0.809323 0.272138 0.320453 -0.507007
P5    P     P_3+3 0.859170 0.380425 0.749157 0.550834
O16   O     O_3   0.378690 0.546410 0.598100 -0.354853
O17   O     O_3   0.838770 0.379270 0.642240 -0.359895
O18   O     O_2   0.731143 0.435972 0.787171 -0.357161
O19   O     O_3   0.794536 0.270282 0.769134 -0.441716
Ba2   Ba    Ba6+2 0.646550 0.455670 0.537340 1.661102
P6    P     P_3+3 0.435775 0.784331 0.409081 0.457909
C10   C     C_3   0.493083 0.772380 0.253977 0.960009
H17   H     H_    0.579244 0.731802 0.280374 -0.034828
H18   H     H_    0.665487 0.815843 0.167715 0.246428
O20   O     O_3   0.431610 0.453580 0.401830 -0.334610
C11   C     C_3   0.552866 0.732484 0.666514 0.388097
H19   H     H_    0.669982 0.708567 0.651872 0.092489
H20   H     H_    0.466345 0.718018 0.610909 0.114967
C12   C     C_3   0.585302 0.834599 0.692682 -0.887279
H21   H     H_    0.673405 0.851522 0.747585 0.276999
H22   H     H_    0.637012 0.868468 0.642139 0.209084
H23   H     H_    0.469862 0.860429 0.707748 0.278618
P7    P     P_3+3 0.453981 0.573732 0.701739 0.466309
O21   O     O_2   0.628250 0.544210 0.698290 -0.367338
O22   O     O_3   0.486498 0.691377 0.731130 -0.560824
C13   C     C_3   0.826282 0.208208 0.701942 0.455140
H24   H     H_    0.752050 0.215008 0.645713 0.130168
H25   H     H_    0.956932 0.218913 0.690048 0.042742
C14   C     C_3   0.782379 0.111864 0.720305 -0.733145
H26   H     H_    0.822132 0.063334 0.670951 0.200927
H27   H     H_    0.843018 0.104461 0.780189 0.301674
P8    P     P_3+3 0.373903 0.215085 0.593347 0.508396
C15   C     C_3   0.307121 0.207750 0.744998 0.790470
O23   O     O_2   0.497833 0.174480 0.537821 -0.387711
O24   O     O_3   0.428085 0.189460 0.690795 -0.539104
H28   H     H_    0.227597 0.255305 0.724508 -0.119640
H29   H     H_    0.291473 0.267460 0.871612 0.099119
C16   C     C_3   0.387126 0.252757 0.829149 0.120670
H30   H     H_    0.462400 0.317814 0.822573 0.110436
C17   C     C_R   0.643662 0.829648 0.456412 0.170218
H31   H     H_    0.664907 0.703093 0.497384 0.197674
H32   H     H_    0.518151 0.957884 0.389010 0.218369
C18   C     C_R   0.886787 0.793762 0.524540 0.282842
C19   C     C_R   0.062367 0.231388 0.525713 0.037129
C20   C     C_R   0.162364 0.170956 0.549408 0.144965
C21   C     C_R   0.105093 0.078384 0.536451 -0.275453
C22   C     C_R   0.947863 0.044020 0.498072 0.002567
C23   C     C_R   0.857595 0.105606 0.460857 -0.203397
C24   C     C_R   0.879227 0.949850 0.494454 0.063660
C25   C     C_R   0.718928 0.920047 0.457335 -0.068695
C26   C     C_R   0.637810 0.979794 0.419489 -0.286727
C27   C     C_R   0.708541 0.067250 0.414548 0.543714
C28   C     C_R   0.961641 0.884208 0.527935 -0.267138
C29   C     C_R   0.727258 0.769328 0.492002 -0.445970
C30   C     C_R   0.918797 0.201629 0.474829 0.160833
H33   H     H_    0.082401 0.901046 0.557853 0.179372
H34   H     H_    0.185855 0.035181 0.557968 0.187284
C31   C     C_R   0.619904 0.541155 0.267814 0.075310
C32   C     C_R   0.471331 0.487255 0.240051 0.183400
C33   C     C_R   0.422936 0.472036 0.155624 -0.250345
C34   C     C_R   0.525588 0.508890 0.098705 0.223638
C35   C     C_R   0.682506 0.553787 0.127551 -0.269818
C36   C     C_R   0.731228 0.568347 0.211894 0.082301
C37   C     C_R   0.385519 0.510728 0.853039 -0.321582
C38   C     C_R   0.330513 0.511309 0.771381 0.280023
C39   C     C_R   0.282041 0.469340 0.907388 0.057813
N1    N     N_2   0.477282 0.503062 0.013076 -0.035293
N2    N     N_2   0.331586 0.470733 0.992515 0.002741
C40   C     C_R   0.172929 0.471238 0.743458 -0.494283
H35   H     H_    0.507012 0.544409 0.874115 0.192146
H36   H     H_    0.766192 0.577725 0.084346 0.190613
C41   C     C_R   0.067568 0.429472 0.794562 0.110183
C42   C     C_R   0.121805 0.428711 0.877311 0.311254
H37   H     H_    0.306099 0.431893 0.134939 0.219288
H38   H     H_    0.127977 0.478495 0.682625 0.209064
Cl1   Cl    Cl    0.365495 0.698818 0.175370 -0.573379
Cl2   Cl    Cl    0.943505 0.306228 0.156617 -0.467396
H39   H     H_    0.947351 0.707000 0.829304 0.265048
H40   H     H_    0.150371 0.304593 0.378756 0.093568
H41   H     H_    0.069788 0.166450 0.283402 0.285629
H42   H     H_    0.008008 0.935865 0.322645 0.211896
H43   H     H_    0.648968 0.094825 0.723085 0.287939
Cl3   Cl    Cl    0.184229 0.103441 0.754667 -0.638772
Cl4   Cl    Cl    0.513792 0.183405 0.874319 -0.431959
Cl5   Cl    Cl    0.116043 0.346022 0.564065 -0.613154
Cl6   Cl    Cl    0.602819 0.114340 0.339708 -0.626051
Cl7   Cl    Cl    0.989988 0.378547 0.944091 -0.488901
Cl8   Cl    Cl    0.665331 0.576105 0.373105 -0.601001
H44   H     H_    0.649706 0.363023 0.309836 0.047003

loop_
_geom_bond_atom_site_label_1
_geom_bond_atom_site_label_2
_geom_bond_distance
_ccdc_geom_bond_type
C15   Cl3   1.784309 S    
C21   C22   1.418495 A    
C33   C34   1.417873 A    
C2    C3    1.522383 S    
P4    O13   1.587705 S    
P4    O12   1.523711 D    
C22   C24   1.446705 A    
C11   O22   1.402805 S    
C12   H21   1.110634 S    
C24   C25   1.422866 A    
C10   H17   1.112019 S    
P1    C18   1.862191 S    
H32   C26   1.077752 S    
C37   C39   1.419623 A    
P5    O18   1.546870 D    
C5    H8    1.110776 S    
C15   O24   1.408360 S    
Ba1   O16   2.778048 S    
O1    Ba1   2.852806 S    
C4    O15   1.396889 S    
O7    Ba1   2.817296 S    
C8    H14   1.109173 S    
C4    C5    1.524343 S    
O6    P6    1.752449 S    
P3    C36   1.852970 S    
Ba1   Ba2   4.562593 S    
C6    H10   1.103785 S    
C17   C29   1.389278 A    
C19   C30   1.403917 A    
C10   Cl1   1.778711 S    
C11   H20   1.111345 S    
P4    C30   1.894614 S    
N1    N2    1.252037 D    
C12   H22   1.109624 S    
C2    H3    1.109471 S    
Ba2   O21   2.817363 S    
C3    H42   1.110830 S    
O2    Ba1   2.916955 S    
C32   C33   1.404592 A    
C14   H43   1.107971 S    
O17   Ba2   2.761319 S    
C1    H1    1.111623 S    
C15   H28   1.112489 S    
P3    O11   1.752591 S    
O4    P6    1.544928 D    
C34   N1    1.432344 S    
C14   H26   1.110566 S    
C6    H11   1.110310 S    
O19   C13   1.406734 S    
C2    H4    1.109981 S    
O3    Ba1   2.807259 S    
C6    C7    1.522089 S    
O12   Ba2   2.853237 S    
C21   H34   1.076411 S    
C31   C36   1.399772 A    
C16   Cl4   1.785563 S    
C3    H5    1.109980 S    
Ba1   O13   2.839490 S    
C39   N2    1.435883 S    
C19   Cl5   1.743014 S    
O14   P8    1.756746 S    
Ba2   O20   2.777577 S    
C1    H18   1.110756 S    
C24   C28   1.431263 A    
C37   H35   1.082310 S    
P5    O17   1.756181 S    
C31   Cl8   1.745473 S    
P1    O5    1.750679 S    
C4    H7    1.110725 S    
O16   P7    1.758832 S    
O2    Ba2   2.840105 S    
C20   C21   1.393678 A    
C11   C12   1.521860 S    
O16   Ba2   2.917819 S    
C28   H33   1.076104 S    
C19   C20   1.394336 A    
C13   H24   1.109706 S    
P2    C32   1.852504 S    
P1    O2    1.587727 S    
C18   C29   1.384712 A    
P7    O22   1.751206 S    
C27   Cl6   1.758568 S    
C39   C42   1.420091 A    
C42   Cl7   1.762569 S    
P2    O10   1.750702 S    
C31   C32   1.398583 A    
P3    O9    1.546940 D    
P1    Ba1   3.393550 S    
O11   C2    1.406720 S    
C18   C28   1.410594 A    
C40   C41   1.393426 A    
O14   Ba2   2.806567 S    
O5    C6    1.395523 S    
O3    P6    1.744789 S    
C7    H39   1.110853 S    
C15   C16   1.529704 S    
C3    H6    1.109755 S    
C33   H37   1.082514 S    
P8    O24   1.751354 S    
C12   H23   1.110830 S    
O6    C10   1.409615 S    
O8    Ba1   2.760829 S    
C40   H38   1.075266 S    
C25   C26   1.389571 A    
C41   C42   1.413997 A    
C38   C40   1.390748 A    
H31   C29   1.076817 S    
P5    C41   1.861424 S    
H29   C16   1.110217 S    
C5    Cl2   1.783223 S    
P3    O8    1.757588 S    
C1    C10   1.522805 S    
P6    C17   1.856466 S    
P7    C38   1.845621 S    
Ba1   O20   2.918715 S    
C37   C38   1.398262 A    
P5    O19   1.753645 S    
C5    H9    1.103626 S    
C13   C14   1.522867 S    
P7    O21   1.573882 D    
C23   C30   1.448624 A    
C8    C9    1.523478 S    
O10   C8    1.399464 S    
C9    H16   1.109559 S    
P2    O7    1.515037 D    
O13   Ba2   2.917878 S    
C11   H19   1.109935 S    
C9    H15   1.106531 S    
P1    O1    1.523392 D    
C26   C27   1.382192 A    
C7    H13   1.107773 S    
C7    H12   1.110709 S    
P8    O23   1.544746 D    
C23   C27   1.425628 A    
C34   C35   1.409959 A    
C8    H40   1.107166 S    
P8    C20   1.862561 S    
C9    H41   1.110500 S    
C16   H30   1.109896 S    
C17   C25   1.416345 A    
C4    H44   1.104270 S    
C22   C23   1.448999 A    
P2    Ba1   3.382430 S    
C1    H2    1.108488 S    
C35   C36   1.404029 A    
P4    O15   1.751304 S    
C35   H36   1.082944 S    
C14   H27   1.109803 S    
C13   H25   1.107236 S    
P4    Ba2   3.394107 S    
P2    O20   1.553593 S    
