data_mof_unit_52846.cif
_audit_creation_date              2012-12-10T18:43:05-0500
_audit_creation_method            fapswitch 2.2
_symmetry_space_group_name_H-M    P1
_symmetry_Int_Tables_number       1
_space_group_crystal_system       triclinic
_cell_length_a                    10.664889
_cell_length_b                    9.9124
_cell_length_c                    10.70291
_cell_angle_alpha                 90.575754
_cell_angle_beta                  91.733729
_cell_angle_gamma                 92.606763
_cell_volume                      1129.6921486

loop_
_atom_site_label
_atom_site_type_symbol
_atom_type_description
_atom_site_fract_x
_atom_site_fract_y
_atom_site_fract_z
_atom_type_partial_charge
C1    C     C_R   0.259881 0.496114 0.505901 0.863220
C2    C     C_R   0.739575 0.503258 0.501697 0.827880
C3    C     C_R   0.499015 0.499184 0.262612 0.930418
C4    C     C_R   0.506133 0.500863 0.737395 0.900836
C5    C     C_2   0.532741 0.389787 0.933295 -0.140619
C6    C     C_2   0.539875 0.393779 0.067984 -0.154243
C7    C     C_2   0.526687 0.504140 0.869160 -0.312915
C8    C     C_2   0.493970 0.496932 0.130268 -0.317551
C9    C     C_R   0.052742 0.393987 0.447133 0.008647
C10   C     C_R   0.931435 0.429150 0.416959 -0.015520
C11   C     C_R   0.872561 0.510333 0.503422 -0.241425
C12   C     C_R   0.126655 0.486035 0.522584 -0.271133
C13   C     C_R   0.939897 0.579348 0.602253 -0.031824
C14   C     C_R   0.071098 0.578045 0.603253 -0.033015
C15   C     C_R   0.576217 0.073971 0.582977 0.166095
C16   C     C_R   0.430150 0.065985 0.411072 0.117658
C17   C     C_R   0.572303 0.930881 0.583947 -0.089184
C18   C     C_R   0.429349 0.922136 0.414401 -0.047198
H1    H     H_    0.529937 0.291375 0.887444 0.165381
H2    H     H_    0.579632 0.308886 0.115983 0.164015
H3    H     H_    0.540053 0.603178 0.912911 0.160530
H4    H     H_    0.449637 0.580667 0.085145 0.150222
H5    H     H_    0.629999 0.878009 0.650544 0.129422
H6    H     H_    0.375557 0.860134 0.346939 0.141631
N1    N     N_R   0.500000 0.857200 0.500000 -0.108879
N2    N     N_R   0.500000 0.142810 0.500000 -0.115256
O1    O     O_R   0.316770 0.614620 0.499990 -0.606857
O2    O     O_R   0.683230 0.614620 0.500010 -0.621256
O3    O     O_R   0.316800 0.385290 0.500000 -0.653867
O4    O     O_R   0.683200 0.385290 0.500000 -0.633648
O5    O     O_R   0.500000 0.614630 0.319080 -0.609962
O6    O     O_R   0.500000 0.614630 0.680920 -0.629667
O7    O     O_R   0.500030 0.385300 0.319080 -0.645420
O8    O     O_R   0.499970 0.385300 0.680920 -0.634113
Zn1   Zn    Zn3+2 0.500000 0.653120 0.500000 0.952095
Zn2   Zn    Zn3+2 0.500000 0.346880 0.500000 0.914736
C19   C     C_2   0.088353 0.251256 0.427714 0.380590
H7    H     H_    0.167093 0.211376 0.478741 0.102706
O9    O     O_2   0.023017 0.171162 0.364096 -0.558256
C20   C     C_2   0.867374 0.384470 0.296355 0.508613
H8    H     H_    0.766574 0.388467 0.282745 0.049567
O10   O     O_2   0.928066 0.350223 0.207397 -0.539168
C21   C     C_2   0.873580 0.643862 0.706577 0.443299
H9    H     H_    0.787544 0.695351 0.689568 0.070621
O11   O     O_2   0.913064 0.636082 0.814436 -0.541918
C22   C     C_2   0.150144 0.666123 0.691017 0.538293
H10   H     H_    0.238267 0.631296 0.729040 0.042399
O12   O     O_2   0.119586 0.779708 0.718265 -0.554169
C23   C     C_3   0.673057 0.143199 0.671042 -0.432602
C24   C     C_3   0.807179 0.119884 0.629589 -0.345398
C25   C     C_3   0.904665 0.194329 0.715596 -0.786247
H11   H     H_    0.891399 0.304760 0.713896 0.261445
H12   H     H_    0.896473 0.157987 0.812972 0.272735
H13   H     H_    0.000431 0.175385 0.683668 0.251217
H14   H     H_    0.825436 0.010408 0.630758 0.228987
H15   H     H_    0.818521 0.156535 0.532601 0.263254
H16   H     H_    0.663209 0.251724 0.678277 0.269942
H17   H     H_    0.660598 0.103033 0.766754 0.178262
C26   C     C_3   0.369918 0.133564 0.299231 -0.396860
C27   C     C_3   0.271868 0.047865 0.220957 -0.441926
C28   C     C_3   0.211349 0.132304 0.118865 -0.706541
H18   H     H_    0.165176 0.219643 0.160198 0.297456
H19   H     H_    0.283524 0.170394 0.053571 0.238154
H20   H     H_    0.139492 0.069047 0.065183 0.266012
H21   H     H_    0.317576 0.963573 0.173732 0.222124
H22   H     H_    0.197814 0.005652 0.282139 0.270530
H23   H     H_    0.323999 0.224324 0.331217 0.250732
H24   H     H_    0.446347 0.163607 0.235941 0.216914

loop_
_geom_bond_atom_site_label_1
_geom_bond_atom_site_label_2
_ccdc_geom_bond_type
C28   H20   S    
C6    C8    D    
C21   H9    S    
O6    Zn1   S    
C15   C17   A    
C19   H7    S    
C5    H1    S    
C26   H24   S    
C11   C13   A    
C9    C10   A    
C8    H4    S    
C24   H14   S    
O4    Zn2   S    
C2    O4    A    
C25   H13   S    
O1    Zn1   S    
C1    O3    A    
C24   C25   S    
C27   H22   S    
C26   C27   S    
C19   O9    D    
C16   C18   A    
C4    O6    A    
C13   C14   A    
C3    O5    A    
C5    C6    S    
C21   O11   D    
O3    Zn2   S    
C17   H5    S    
C1    C12   S    
C6    H2    S    
N1    Zn1   S    
C4    C7    S    
C18   H6    S    
C2    C11   S    
C20   O10   D    
C20   H8    S    
C12   C14   A    
C27   H21   S    
C3    C8    S    
O8    Zn2   S    
C15   C23   S    
C4    O8    A    
C16   N2    A    
C28   H18   S    
C9    C12   A    
O5    Zn1   S    
C9    C19   S    
C10   C11   A    
C3    O7    A    
C25   H12   S    
C18   N1    A    
C25   H11   S    
C22   O12   D    
C13   C21   S    
O7    Zn2   S    
C23   H16   S    
C1    O1    A    
C23   C24   S    
N2    Zn2   S    
C5    C7    D    
C17   N1    A    
C22   H10   S    
C10   C20   S    
C2    O2    A    
C14   C22   S    
C26   H23   S    
C7    H3    S    
C28   H19   S    
C24   H15   S    
C23   H17   S    
O2    Zn1   S    
C27   C28   S    
C15   N2    A    
C16   C26   S    
