data_mof_unit_17532.cif
_audit_creation_date              2012-12-11T16:26:30-0500
_audit_creation_method            fapswitch 2.2
_symmetry_space_group_name_H-M    P1
_symmetry_Int_Tables_number       1
_space_group_crystal_system       triclinic
_cell_length_a                    6.936948
_cell_length_b                    17.488941
_cell_length_c                    19.509623
_cell_angle_alpha                 108.624221
_cell_angle_beta                  89.496121
_cell_angle_gamma                 90.616196
_cell_volume                      2242.79286514

loop_
_atom_site_label
_atom_site_type_symbol
_atom_type_description
_atom_site_fract_x
_atom_site_fract_y
_atom_site_fract_z
_atom_type_partial_charge
O1    O     O_R   0.494330 0.415720 0.413720 -0.530102
O2    O     O_R   0.819330 0.430070 0.560210 -0.538582
O3    O     O_R   0.994320 0.584280 0.586280 -0.541451
C1    C     C_R   0.650277 0.416745 0.583310 0.762705
O4    O     O_R   0.823730 0.406300 0.412670 -0.538301
O5    O     O_R   0.998760 0.560340 0.437690 -0.543941
C2    C     C_R   0.654941 0.382504 0.385596 0.809508
O6    O     O_R   0.489890 0.439660 0.562310 -0.536826
O7    O     O_3   0.662340 0.550560 0.508380 -0.374444
V1    V     V_3+5 0.935370 0.490620 0.498450 1.444544
O8    O     O_R   0.328750 0.569930 0.439790 -0.535192
C3    C     C_R   0.161349 0.582934 0.416401 0.696139
O9    O     O_R   0.324340 0.593700 0.587330 -0.541187
C4    C     C_R   0.155418 0.616564 0.614938 0.687519
V2    V     V_3+5 0.435940 0.509380 0.501550 1.452780
O10   O     O_3   0.159100 0.449440 0.491620 -0.365054
H1    H     H_    0.872915 0.853127 0.571751 0.116183
C5    C     C_R   0.290727 0.601068 0.749817 -0.148927
C6    C     C_R   0.355521 0.591376 0.813901 -0.124557
C7    C     C_R   0.343247 0.654771 0.878453 -0.118855
C8    C     C_R   0.266070 0.728341 0.879424 -0.132119
C9    C     C_R   0.200712 0.740337 0.815088 0.070216
C10   C     C_R   0.213350 0.675349 0.748884 0.069009
C11   C     C_R   0.120122 0.814962 0.816205 -0.185431
C12   C     C_R   0.052206 0.824561 0.751063 0.068474
C13   C     C_R   0.064855 0.759576 0.684860 0.070393
C14   C     C_R   0.145433 0.684952 0.683743 -0.184168
C15   C     C_R   0.974790 0.898834 0.750130 -0.147108
C16   C     C_R   0.909969 0.908521 0.686048 -0.120851
C17   C     C_R   0.922265 0.845131 0.621496 -0.117403
C18   C     C_R   0.999488 0.771570 0.620524 -0.133526
H2    H     H_    0.300891 0.549431 0.701334 0.105416
H3    H     H_    0.414423 0.534142 0.813493 0.117518
H4    H     H_    0.392578 0.646774 0.928201 0.113883
H5    H     H_    0.256876 0.775232 0.931277 0.101043
H6    H     H_    0.964611 0.950471 0.798611 0.109904
H7    H     H_    0.851032 0.965747 0.686454 0.121318
H8    H     H_    0.008708 0.724684 0.568668 0.103189
C19   C     C_R   0.306445 0.624875 0.313200 0.292304
C20   C     C_R   0.155159 0.629135 0.364189 -0.173925
C21   C     C_R   0.995878 0.678872 0.365720 -0.247894
C22   C     C_R   0.986595 0.725740 0.319419 0.090053
C23   C     C_R   0.139551 0.723816 0.270820 -0.020468
C24   C     C_R   0.300424 0.673971 0.268106 0.059882
C25   C     C_R   0.826857 0.775029 0.321228 -0.160157
C26   C     C_R   0.817405 0.821447 0.274732 -0.187778
C27   C     C_R   0.967808 0.819669 0.225704 0.091699
C28   C     C_R   0.130444 0.771222 0.224134 0.071428
C29   C     C_R   0.283539 0.769844 0.175669 0.098256
C30   C     C_R   0.442731 0.720470 0.173436 -0.226360
C31   C     C_R   0.450683 0.672733 0.218720 -0.139985
C32   C     C_R   0.958520 0.865457 0.178276 -0.217395
C33   C     C_R   0.111990 0.865068 0.130468 -0.085528
C34   C     C_R   0.274535 0.817466 0.129937 -0.230165
H9    H     H_    0.879328 0.681946 0.403906 0.151256
H10   H     H_    0.708188 0.777221 0.358291 0.132582
H11   H     H_    0.691804 0.858496 0.276911 0.133138
H12   H     H_    0.833351 0.902487 0.179441 0.125936
H13   H     H_    0.392888 0.816421 0.092964 0.126473
H14   H     H_    0.561465 0.718611 0.136472 0.135169
H15   H     H_    0.576044 0.635223 0.215116 0.174193
C35   C     C_R   0.784483 0.182552 0.866706 -0.234365
C36   C     C_R   0.623121 0.133670 0.868280 -0.084289
C37   C     C_R   0.466301 0.132041 0.822418 -0.212433
C38   C     C_R   0.469670 0.178230 0.775357 0.084851
C39   C     C_R   0.630422 0.228144 0.774928 0.052407
C40   C     C_R   0.788053 0.230553 0.820967 0.093537
C41   C     C_R   0.314871 0.175456 0.728727 -0.186376
C42   C     C_R   0.317654 0.222752 0.682823 -0.164280
C43   C     C_R   0.475503 0.273512 0.682559 0.092523
C44   C     C_R   0.633478 0.275720 0.728369 0.051269
C45   C     C_R   0.794625 0.325319 0.727610 0.092582
C46   C     C_R   0.949185 0.328259 0.774397 -0.188751
C47   C     C_R   0.945881 0.281343 0.820670 -0.190084
C48   C     C_R   0.478893 0.321485 0.636876 -0.223132
C49   C     C_R   0.641634 0.369196 0.634160 -0.097986
C50   C     C_R   0.798739 0.370817 0.679911 -0.214073
H16   H     H_    0.905366 0.184466 0.902091 0.126409
H17   H     H_    0.341959 0.094050 0.822813 0.124234
H18   H     H_    0.190690 0.137120 0.728151 0.134650
H19   H     H_    0.195734 0.219861 0.647706 0.144751
H20   H     H_    0.357159 0.319935 0.601962 0.143090
H21   H     H_    0.923797 0.408200 0.678888 0.120403
H22   H     H_    0.073600 0.366417 0.774806 0.131707
H23   H     H_    0.067673 0.284346 0.855868 0.133874
C51   C     C_R   0.760249 0.402973 0.250053 -0.145677
C52   C     C_R   0.810249 0.415912 0.185301 -0.090729
C53   C     C_R   0.798402 0.353044 0.120399 -0.125429
C54   C     C_R   0.736215 0.276835 0.119798 -0.136339
C55   C     C_R   0.685018 0.261817 0.184785 0.077469
C56   C     C_R   0.697269 0.326020 0.251347 0.033359
C57   C     C_R   0.619383 0.184676 0.183911 -0.144795
C58   C     C_R   0.567208 0.171134 0.249557 0.014404
C59   C     C_R   0.583501 0.234351 0.317113 -0.017809
C60   C     C_R   0.645724 0.312919 0.317431 -0.167757
C61   C     C_R   0.502050 0.094064 0.248666 -0.199656
C62   C     C_R   0.453137 0.078443 0.311830 -0.256783
C63   C     C_R   0.472229 0.138341 0.378869 0.332734
C64   C     C_R   0.541373 0.216007 0.382225 0.328559
H24   H     H_    0.771442 0.454185 0.298856 0.119666
H25   H     H_    0.858010 0.475149 0.185538 0.122605
H26   H     H_    0.836867 0.363405 0.070169 0.115071
H27   H     H_    0.727721 0.230114 0.067793 0.095245
H28   H     H_    0.487792 0.044295 0.198901 0.137164
H29   H     H_    0.402009 0.018567 0.308357 0.131499
O11   O     O_R   0.775200 0.060470 0.937800 -0.544256
O12   O     O_R   0.441110 0.093720 0.087350 -0.537364
O13   O     O_R   0.266330 0.939630 0.062280 -0.544709
C65   C     C_R   0.609841 0.117145 0.114543 0.695833
O14   O     O_R   0.445750 0.069950 0.939820 -0.542528
O15   O     O_R   0.271000 0.915700 0.913700 -0.536763
C66   C     C_R   0.614982 0.084878 0.918046 0.703846
O16   O     O_R   0.770530 0.084400 0.086380 -0.536274
O17   O     O_3   0.602830 0.949510 0.991680 -0.369255
V3    V     V_3+5 0.329710 0.009370 0.001550 1.413380
O18   O     O_R   0.940990 0.906170 0.912570 -0.537991
C67   C     C_R   0.109984 0.883343 0.885015 0.695517
O19   O     O_R   0.936350 0.929940 0.060100 -0.541985
C68   C     C_R   0.104225 0.914904 0.081718 0.708277
V4    V     V_3+5 0.829160 0.990450 0.998310 1.413792
O20   O     O_3   0.105910 0.050480 0.008320 -0.368108
O21   O     O_3   0.424384 0.122461 0.441980 -0.655781
H30   H     H_    0.378875 0.065775 0.430090 0.290316
O22   O     O_3   0.573007 0.273728 0.448521 -0.659526
H31   H     H_    0.559329 0.249807 0.487886 0.318961
O23   O     O_3   0.458567 0.572258 0.304812 -0.656638
H32   H     H_    0.410624 0.522586 0.313465 0.283508

loop_
_geom_bond_atom_site_label_1
_geom_bond_atom_site_label_2
_ccdc_geom_bond_type
C41   H18   S    
C52   C53   A    
C48   C49   A    
C58   C59   A    
V3    O20   S    
C21   C22   A    
C6    C7    A    
C31   H15   S    
C1    O6    A    
O17   V3    S    
O11   C66   A    
C33   C34   A    
V4    O20   S    
C12   C15   A    
C13   C14   A    
C16   C17   A    
C35   C40   A    
O13   V3    S    
C15   C16   A    
C51   C56   A    
O5    C3    A    
C17   C18   A    
C57   C65   S    
C50   H21   S    
C29   C34   A    
O18   C67   A    
C5    C6    A    
C46   C47   A    
C36   C66   S    
O19   C68   A    
C21   H9    S    
C45   C50   A    
C52   H25   S    
O8    V2    S    
C27   C28   A    
C25   H10   S    
C41   C42   A    
C43   C44   A    
O1    V2    S    
C10   C14   A    
C4    C14   S    
C51   H24   S    
O7    V1    S    
C46   H22   S    
C65   O16   A    
C7    H4    S    
C39   C40   A    
C13   C18   A    
C19   O23   S    
O9    C4    A    
C54   H27   S    
H1    C17   S    
O12   C65   A    
O13   C68   A    
C42   C43   A    
C62   C63   A    
O19   V4    S    
C34   H13   S    
C5    C10   A    
C11   C12   A    
C6    H3    S    
C54   C55   A    
C19   C20   A    
O4    C2    A    
C51   C52   A    
C12   C13   A    
C25   C26   A    
O18   V4    S    
C22   C25   A    
C3    C20   S    
O2    C1    A    
C23   C24   A    
C35   C36   A    
O16   V4    S    
C55   C57   A    
C39   C44   A    
C38   C41   A    
C61   C62   A    
C7    C8    A    
C30   C31   A    
C11   C67   S    
C40   C47   A    
C49   C50   A    
O12   V3    S    
C27   C32   A    
O3    C4    A    
C32   H12   S    
C24   C31   A    
C28   C29   A    
C63   C64   A    
O6    V2    S    
O9    V2    S    
C26   H11   S    
C37   H17   S    
C9    C11   A    
C5    H2    S    
C22   C23   A    
O2    V1    S    
C32   C33   A    
C23   C28   A    
C63   O21   S    
C26   C27   A    
C20   C21   A    
O11   V4    S    
O1    C2    A    
C35   H16   S    
C45   C46   A    
O5    V1    S    
C53   H26   S    
O8    C3    A    
C33   C68   S    
C48   H20   S    
C19   C24   A    
C8    H5    S    
C58   C61   A    
C2    C60   S    
C18   H8    S    
O15   C67   A    
C30   H14   S    
C37   C38   A    
C61   H28   S    
O7    V2    S    
C62   H29   S    
O4    V1    S    
O3    V1    S    
V1    O10   S    
C55   C56   A    
C59   C64   A    
O23   H32   S    
C57   C58   A    
C38   C39   A    
C47   H23   S    
C59   C60   A    
O14   C66   A    
C1    C49   S    
C42   H19   S    
C56   C60   A    
C36   C37   A    
C44   C45   A    
C53   C54   A    
C15   H6    S    
C29   C30   A    
C16   H7    S    
C43   C48   A    
C9    C10   A    
O22   H31   S    
O15   V3    S    
O21   H30   S    
C8    C9    A    
O14   V3    S    
O17   V4    S    
V2    O10   S    
C64   O22   S    
