data_mof_unit_56448.cif
_audit_creation_date              2012-12-10T17:55:05-0500
_audit_creation_method            fapswitch 2.2
_symmetry_space_group_name_H-M    P1
_symmetry_Int_Tables_number       1
_space_group_crystal_system       triclinic
_cell_length_a                    8.730845
_cell_length_b                    10.83119
_cell_length_c                    9.687419
_cell_angle_alpha                 90.008372
_cell_angle_beta                  97.878953
_cell_angle_gamma                 94.942772
_cell_volume                      904.006081656

loop_
_atom_site_label
_atom_site_type_symbol
_atom_type_description
_atom_site_fract_x
_atom_site_fract_y
_atom_site_fract_z
_atom_type_partial_charge
C1    C     C_R   0.499412 0.262526 0.499885 0.767719
C2    C     C_R   0.500586 0.737474 0.500114 0.767720
C3    C     C_R   0.204287 0.499517 0.464057 0.867546
C4    C     C_R   0.795713 0.500483 0.535943 0.867547
C5    C     C_2   0.038085 0.499357 0.444695 -0.366636
C6    C     C_2   0.961914 0.500642 0.555305 -0.366636
C7    C     C_R   0.499725 0.063850 0.374554 -0.188336
C8    C     C_R   0.500274 0.936150 0.625447 -0.188327
C9    C     C_R   0.500235 0.936084 0.374641 -0.188461
C10   C     C_R   0.499764 0.063915 0.625359 -0.188453
C11   C     C_R   0.500489 0.871593 0.500084 -0.008599
C12   C     C_R   0.499506 0.128407 0.499914 -0.008600
C13   C     C_R   0.398361 0.419387 0.061536 0.237129
C14   C     C_R   0.601642 0.580613 0.938463 0.237137
C15   C     C_R   0.398432 0.419370 0.913304 0.234667
C16   C     C_R   0.601571 0.580627 0.086697 0.234662
Cu1   Cu    Cu3+1 0.500000 0.500020 0.640660 0.927522
Cu2   Cu    Cu3+1 0.500000 0.499980 0.359340 0.927519
H1    H     H_    0.978170 0.498133 0.338598 0.179171
H2    H     H_    0.021830 0.501865 0.661402 0.179174
H3    H     H_    0.499623 0.111731 0.276400 0.153779
H4    H     H_    0.500386 0.888270 0.723605 0.153773
H5    H     H_    0.500304 0.888154 0.276524 0.153748
H6    H     H_    0.499703 0.111846 0.723480 0.153742
N1    N     N_R   0.500040 0.500030 0.852080 -0.192348
N2    N     N_R   0.499960 0.499970 0.147920 -0.192351
O1    O     O_R   0.499990 0.319660 0.618740 -0.591613
O2    O     O_R   0.500010 0.680340 0.381260 -0.591618
O3    O     O_R   0.499990 0.319630 0.381170 -0.591684
O4    O     O_R   0.500010 0.680370 0.618830 -0.591682
O5    O     O_R   0.274840 0.500010 0.591370 -0.578487
O6    O     O_R   0.725160 0.499990 0.408630 -0.578484
O7    O     O_R   0.274830 0.499980 0.353800 -0.588647
O8    O     O_R   0.725170 0.500020 0.646200 -0.588639
C17   C     C_3   0.282247 0.327299 0.118823 -0.778519
H7    H     H_    0.162258 0.345764 0.075208 0.200559
H8    H     H_    0.303518 0.231314 0.091824 0.191768
H9    H     H_    0.283266 0.327173 0.230628 0.273820
C18   C     C_3   0.717747 0.672704 0.881176 -0.778538
H10   H     H_    0.696447 0.768674 0.908173 0.191767
H11   H     H_    0.837734 0.654266 0.924791 0.200568
H12   H     H_    0.716739 0.672834 0.769369 0.273809
C19   C     C_3   0.282712 0.326897 0.827401 -0.780649
H13   H     H_    0.283266 0.326884 0.715782 0.275031
H14   H     H_    0.304826 0.231046 0.859549 0.192883
H15   H     H_    0.162606 0.344658 0.841716 0.198640
C20   C     C_3   0.717305 0.673088 0.172602 -0.780645
H16   H     H_    0.716730 0.673119 0.284219 0.275031
H17   H     H_    0.837407 0.655296 0.158307 0.198645
H18   H     H_    0.695232 0.768943 0.140439 0.192878

loop_
_geom_bond_atom_site_label_1
_geom_bond_atom_site_label_2
_ccdc_geom_bond_type
C8    H4    S    
C19   H13   S    
C5    H1    S    
C18   H12   S    
C6    H2    S    
C20   H16   S    
Cu2   N2    S    
C2    O4    A    
Cu1   N1    S    
C1    O3    A    
Cu1   Cu2   S    
C15   C19   S    
C20   H17   S    
Cu2   O3    S    
C3    O5    A    
Cu1   O4    S    
C9    C11   A    
C4    O6    A    
C1    C12   S    
C10   C12   A    
C8    C11   A    
C2    C11   S    
C16   C20   S    
C8    C10   A    
C19   H15   S    
C13   C17   S    
C20   H18   S    
C4    O8    A    
C13   C15   A    
C14   N1    A    
C16   N2    A    
C5    C6    D    
Cu1   O5    S    
Cu2   O7    S    
C14   C16   A    
C13   N2    A    
C15   N1    A    
C4    C6    S    
Cu2   O6    S    
Cu1   O8    S    
C3    O7    A    
Cu1   O1    S    
C7    C9    A    
C17   H9    S    
Cu2   O2    S    
C18   H11   S    
C18   H10   S    
C1    O1    A    
C9    H5    S    
C10   H6    S    
C2    O2    A    
C17   H8    S    
C14   C18   S    
C7    H3    S    
C19   H14   S    
C17   H7    S    
C7    C12   A    
C3    C5    S    
