data_mof_unit_17154.cif
_audit_creation_date              2012-12-11T15:21:48-0500
_audit_creation_method            fapswitch 2.2
_symmetry_space_group_name_H-M    P1
_symmetry_Int_Tables_number       1
_space_group_crystal_system       triclinic
_cell_length_a                    8.348714
_cell_length_b                    12.737982
_cell_length_c                    18.843187
_cell_angle_alpha                 93.30125
_cell_angle_beta                  92.860679
_cell_angle_gamma                 98.038346
_cell_volume                      1977.50380159

loop_
_atom_site_label
_atom_site_type_symbol
_atom_type_description
_atom_site_fract_x
_atom_site_fract_y
_atom_site_fract_z
_atom_type_partial_charge
Ba1   Ba    Ba6+2 0.160910 0.552960 0.466220 1.680741
Ba2   Ba    Ba6+2 0.649260 0.447030 0.533730 1.705780
C1    C     C_3   0.269933 0.900261 0.223506 -0.300404
C2    C     C_R   0.744663 0.815890 0.471149 -0.121049
C3    C     C_R   0.702489 0.997160 0.455372 -0.047412
C4    C     C_3   0.826269 0.806162 0.263418 0.296103
C5    C     C_R   0.643147 0.888227 0.450946 -0.008076
C6    C     C_R   0.892766 0.850781 0.508536 0.099053
C7    C     C_R   0.954209 0.962690 0.514793 -0.032529
C8    C     C_R   0.859360 0.037073 0.485192 0.016142
C9    C     C_R   0.923014 0.148777 0.488749 0.070995
C10   C     C_R   0.170536 0.111031 0.548895 0.109775
C11   C     C_R   0.108004 0.002620 0.547992 -0.018931
C12   C     C_3   0.317437 0.823148 0.277225 0.496320
C13   C     C_R   0.630457 0.515545 0.295885 -0.287805
C14   C     C_R   0.471296 0.474794 0.274882 0.022973
C15   C     C_R   0.416269 0.472548 0.203435 -0.124183
C16   C     C_3   0.807333 0.891026 0.210546 -0.154182
C17   C     C_R   0.523258 0.507573 0.151686 -0.007121
C18   C     C_R   0.684859 0.549123 0.173772 -0.134425
C19   C     C_R   0.736558 0.553687 0.246160 0.017278
C20   C     C_R   0.505769 0.588944 0.033837 -0.057586
C21   C     C_R   0.442981 0.587336 0.963544 -0.042730
C22   C     C_R   0.337759 0.498623 0.933049 0.091995
C23   C     C_3   0.524969 0.772325 0.622761 0.248961
C24   C     C_R   0.297962 0.411318 0.974382 -0.041988
C25   C     C_R   0.359026 0.413807 0.045097 -0.066952
C26   C     C_R   0.463439 0.502964 0.075708 0.055607
C27   C     C_R   0.111362 0.457890 0.834367 -0.101607
C28   C     C_3   0.671626 0.246585 0.317294 0.440692
C29   C     C_R   0.071287 0.433445 0.759945 -0.034091
C30   C     C_R   0.339708 0.515777 0.734158 0.035175
C31   C     C_R   0.387644 0.525851 0.806136 -0.129358
C32   C     C_R   0.276611 0.494424 0.857055 -0.046586
C33   C     C_R   0.187151 0.462691 0.711178 -0.282484
C34   C     C_3   0.480540 0.883635 0.629079 -0.191183
C35   C     C_3   0.702807 0.275294 0.241204 -0.351866
C36   C     C_3   0.056443 0.688427 0.680761 0.289970
C37   C     C_3   0.091976 0.723841 0.759153 -0.343746
C38   C     C_3   0.178380 0.225957 0.298995 0.242111
C39   C     C_3   0.227280 0.196883 0.223945 -0.475099
C40   C     C_2   0.116144 0.125116 0.333491 0.840813
C41   C     C_2   0.612878 0.959028 0.667280 0.938219
C42   C     C_2   0.750598 0.845677 0.137003 0.834096
C43   C     C_2   0.008395 0.119087 0.740677 0.795523
C44   C     C_2   0.983846 0.458793 0.887275 0.851255
C45   C     C_3   0.936944 0.194732 0.789703 0.383325
C46   C     C_3   0.870425 0.138840 0.854241 -0.321454
C47   C     C_3   0.415612 0.216461 0.725242 0.356655
C48   C     C_3   0.426872 0.184991 0.801760 -0.347164
C49   C     C_R   0.077308 0.182512 0.520659 -0.160167
H1    H     H_    0.210983 0.799565 0.308680 0.117305
H2    H     H_    0.078343 0.273975 0.294770 0.050005
H3    H     H_    0.213031 0.963151 0.251179 0.103347
H4    H     H_    0.120210 0.157131 0.190473 0.081971
H5    H     H_    0.320267 0.142876 0.225317 0.150951
H6    H     H_    0.277306 0.268551 0.197972 0.097892
H7    H     H_    0.182812 0.858432 0.181255 0.154295
H8    H     H_    0.653959 0.773687 0.610641 -0.024056
H9    H     H_    0.447861 0.732519 0.576874 0.055225
H10   H     H_    0.366017 0.884491 0.656666 0.076450
H11   H     H_    0.460272 0.910422 0.574802 0.033586
H12   H     H_    0.748702 0.209345 0.211025 0.105950
H13   H     H_    0.378582 0.937913 0.197910 0.143671
H14   H     H_    0.036790 0.255793 0.811168 -0.101422
H15   H     H_    0.971009 0.113738 0.887034 0.089709
H16   H     H_    0.808942 0.192673 0.888272 0.138542
H17   H     H_    0.781571 0.067761 0.837455 0.174973
H18   H     H_    0.312428 0.262112 0.718908 -0.001930
H19   H     H_    0.528158 0.268686 0.715345 0.116203
H20   H     H_    0.447866 0.257463 0.838623 0.072701
H21   H     H_    0.528525 0.138752 0.809699 0.170055
H22   H     H_    0.855745 0.845813 0.317508 0.060169
H23   H     H_    0.589167 0.290576 0.213237 0.079344
H24   H     H_    0.312988 0.135695 0.814497 0.120008
H25   H     H_    0.623970 0.049301 0.435324 0.099259
H26   H     H_    0.181404 0.950639 0.572964 0.062040
H27   H     H_    0.127625 0.265740 0.522386 0.042695
H28   H     H_    0.510854 0.560612 0.822366 0.093863
H29   H     H_    0.475827 0.655917 0.933149 0.077306
H30   H     H_    0.585058 0.658261 0.056009 0.113381
H31   H     H_    0.290050 0.444775 0.188350 0.088296
H32   H     H_    0.220430 0.340819 0.951701 0.049269
H33   H     H_    0.708487 0.753946 0.264163 -0.086567
H34   H     H_    0.795319 0.346863 0.241521 0.086965
H35   H     H_    0.326076 0.345422 0.075637 0.058815
H36   H     H_    0.769055 0.579433 0.135454 0.129732
H37   H     H_    0.154525 0.450395 0.654683 0.066077
H38   H     H_    0.672732 0.517198 0.351199 0.076604
H39   H     H_    0.719185 0.941802 0.230433 0.063123
H40   H     H_    0.925700 0.941049 0.206334 0.075096
H41   H     H_    0.614635 0.310384 0.343709 0.056664
H42   H     H_    0.911410 0.098976 0.271070 0.258340
H43   H     H_    0.455516 0.752243 0.206277 0.180198
H44   H     H_    0.405303 0.680867 0.275900 0.171073
H45   H     H_    0.168912 0.668614 0.658013 0.006450
H46   H     H_    0.757831 0.094864 0.655196 0.337026
H47   H     H_    0.585055 0.841965 0.054665 0.311750
H48   H     H_    0.073385 0.974142 0.720399 0.330529
H49   H     H_    0.672183 0.693697 0.397141 0.144964
H50   H     H_    0.606720 0.673373 0.482088 0.196167
H51   H     H_    0.764757 0.397928 0.919015 0.303144
H52   H     H_    0.633912 0.082299 0.310796 0.196480
H53   H     H_    0.500681 0.139165 0.359636 0.226531
H54   H     H_    0.961382 0.617654 0.675683 0.046848
H55   H     H_    0.187167 0.794525 0.764927 0.143908
H56   H     H_    0.135140 0.660014 0.788777 0.062081
H57   H     H_    0.980310 0.744523 0.782810 0.154212
N1    N     N_3   0.361116 0.729134 0.238940 -0.461665
N2    N     N_3   0.700877 0.705079 0.451839 -0.447102
N3    N     N_3   0.565140 0.144749 0.313810 -0.497215
O1    O     O_2   0.160820 0.763040 0.533820 -0.500141
O2    O     O_2   0.739033 0.425881 0.747838 -0.462995
O3    O     O_3   0.810075 0.235880 0.752296 -0.607267
O4    O     O_3   0.890970 0.628600 0.535400 -0.459999
O5    O     O_3   0.427530 0.446070 0.416950 -0.456161
O6    O     O_2   0.637430 0.550200 0.669460 -0.451398
O7    O     O_3   0.496780 0.724056 0.687028 -0.623340
O8    O     O_2   0.504081 0.114726 0.550706 -0.462587
O9    O     O_3   0.396407 0.125091 0.678221 -0.604953
O10   O     O_3   0.385950 0.698560 0.408070 -0.511286
O11   O     O_2   0.303545 0.892659 0.439920 -0.468520
O12   O     O_3   0.312885 0.277775 0.341706 -0.622837
O13   O     O_3   0.002271 0.772575 0.646969 -0.635265
O14   O     O_3   0.450433 0.874924 0.320330 -0.644310
O15   O     O_2   0.172860 0.449730 0.330520 -0.471993
O16   O     O_3   0.962080 0.644700 0.373110 -0.470463
O17   O     O_2   0.073644 0.576027 0.249210 -0.461145
O18   O     O_2   0.197768 0.092523 0.380726 -0.589193
O19   O     O_R   0.966000 0.067271 0.312139 -0.785238
O20   O     O_2   0.628888 0.963970 0.732175 -0.590415
O21   O     O_R   0.713803 0.026122 0.627697 -0.757510
O22   O     O_2   0.834745 0.792224 0.103054 -0.586823
O23   O     O_3   0.954616 0.751641 0.244314 -0.604501
O24   O     O_R   0.605847 0.870309 0.106142 -0.778343
O25   O     O_2   0.052752 0.149036 0.683741 -0.688299
O26   O     O_R   0.022832 0.015626 0.758731 -0.742346
O27   O     O_2   0.003306 0.525380 0.937555 -0.595349
O28   O     O_R   0.841094 0.386824 0.879934 -0.754899
O29   O     O_2   0.649470 0.236890 0.466160 -0.478457
O30   O     O_3   0.919320 0.371390 0.464540 -0.469391
O31   O     O_3   0.424350 0.301430 0.591880 -0.489297
O32   O     O_3   0.821460 0.238936 0.352004 -0.659246
O33   O     O_3   0.382770 0.553920 0.582990 -0.498569
O34   O     O_3   0.848220 0.355290 0.626830 -0.465983
P1    P     P_3+3 0.986780 0.745970 0.554690 1.003530
P2    P     P_3+3 0.341450 0.417130 0.341310 0.991289
P3    P     P_3+3 0.931906 0.626946 0.279570 0.979836
P4    P     P_3+3 0.823520 0.254020 0.445250 1.001250
P5    P     P_3+3 0.872367 0.363095 0.721561 1.007689
P6    P     P_3+3 0.440721 0.837632 0.408385 0.926189
P7    P     P_3+3 0.464524 0.586186 0.670266 0.954705
P8    P     P_3+3 0.372829 0.163340 0.590776 1.013377

loop_
_geom_bond_atom_site_label_1
_geom_bond_atom_site_label_2
_ccdc_geom_bond_type
C6    C7    A    
C37   H55   S    
C35   H23   S    
H49   N2    S    
C24   H32   S    
C45   O3    S    
Ba2   O33   S    
C17   C18   A    
C10   P8    S    
C2    C6    A    
C23   O7    S    
O30   P4    S    
C1    H13   S    
Ba2   O34   S    
C37   H56   S    
C10   C11   A    
O4    P1    S    
C24   C25   A    
C12   O14   S    
C14   P2    S    
C16   H40   S    
C35   H34   S    
C41   O21   S    
C22   C24   A    
Ba2   P4    S    
C15   H31   S    
C12   N1    S    
Ba1   O1    S    
C36   C37   S    
C1    H3    S    
C47   O9    S    
C13   C14   A    
C18   H36   S    
H52   N3    S    
Ba1   Ba2   S    
Ba2   O4    S    
C48   H21   S    
C39   H4    S    
C7    C11   A    
O14   P6    S    
Ba2   O5    S    
C9    P4    S    
C12   H1    S    
C14   C15   A    
C21   C22   A    
C23   H9    S    
C21   H29   S    
C40   O18   D    
C7    C8    A    
O34   P5    S    
O16   P3    S    
C44   O27   D    
C42   O24   S    
C38   C40   S    
C46   H16   S    
C47   H18   S    
Ba1   P1    S    
C2    C5    A    
C34   H11   S    
C35   H12   S    
Ba2   O6    S    
C20   H30   S    
C43   C45   S    
C37   H57   S    
C4    C16   S    
C11   H26   S    
C4    H33   S    
C16   H39   S    
C19   P3    S    
C9    C49   A    
Ba1   O15   S    
C28   H41   S    
H44   N1    S    
C3    C5    A    
C29   P5    S    
O17   P3    D    
H50   N2    S    
O13   P1    S    
H47   O24   S    
C22   C32   S    
C28   O32   S    
O10   P6    S    
C28   C35   S    
H53   N3    S    
C25   H35   S    
C48   H20   S    
C30   C33   A    
C39   H5    S    
C16   C42   S    
C13   H38   S    
C33   H37   S    
C4    O23   S    
C45   C46   S    
C30   P7    S    
C13   C19   A    
C43   O26   S    
C31   C32   A    
C40   O19   S    
C46   H17   S    
O7    P7    S    
C17   C26   S    
C1    C12   S    
C5    P6    S    
C38   C39   S    
Ba1   O5    S    
O12   P2    S    
C38   H2    S    
C47   H19   S    
Ba2   O31   S    
C29   C33   A    
Ba1   P2    S    
O3    P5    S    
H42   O19   S    
C10   C49   A    
C4    H22   S    
C42   O22   D    
C38   O12   S    
C2    N2    S    
C43   O25   D    
O2    P5    D    
C6    P1    S    
Ba1   O16   S    
H46   O21   S    
C31   H28   S    
Ba1   O4    S    
O5    P2    S    
O15   P2    D    
O23   P3    S    
C27   C44   S    
H43   N1    S    
C28   N3    S    
Ba2   O29   S    
C30   C31   A    
C3    H25   S    
C41   O20   D    
C49   H27   S    
C39   H6    S    
C3    C8    A    
C27   C29   A    
Ba1   O33   S    
C48   H24   S    
O11   P6    D    
C36   H54   S    
C27   C32   A    
O9    P8    S    
C15   C17   A    
O1    P1    D    
O6    P7    D    
H51   O28   S    
O31   P8    S    
Ba1   O10   S    
O8    P8    D    
Ba1   O30   S    
C8    C9    A    
C23   C34   S    
C1    H7    S    
O32   P4    S    
C18   C19   A    
O33   P7    S    
C47   C48   S    
C36   H45   S    
C25   C26   A    
Ba2   O30   S    
C20   C21   A    
H48   O26   S    
C34   C41   S    
C20   C26   A    
C23   H8    S    
C46   H15   S    
O29   P4    D    
C45   H14   S    
C36   O13   S    
C34   H10   S    
C44   O28   S    
