data_mof_unit_33416.cif
_audit_creation_date              2012-12-10T18:15:16-0500
_audit_creation_method            fapswitch 2.2
_symmetry_space_group_name_H-M    P1
_symmetry_Int_Tables_number       1
_space_group_crystal_system       triclinic
_cell_length_a                    18.285913
_cell_length_b                    18.286049
_cell_length_c                    39.686146
_cell_angle_alpha                 90.000171
_cell_angle_beta                  89.998716
_cell_angle_gamma                 89.999165
_cell_volume                      13270.1384496

loop_
_atom_site_label
_atom_site_type_symbol
_atom_type_description
_atom_site_fract_x
_atom_site_fract_y
_atom_site_fract_z
_atom_type_partial_charge
C1    C     C_R   0.933531 0.505140 0.431273 0.440594
C2    C     C_R   0.566473 0.995018 0.068726 0.441112
C3    C     C_R   0.267144 0.787010 0.719808 0.381244
C4    C     C_R   0.213059 0.267146 0.280195 0.380007
C5    C     C_R   0.787021 0.732867 0.719808 0.381241
C6    C     C_R   0.267165 0.786918 0.280198 0.380016
C7    C     C_R   0.732856 0.212994 0.719807 0.381235
C8    C     C_R   0.196169 0.696167 0.249990 -0.385879
C9    C     C_R   0.803789 0.303787 0.749998 -0.389617
C10   C     C_R   0.303834 0.196169 0.249991 -0.385899
C11   C     C_R   0.696213 0.803789 0.749998 -0.389621
C12   C     C_R   0.803831 0.303833 0.249991 -0.385919
C13   C     C_R   0.004968 0.433524 0.931273 0.441100
C14   C     C_R   0.196212 0.696212 0.749998 -0.389625
C15   C     C_R   0.696103 0.803723 0.249916 -0.387605
C16   C     C_R   0.303786 0.196210 0.749998 -0.389624
C17   C     C_R   0.196170 0.303834 0.750009 -0.385908
C18   C     C_R   0.803897 0.696277 0.250084 -0.387632
C19   C     C_R   0.303832 0.803832 0.750010 -0.385916
C20   C     C_R   0.696214 0.196210 0.250002 -0.389624
C21   C     C_R   0.803832 0.696167 0.750010 -0.385910
C22   C     C_R   0.196210 0.303787 0.250002 -0.389611
C23   C     C_R   0.696166 0.196169 0.750009 -0.385911
C24   C     C_R   0.004915 0.566478 0.068726 0.441136
C25   C     C_R   0.303788 0.803788 0.250002 -0.389578
C26   C     C_R   0.999998 0.500021 0.378152 -0.109875
C27   C     C_R   0.000002 0.500015 0.621847 -0.110182
C28   C     C_R   0.500015 0.999999 0.378152 -0.110603
C29   C     C_R   0.500004 1.000000 0.621847 -0.110168
C30   C     C_R   0.499998 0.000000 0.878152 -0.110369
C31   C     C_R   0.500000 0.999999 0.121848 -0.110384
C32   C     C_R   0.000000 0.500000 0.878152 -0.110461
C33   C     C_R   0.999998 0.500000 0.121848 -0.110540
C34   C     C_3   0.838782 0.578339 0.446831 0.109459
C35   C     C_R   0.566481 0.004884 0.931274 0.441176
C36   C     C_3   0.773800 0.584191 0.470600 -0.814957
C37   C     C_3   0.161590 0.577556 0.553166 0.109545
C38   C     C_3   0.226600 0.583090 0.529397 -0.815086
C39   C     C_3   0.422400 0.838423 0.446803 0.109623
C40   C     C_3   0.416784 0.773469 0.470600 -0.815049
C41   C     C_3   0.421951 0.161267 0.553123 0.109659
C42   C     C_3   0.416248 0.226321 0.529390 -0.815077
C43   C     C_3   0.161158 0.421758 0.446880 0.109675
C44   C     C_3   0.226201 0.415971 0.470615 -0.815037
C45   C     C_3   0.838472 0.422517 0.553118 0.109596
C46   C     C_R   0.433523 0.004981 0.068727 0.441110
C47   C     C_3   0.773407 0.417041 0.529379 -0.815041
C48   C     C_3   0.577710 0.161507 0.446829 0.109516
C49   C     C_3   0.583312 0.226519 0.470593 -0.815046
C50   C     C_3   0.577996 0.838609 0.553187 0.109576
C51   C     C_3   0.583742 0.773643 0.529404 -0.814898
C52   C     C_3   0.338537 0.922222 0.946839 0.109442
C53   C     C_3   0.273542 0.916588 0.970612 -0.814783
C54   C     C_3   0.661312 0.921973 0.053136 0.109455
C55   C     C_3   0.726325 0.916265 0.029378 -0.814693
C56   C     C_3   0.077996 0.338671 0.946859 0.109476
C57   C     C_R   0.995031 0.566474 0.931274 0.441126
C58   C     C_3   0.083690 0.273650 0.970613 -0.814785
C59   C     C_3   0.077838 0.661434 0.053163 0.109462
C60   C     C_3   0.083499 0.726420 0.029387 -0.814776
C61   C     C_3   0.661567 0.077708 0.946781 0.109351
C62   C     C_3   0.726479 0.083381 0.970598 -0.814746
C63   C     C_3   0.338637 0.078000 0.053169 0.109470
C64   C     C_3   0.273653 0.083727 0.029395 -0.814765
C65   C     C_3   0.922018 0.661350 0.946851 0.109478
C66   C     C_3   0.916317 0.726351 0.970616 -0.814800
C67   C     C_3   0.922122 0.338608 0.053145 0.109444
C68   C     C_R   0.995075 0.433521 0.068727 0.441103
C69   C     C_3   0.916472 0.273590 0.029388 -0.814770
C70   C     C_3   0.297072 0.833076 0.170768 -0.205987
C71   C     C_3   0.703339 0.169023 0.829929 -0.228686
C72   C     C_3   0.166969 0.297114 0.170765 -0.205962
C73   C     C_3   0.830944 0.703307 0.829931 -0.228684
C74   C     C_3   0.702864 0.166990 0.170763 -0.205920
C75   C     C_3   0.296663 0.830972 0.829929 -0.228682
C76   C     C_3   0.832535 0.702339 0.170734 -0.205018
C77   C     C_3   0.169062 0.296708 0.829931 -0.228662
C78   C     C_3   0.297107 0.166963 0.829235 -0.205968
C79   C     C_R   0.933767 0.503432 0.395985 -0.318436
C80   C     C_3   0.702718 0.830462 0.170045 -0.230687
C81   C     C_3   0.166930 0.702923 0.829234 -0.205940
C82   C     C_3   0.830913 0.296737 0.170067 -0.228656
C83   C     C_3   0.702897 0.833049 0.829234 -0.205979
C84   C     C_3   0.296714 0.169066 0.170068 -0.228671
C85   C     C_3   0.833075 0.297065 0.829232 -0.205941
C86   C     C_3   0.169030 0.703340 0.170071 -0.228603
C87   C     C_3   0.797226 0.333018 0.670738 -0.223119
C88   C     C_3   0.203549 0.668992 0.329889 -0.211500
C89   C     C_3   0.667016 0.797257 0.670735 -0.223191
C90   C     C_R   0.066247 0.503116 0.604013 -0.319430
C91   C     C_3   0.330961 0.203500 0.329891 -0.211623
C92   C     C_3   0.202777 0.666986 0.670737 -0.223159
C93   C     C_3   0.796527 0.330932 0.329894 -0.211635
C94   C     C_3   0.332976 0.202721 0.670734 -0.223159
C95   C     C_3   0.667460 0.797659 0.329265 -0.205106
C96   C     C_3   0.797285 0.669545 0.329957 -0.230569
C97   C     C_3   0.203505 0.330962 0.670107 -0.211717
C98   C     C_3   0.667050 0.202695 0.329267 -0.223252
C99   C     C_3   0.331006 0.796457 0.670111 -0.211623
C100  C     C_3   0.202720 0.332969 0.329267 -0.223170
C101  C     C_R   0.496869 0.933757 0.395986 -0.320713
C102  C     C_3   0.796488 0.669021 0.670109 -0.211641
C103  C     C_3   0.333021 0.797218 0.329261 -0.223028
C104  C     C_3   0.668996 0.203550 0.670111 -0.211612
C105  C     C_R   0.066491 0.504818 0.568725 0.440953
C106  C     C_R   0.496717 0.066235 0.604014 -0.319336
C107  C     C_R   0.066229 0.496637 0.395985 -0.319683
C108  C     C_R   0.933756 0.496934 0.604014 -0.319353
C109  C     C_R   0.503176 0.066241 0.395985 -0.319036
C110  C     C_R   0.503293 0.933764 0.604014 -0.319477
C111  C     C_R   0.433758 0.996795 0.895986 -0.319290
C112  C     C_R   0.566236 0.996700 0.104014 -0.319413
C113  C     C_R   0.003286 0.433764 0.895985 -0.319236
C114  C     C_R   0.003234 0.566238 0.104014 -0.319451
C115  C     C_R   0.566239 0.003203 0.895985 -0.319421
C116  C     C_R   0.495189 0.933514 0.431274 0.441497
C117  C     C_R   0.433764 0.003297 0.104016 -0.319273
C118  C     C_R   0.996715 0.566236 0.895986 -0.319271
C119  C     C_R   0.996758 0.433761 0.104015 -0.319229
C120  C     C_R   0.999997 0.500060 0.448795 -0.095611
C121  C     C_R   0.000001 0.500052 0.551204 -0.095518
C122  C     C_R   0.500033 0.999999 0.448795 -0.095386
C123  C     C_R   0.500015 0.999999 0.551205 -0.095506
C124  C     C_R   0.499998 0.999997 0.948795 -0.095514
C125  C     C_R   0.499998 0.999999 0.051205 -0.095638
C126  C     C_R   0.999999 0.499999 0.948795 -0.095651
C127  C     C_R   0.495032 0.066473 0.568727 0.440854
C128  C     C_R   0.999995 0.499999 0.051205 -0.095604
C129  C     C_1   0.999998 0.500066 0.484893 0.092458
C130  C     C_1   1.000000 0.500063 0.515107 0.092378
C131  C     C_1   0.500029 0.000000 0.484893 0.092495
C132  C     C_1   0.500024 0.000000 0.515107 0.092476
C133  C     C_1   0.499997 0.999998 0.984893 0.092672
C134  C     C_1   0.499997 0.999999 0.015107 0.092523
C135  C     C_1   0.999997 0.499998 0.984893 0.092490
C136  C     C_1   0.999996 0.499998 0.015107 0.092514
C137  C     C_R   0.500004 1.000000 0.341066 0.858415
C138  C     C_R   0.066464 0.494967 0.431273 0.440896
C139  C     C_R   0.500000 1.000000 0.658934 0.859474
C140  C     C_R   0.999999 0.500003 0.341066 0.860260
C141  C     C_R   0.000001 0.500001 0.658934 0.859501
C142  C     C_R   0.000000 0.500000 0.841066 0.859375
C143  C     C_R   0.999999 0.500000 0.158934 0.859426
C144  C     C_R   0.499999 1.000000 0.841066 0.859389
C145  C     C_R   0.500000 1.000000 0.158934 0.859106
C146  C     C_R   0.359910 0.140104 0.249994 1.002106
C147  C     C_R   0.640111 0.859896 0.749997 1.004024
C148  C     C_R   0.859896 0.359909 0.249994 1.002474
C149  C     C_R   0.933512 0.495270 0.568726 0.440889
C150  C     C_R   0.140105 0.640111 0.749997 1.004033
C151  C     C_R   0.639981 0.859777 0.249911 1.002774
C152  C     C_R   0.359888 0.140104 0.749997 1.004034
C153  C     C_R   0.140104 0.640091 0.249994 1.002039
C154  C     C_R   0.859896 0.359889 0.749997 1.004017
C155  C     C_R   0.359909 0.859896 0.750006 1.002102
C156  C     C_R   0.640112 0.140104 0.250003 1.004138
C157  C     C_R   0.859896 0.640091 0.750006 1.002090
C158  C     C_R   0.140104 0.359889 0.250003 1.004022
C159  C     C_R   0.640091 0.140104 0.750006 1.002091
C160  C     C_R   0.504872 0.066483 0.431273 0.440850
C161  C     C_R   0.359889 0.859896 0.250003 1.003715
C162  C     C_R   0.140104 0.359909 0.750005 1.002100
C163  C     C_R   0.860019 0.640223 0.250089 1.003325
C164  C     C_R   0.286923 0.767171 0.219803 0.376525
C165  C     C_R   0.713002 0.232848 0.780213 0.384459
C166  C     C_R   0.232847 0.286938 0.219805 0.376574
C167  C     C_R   0.767137 0.712992 0.780211 0.384450
C168  C     C_R   0.713052 0.232856 0.219807 0.376552
C169  C     C_R   0.286997 0.767149 0.780213 0.384451
C170  C     C_R   0.767086 0.712763 0.219881 0.376635
C171  C     C_R   0.504989 0.933525 0.568726 0.440962
C172  C     C_R   0.232865 0.287015 0.780210 0.384452
C173  C     C_R   0.286936 0.232845 0.780195 0.376576
C174  C     C_R   0.712876 0.766795 0.219779 0.384412
C175  C     C_R   0.232830 0.713076 0.780197 0.376578
C176  C     C_R   0.767123 0.287026 0.219792 0.384583
C177  C     C_R   0.713066 0.767160 0.780196 0.376580
C178  C     C_R   0.287017 0.232867 0.219790 0.384469
C179  C     C_R   0.767171 0.286919 0.780197 0.376575
C180  C     C_R   0.232851 0.713003 0.219787 0.384455
C181  C     C_R   0.786921 0.267165 0.719803 0.379993
C182  C     C_R   0.433517 0.995111 0.931274 0.441074
C183  C     C_R   0.212993 0.732853 0.280193 0.381217
C184  C     C_R   0.732849 0.786932 0.719804 0.379995
C185  C     C_R   0.267125 0.212975 0.280191 0.381240
C186  C     C_R   0.213080 0.732837 0.719803 0.379998
C187  C     C_R   0.787035 0.267114 0.280189 0.381211
C188  C     C_R   0.267149 0.213061 0.719805 0.379982
C189  C     C_R   0.732913 0.787236 0.280119 0.376615
C190  C     C_R   0.787124 0.733206 0.280221 0.384424
C191  C     C_R   0.212978 0.267128 0.719808 0.381249
C192  C     C_R   0.732864 0.213049 0.280193 0.380085
H1    H     H_    0.882109 0.505096 0.382649 0.166138
H2    H     H_    0.617897 0.995108 0.117349 0.166171
H3    H     H_    0.758722 0.150062 0.821909 0.115035
H4    H     H_    0.666815 0.120749 0.831650 0.192522
H5    H     H_    0.707929 0.191882 0.855725 0.161800
H6    H     H_    0.127644 0.340339 0.163228 0.191172
H7    H     H_    0.135053 0.252252 0.182951 0.122001
H8    H     H_    0.192299 0.275892 0.147359 0.160344
H9    H     H_    0.849903 0.758696 0.821920 0.115045
H10   H     H_    0.879221 0.666784 0.831648 0.192517
H11   H     H_    0.808080 0.707881 0.855726 0.161812
H12   H     H_    0.659634 0.127675 0.163222 0.191211
H13   H     H_    0.004868 0.382102 0.882649 0.166074
H14   H     H_    0.747722 0.135063 0.182946 0.122054
H15   H     H_    0.724090 0.192326 0.147360 0.160339
H16   H     H_    0.241275 0.849926 0.821914 0.115038
H17   H     H_    0.333183 0.879249 0.831646 0.192533
H18   H     H_    0.292083 0.808117 0.855726 0.161809
H19   H     H_    0.871626 0.659092 0.162967 0.190727
H20   H     H_    0.864803 0.747019 0.182863 0.122048
H21   H     H_    0.806775 0.723775 0.147471 0.160473
H22   H     H_    0.150099 0.241320 0.821922 0.115046
H23   H     H_    0.120787 0.333233 0.831651 0.192510
H24   H     H_    0.004773 0.617899 0.117351 0.166097
H25   H     H_    0.191930 0.292134 0.855726 0.161817
H26   H     H_    0.340330 0.127631 0.836767 0.191178
H27   H     H_    0.252237 0.135057 0.817050 0.121975
H28   H     H_    0.275894 0.192290 0.852643 0.160346
H29   H     H_    0.758254 0.849327 0.177883 0.115450
H30   H     H_    0.666155 0.878736 0.168527 0.192923
H31   H     H_    0.706876 0.807802 0.144195 0.161976
H32   H     H_    0.127603 0.659701 0.836773 0.191189
H33   H     H_    0.135018 0.747779 0.817041 0.121985
H34   H     H_    0.192250 0.724154 0.852639 0.160328
H35   H     H_    0.617900 0.004707 0.882647 0.165990
H36   H     H_    0.849869 0.241340 0.178068 0.115016
H37   H     H_    0.879191 0.333257 0.168353 0.192526
H38   H     H_    0.808044 0.292185 0.144272 0.161833
H39   H     H_    0.659673 0.872377 0.836771 0.191174
H40   H     H_    0.747760 0.864959 0.817046 0.121982
H41   H     H_    0.724119 0.807724 0.852640 0.160336
H42   H     H_    0.241322 0.150109 0.178076 0.115054
H43   H     H_    0.333237 0.120790 0.168351 0.192524
H44   H     H_    0.292148 0.191933 0.144273 0.161813
H45   H     H_    0.872413 0.340281 0.836764 0.191200
H46   H     H_    0.382104 0.004885 0.117353 0.166055
H47   H     H_    0.864974 0.252197 0.817040 0.121970
H48   H     H_    0.807759 0.275845 0.852641 0.160325
H49   H     H_    0.150070 0.758724 0.178088 0.115068
H50   H     H_    0.120755 0.666817 0.168350 0.192526
H51   H     H_    0.191890 0.707927 0.144274 0.161795
H52   H     H_    0.840415 0.372546 0.663382 0.186700
H53   H     H_    0.752049 0.364670 0.682821 0.125908
H54   H     H_    0.776459 0.307777 0.647224 0.155753
H55   H     H_    0.258808 0.649883 0.321758 0.111110
H56   H     H_    0.166969 0.620780 0.331732 0.194948
H57   H     H_    0.995135 0.617896 0.882650 0.166061
H58   H     H_    0.208468 0.691978 0.355645 0.168569
H59   H     H_    0.627493 0.840449 0.663380 0.186653
H60   H     H_    0.635358 0.752077 0.682812 0.125929
H61   H     H_    0.692267 0.776497 0.647222 0.155753
H62   H     H_    0.350067 0.258767 0.321772 0.111187
H63   H     H_    0.379175 0.166921 0.331731 0.194909
H64   H     H_    0.307965 0.208397 0.355647 0.168604
H65   H     H_    0.159591 0.627454 0.663386 0.186700
H66   H     H_    0.247961 0.635340 0.682818 0.125903
H67   H     H_    0.223536 0.692227 0.647222 0.155746
H68   H     H_    0.995215 0.382099 0.117351 0.166073
H69   H     H_    0.741250 0.350029 0.321785 0.111404
H70   H     H_    0.833099 0.379151 0.331728 0.194834
H71   H     H_    0.791654 0.307933 0.355650 0.168586
H72   H     H_    0.372473 0.159516 0.663363 0.186633
H73   H     H_    0.364667 0.247871 0.682815 0.125969
H74   H     H_    0.307718 0.223516 0.647229 0.155755
H75   H     H_    0.635193 0.752979 0.317135 0.121954
H76   H     H_    0.628368 0.840907 0.337031 0.190752
H77   H     H_    0.693216 0.776223 0.352529 0.160472
H78   H     H_    0.833845 0.621268 0.331474 0.192827
H79   H     H_    0.819453 0.590137 0.420792 0.127630
H80   H     H_    0.741746 0.650682 0.322121 0.115528
H81   H     H_    0.793131 0.692207 0.355806 0.161930
H82   H     H_    0.258787 0.350042 0.678217 0.111170
H83   H     H_    0.166943 0.379191 0.668278 0.194894
H84   H     H_    0.208372 0.307978 0.644348 0.168625
H85   H     H_    0.627544 0.159492 0.336630 0.186620
H86   H     H_    0.635369 0.247863 0.317194 0.126016
H87   H     H_    0.692311 0.223466 0.352775 0.155775
H88   H     H_    0.350121 0.741202 0.678242 0.111173
H89   H     H_    0.379214 0.833041 0.668266 0.194912
H90   H     H_    0.879784 0.620371 0.454480 0.142635
H91   H     H_    0.308017 0.791533 0.644356 0.168575
H92   H     H_    0.159523 0.372488 0.336623 0.186624
H93   H     H_    0.247899 0.364633 0.317192 0.125955
H94   H     H_    0.223477 0.307714 0.352779 0.155765
H95   H     H_    0.741225 0.649912 0.678233 0.111172
H96   H     H_    0.833070 0.620809 0.668268 0.194887
H97   H     H_    0.791583 0.692013 0.644354 0.168608
H98   H     H_    0.372548 0.840407 0.336616 0.186804
H99   H     H_    0.364674 0.752043 0.317176 0.125747
H100  H     H_    0.307783 0.776448 0.352775 0.155705
H101  H     H_    0.791853 0.574746 0.496963 0.289073
H102  H     H_    0.649888 0.258809 0.678241 0.111171
H103  H     H_    0.620784 0.166971 0.668269 0.194920
H104  H     H_    0.691983 0.208467 0.644355 0.168587
H105  H     H_    0.117913 0.504528 0.617349 0.165967
H106  H     H_    0.749311 0.639624 0.468776 0.203801
H107  H     H_    0.731722 0.542935 0.463815 0.249810
H108  H     H_    0.180975 0.589261 0.579205 0.128180
H109  H     H_    0.120791 0.619784 0.545517 0.142761
H110  H     H_    0.208500 0.573734 0.503034 0.289086
H111  H     H_    0.251356 0.638403 0.531222 0.203796
H112  H     H_    0.268476 0.541630 0.536182 0.249774
H113  H     H_    0.410777 0.818979 0.420766 0.128231
H114  H     H_    0.380149 0.879242 0.454405 0.142703
H115  H     H_    0.426057 0.791629 0.496960 0.289096
H116  H     H_    0.495403 0.882094 0.382649 0.165977
H117  H     H_    0.361475 0.748712 0.468750 0.203771
H118  H     H_    0.458264 0.731574 0.463863 0.249826
H119  H     H_    0.410044 0.180527 0.579163 0.128195
H120  H     H_    0.379931 0.120313 0.545409 0.142794
H121  H     H_    0.425784 0.208336 0.503024 0.289113
H122  H     H_    0.360827 0.250848 0.531183 0.203840
H123  H     H_    0.457511 0.268345 0.536236 0.249773
H124  H     H_    0.180406 0.409821 0.420841 0.128209
H125  H     H_    0.120145 0.379795 0.454595 0.142780
H126  H     H_    0.208224 0.425536 0.496980 0.289108
H127  H     H_    0.495132 0.117897 0.617349 0.166004
H128  H     H_    0.250653 0.360517 0.468826 0.203846
H129  H     H_    0.268283 0.457175 0.463768 0.249777
H130  H     H_    0.819160 0.410674 0.579156 0.128177
H131  H     H_    0.879286 0.380358 0.545405 0.142755
H132  H     H_    0.791436 0.426524 0.503015 0.289114
H133  H     H_    0.748694 0.361703 0.531166 0.203787
H134  H     H_    0.731519 0.458444 0.536224 0.249779
H135  H     H_    0.589438 0.180871 0.420789 0.128171
H136  H     H_    0.619897 0.120667 0.454482 0.142783
H137  H     H_    0.573935 0.208438 0.496957 0.289082
H138  H     H_    0.117888 0.494964 0.382650 0.166028
H139  H     H_    0.638651 0.251216 0.468766 0.203802
H140  H     H_    0.541896 0.268436 0.463804 0.249777
H141  H     H_    0.589699 0.819221 0.579226 0.128174
H142  H     H_    0.620137 0.879522 0.545565 0.142790
H143  H     H_    0.574395 0.791752 0.503042 0.289140
H144  H     H_    0.639114 0.749021 0.531246 0.203823
H145  H     H_    0.542373 0.731655 0.536161 0.249760
H146  H     H_    0.379406 0.880062 0.954488 0.142656
H147  H     H_    0.319164 0.910478 0.920802 0.127675
H148  H     H_    0.231596 0.957978 0.963827 0.249811
H149  H     H_    0.882089 0.495505 0.617349 0.166003
H150  H     H_    0.248876 0.861234 0.968792 0.203773
H151  H     H_    0.291634 0.925982 0.996973 0.289132
H152  H     H_    0.620370 0.879910 0.045456 0.142623
H153  H     H_    0.680630 0.910132 0.079173 0.127641
H154  H     H_    0.768338 0.957564 0.036190 0.249833
H155  H     H_    0.750889 0.860862 0.031181 0.203749
H156  H     H_    0.708283 0.925743 0.003016 0.289142
H157  H     H_    0.120064 0.379603 0.954543 0.142694
H158  H     H_    0.089837 0.319360 0.920821 0.127676
H159  H     H_    0.042390 0.231642 0.963794 0.249795
H160  H     H_    0.504642 0.117905 0.382650 0.165953
H161  H     H_    0.139092 0.249083 0.968812 0.203804
H162  H     H_    0.074203 0.291683 0.996976 0.289131
H163  H     H_    0.119989 0.620550 0.045518 0.142669
H164  H     H_    0.089581 0.680811 0.079200 0.127689
H165  H     H_    0.042121 0.768381 0.036169 0.249812
H166  H     H_    0.138861 0.751068 0.031208 0.203777
H167  H     H_    0.074103 0.708325 0.003027 0.289130
H168  H     H_    0.620732 0.119973 0.954348 0.142648
H169  H     H_    0.681056 0.089275 0.920745 0.127675
H170  H     H_    0.768397 0.041901 0.963892 0.249806
H171  H     H_    0.504863 0.882104 0.617351 0.165936
H172  H     H_    0.751226 0.138693 0.968736 0.203760
H173  H     H_    0.708277 0.074149 0.996956 0.289123
H174  H     H_    0.379561 0.120109 0.045523 0.142689
H175  H     H_    0.319274 0.089761 0.079206 0.127673
H176  H     H_    0.231652 0.042390 0.036177 0.249808
H177  H     H_    0.249057 0.139112 0.031218 0.203793
H178  H     H_    0.291736 0.074317 0.003034 0.289130
H179  H     H_    0.879925 0.620426 0.954516 0.142671
H180  H     H_    0.910217 0.680690 0.920814 0.127674
H181  H     H_    0.957639 0.768351 0.963815 0.249809
H182  H     H_    0.382095 0.995281 0.882650 0.166051
H183  H     H_    0.860925 0.750937 0.968807 0.203783
H184  H     H_    0.925768 0.708289 0.996977 0.289134
H185  H     H_    0.880014 0.379507 0.045469 0.142674
H186  H     H_    0.910312 0.319278 0.079183 0.127680
H187  H     H_    0.957810 0.231614 0.036200 0.249803
H188  H     H_    0.861091 0.248978 0.031193 0.203796
H189  H     H_    0.925932 0.291640 0.003025 0.289125
H190  H     H_    0.340291 0.872412 0.163234 0.191176
H191  H     H_    0.252207 0.864977 0.182960 0.122032
H192  H     H_    0.275851 0.807760 0.147360 0.160334
O1    O     O_3   0.500000 0.000000 0.250000 -0.489741
O2    O     O_R   0.500000 0.939240 0.675070 -0.666535
O3    O     O_3   0.722013 0.170782 0.691252 -0.564813
O4    O     O_R   0.939240 0.500000 0.324930 -0.668042
O5    O     O_R   0.060760 0.500000 0.675070 -0.666552
O6    O     O_R   1.000000 0.439240 0.824930 -0.666646
O7    O     O_R   1.000000 0.560760 0.175070 -0.666391
O8    O     O_R   0.560760 0.000000 0.824930 -0.666644
O9    O     O_R   0.439240 0.000000 0.175070 -0.666635
O10   O     O_R   1.000000 0.560760 0.824930 -0.666642
O11   O     O_R   1.000000 0.439240 0.175070 -0.666632
O12   O     O_R   0.439240 0.000000 0.824930 -0.666656
O13   O     O_3   0.500000 0.000000 0.750000 -0.489657
O14   O     O_R   0.560760 0.000000 0.175070 -0.666882
O15   O     O_R   0.414510 0.146130 0.269710 -0.653374
O16   O     O_R   0.585490 0.853870 0.730290 -0.651071
O17   O     O_R   0.853870 0.414510 0.269710 -0.653076
O18   O     O_R   0.146130 0.585490 0.730290 -0.651067
O19   O     O_R   0.585490 0.853870 0.269710 -0.651257
O20   O     O_R   0.414510 0.146130 0.730290 -0.651069
O21   O     O_R   0.146130 0.585490 0.269710 -0.653373
O22   O     O_R   0.853870 0.414510 0.730290 -0.651065
O23   O     O_R   0.414510 0.853870 0.730290 -0.653371
O24   O     O_3   0.000000 0.500000 0.250000 -0.489572
O25   O     O_R   0.585490 0.146130 0.269710 -0.651084
O26   O     O_R   0.853870 0.585490 0.730290 -0.653381
O27   O     O_R   0.146130 0.414510 0.269710 -0.651068
O28   O     O_R   0.585490 0.146130 0.730290 -0.653373
O29   O     O_R   0.414510 0.853870 0.269710 -0.651217
O30   O     O_R   0.146130 0.414510 0.730290 -0.653394
O31   O     O_R   0.853870 0.585490 0.269710 -0.653424
O32   O     O_R   0.914510 0.646130 0.769710 -0.653076
O33   O     O_R   0.085490 0.353870 0.230290 -0.651489
O34   O     O_R   0.353870 0.914510 0.769710 -0.653073
O35   O     O_3   0.000000 0.500000 0.750000 -0.489654
O36   O     O_R   0.646130 0.085490 0.230290 -0.651319
O37   O     O_R   0.085490 0.353870 0.769710 -0.653071
O38   O     O_R   0.914510 0.646130 0.230290 -0.651136
O39   O     O_R   0.646130 0.085490 0.769710 -0.653065
O40   O     O_R   0.353870 0.914510 0.230290 -0.651469
O41   O     O_R   0.914510 0.353870 0.230290 -0.653106
O42   O     O_R   0.085490 0.646130 0.769710 -0.651479
O43   O     O_R   0.353870 0.085490 0.230290 -0.653064
O44   O     O_R   0.646130 0.914510 0.769710 -0.651488
O45   O     O_R   0.085490 0.646130 0.230290 -0.653110
O46   O     O_R   0.500000 0.939240 0.324930 -0.665167
O47   O     O_R   0.914510 0.353870 0.769710 -0.651480
O48   O     O_R   0.646130 0.914510 0.230290 -0.653546
O49   O     O_R   0.353870 0.085490 0.769710 -0.651491
O50   O     O_3   0.868208 0.507081 0.448849 -0.606489
O51   O     O_3   0.131821 0.506441 0.551149 -0.606583
O52   O     O_3   0.493513 0.868188 0.448853 -0.606484
O53   O     O_3   0.493199 0.131800 0.551155 -0.606578
O54   O     O_3   0.131789 0.493046 0.448845 -0.606561
O55   O     O_3   0.868179 0.493664 0.551154 -0.606552
O56   O     O_3   0.506564 0.131812 0.448849 -0.606595
O57   O     O_R   0.500000 0.060760 0.675070 -0.666532
O58   O     O_3   0.506809 0.868201 0.551149 -0.606575
O59   O     O_3   0.368189 0.993386 0.948850 -0.606383
O60   O     O_3   0.631799 0.993198 0.051151 -0.606338
O61   O     O_3   0.006775 0.368197 0.948846 -0.606402
O62   O     O_3   0.006665 0.631804 0.051150 -0.606408
O63   O     O_3   0.631806 0.006597 0.948853 -0.606396
O64   O     O_3   0.368198 0.006798 0.051153 -0.606402
O65   O     O_3   0.993227 0.631800 0.948849 -0.606390
O66   O     O_3   0.993317 0.368193 0.051153 -0.606397
O67   O     O_3   0.329049 0.778421 0.191258 -0.564413
O68   O     O_R   0.060760 0.500000 0.324930 -0.666547
O69   O     O_3   0.670733 0.222100 0.808764 -0.562142
O70   O     O_3   0.221614 0.329079 0.191264 -0.564343
O71   O     O_3   0.777872 0.670712 0.808759 -0.562159
O72   O     O_3   0.670904 0.221631 0.191268 -0.564337
O73   O     O_3   0.329267 0.777893 0.808763 -0.562152
O74   O     O_3   0.778269 0.670325 0.191429 -0.564083
O75   O     O_3   0.222131 0.329300 0.808757 -0.562161
O76   O     O_3   0.329074 0.221610 0.808736 -0.564342
O77   O     O_3   0.670504 0.777192 0.191235 -0.562337
O78   O     O_3   0.221583 0.670947 0.808740 -0.564341
O79   O     O_R   0.939240 0.500000 0.675070 -0.666550
O80   O     O_3   0.777845 0.329319 0.191247 -0.562016
O81   O     O_3   0.670928 0.778401 0.808737 -0.564337
O82   O     O_3   0.329303 0.222136 0.191243 -0.562142
O83   O     O_3   0.778420 0.329043 0.808742 -0.564342
O84   O     O_3   0.222106 0.670734 0.191237 -0.562168
O85   O     O_3   0.829082 0.278335 0.691257 -0.561957
O86   O     O_3   0.170781 0.722008 0.308748 -0.564770
O87   O     O_3   0.721691 0.829103 0.691261 -0.561955
O88   O     O_3   0.277952 0.170747 0.308742 -0.564806
O89   O     O_3   0.170921 0.721669 0.691258 -0.561952
O90   O     O_R   0.500000 0.060760 0.324930 -0.666461
O91   O     O_3   0.829273 0.277930 0.308737 -0.564847
O92   O     O_3   0.278303 0.170881 0.691264 -0.561962
O93   O     O_3   0.721728 0.829673 0.308572 -0.564196
O94   O     O_3   0.829498 0.722811 0.308765 -0.562265
O95   O     O_3   0.170751 0.277955 0.691257 -0.564804
O96   O     O_3   0.721720 0.170862 0.308732 -0.561930
O97   O     O_3   0.277988 0.829223 0.691253 -0.564811
O98   O     O_3   0.170879 0.278298 0.308736 -0.561961
O99   O     O_3   0.829245 0.722032 0.691256 -0.564808
O100  O     O_3   0.278336 0.829075 0.308744 -0.561936
Zn1   Zn    Zn3+2 0.413200 0.000000 0.222070 0.973063
Zn2   Zn    Zn3+2 0.086800 0.500000 0.277930 0.973247
Zn3   Zn    Zn3+2 0.500000 0.913200 0.722070 0.973352
Zn4   Zn    Zn3+2 0.500000 0.086800 0.277930 0.973487
Zn5   Zn    Zn3+2 0.086800 0.500000 0.722070 0.973346
Zn6   Zn    Zn3+2 0.913200 0.500000 0.277930 0.972544
Zn7   Zn    Zn3+2 0.500000 0.086800 0.722070 0.973361
Zn8   Zn    Zn3+2 0.500000 0.913200 0.277930 0.974175
Zn9   Zn    Zn3+2 0.586800 1.000000 0.777930 0.973222
Zn10  Zn    Zn3+2 1.000000 0.413200 0.222070 0.973429
Zn11  Zn    Zn3+2 0.000000 0.586800 0.777930 0.973231
Zn12  Zn    Zn3+2 0.586800 0.000000 0.222070 0.973133
Zn13  Zn    Zn3+2 0.413200 1.000000 0.777930 0.973227
Zn14  Zn    Zn3+2 0.000000 0.586800 0.222070 0.973442
Zn15  Zn    Zn3+2 0.000000 0.413200 0.777930 0.973231
Zn16  Zn    Zn3+2 0.913200 0.500000 0.722070 0.973347

loop_
_geom_bond_atom_site_label_1
_geom_bond_atom_site_label_2
_ccdc_geom_bond_type
C16   C173  A    
C52   H147  S    
C94   H72   S    
C141  O79   A    
C165  O69   S    
C19   C155  S    
C15   C151  S    
C101  H116  S    
C17   C191  A    
O47   Zn15  S    
C33   C114  A    
C124  C133  S    
C188  C191  A    
C48   H136  S    
O7    Zn14  S    
C35   C124  A    
C39   H113  S    
C161  O29   A    
C40   H118  S    
C98   H87   S    
C68   C119  A    
C34   O50   S    
C6    C25   A    
C83   H40   S    
C25   C164  A    
O1    Zn1   S    
C47   H132  S    
C154  O22   A    
C10   C185  A    
C45   O55   S    
C27   C90   A    
O12   Zn13  S    
O16   Zn3   S    
C80   H29   S    
C76   H21   S    
C18   C190  A    
C31   C112  A    
C3    C19   A    
C40   H115  S    
C68   C128  A    
C32   C142  S    
C182  O59   S    
C110  C171  A    
C119  H68   S    
C59   C60   S    
O11   Zn10  S    
C62   H173  S    
C29   C139  S    
C94   O92   S    
C77   H22   S    
O26   Zn16  S    
C30   C115  A    
C45   C47   S    
C2    O60   S    
C38   H110  S    
C139  O2    A    
C114  H24   S    
C84   H43   S    
C16   C188  A    
C149  O55   S    
C167  O71   S    
C36   H107  S    
C155  O23   A    
C37   H109  S    
C169  O73   S    
C106  C127  A    
C66   H181  S    
C111  C182  A    
O13   Zn13  S    
C46   C117  A    
C81   O78   S    
C1    C120  A    
C144  O8    A    
C43   C44   S    
C115  H35   S    
C37   C38   S    
O35   Zn5   S    
C78   H27   S    
C59   H163  S    
C18   C163  S    
C8    C180  A    
C103  H99   S    
C86   H50   S    
C100  H92   S    
O5    Zn5   S    
C56   H158  S    
C97   H83   S    
C173  O76   S    
C99   H89   S    
C82   H37   S    
C78   O76   S    
C47   H133  S    
C34   H90   S    
O1    Zn12  S    
O38   Zn14  S    
C189  O93   S    
C120  C138  A    
C123  C127  A    
C45   H130  S    
C170  C174  A    
C67   C69   S    
C152  O49   A    
C41   H119  S    
C55   H155  S    
C28   C137  S    
C90   C105  A    
C98   H85   S    
C6    O100  S    
C174  O77   S    
C181  O85   S    
O29   Zn8   S    
C53   H150  S    
C94   H74   S    
C4    O98   S    
O13   Zn3   S    
C3    O97   S    
O27   Zn2   S    
C7    O3    S    
C66   H183  S    
C107  C138  A    
C54   O60   S    
C80   H31   S    
C77   H25   S    
C58   H161  S    
C91   H63   S    
C27   C108  A    
C183  O86   S    
C27   C141  S    
C121  C149  A    
C65   O65   S    
C37   O51   S    
O6    Zn15  S    
C31   C145  S    
C95   H75   S    
C5    C21   A    
C192  O96   S    
C48   H135  S    
C44   H126  S    
C142  O10   A    
C57   C118  A    
C70   H191  S    
C75   H18   S    
C24   C114  A    
C91   O88   S    
C89   H60   S    
C123  C132  S    
C121  C130  S    
C41   O53   S    
C92   H65   S    
C44   H129  S    
C104  H103  S    
C52   H146  S    
C140  O68   A    
C99   O97   S    
C43   H124  S    
C96   O94   S    
C127  O53   S    
O24   Zn6   S    
C60   H165  S    
C67   H186  S    
C100  H94   S    
C152  O20   A    
C102  H96   S    
C168  O72   S    
C171  O58   S    
C23   C165  A    
C71   H3    S    
C83   H41   S    
C25   C161  S    
C23   C159  S    
O36   Zn12  S    
O25   Zn4   S    
C11   C177  A    
O15   Zn4   S    
C43   O54   S    
C9    C179  A    
C12   C176  A    
O44   Zn9   S    
C76   H20   S    
C15   C189  A    
C137  O46   A    
O17   Zn6   S    
C189  C190  A    
O45   Zn14  S    
C102  O99   S    
C87   H53   S    
C74   H15   S    
C162  O30   A    
C81   H34   S    
C7    C181  A    
C72   O70   S    
C120  C129  S    
C156  O36   A    
C39   C40   S    
C145  O14   A    
O33   Zn10  S    
C140  O4    A    
C175  O78   S    
C139  O57   A    
C12   C187  A    
C141  O5    A    
C113  H13   S    
C84   H42   S    
C88   H56   S    
C4    C22   A    
C36   H106  S    
C42   H122  S    
C164  O67   S    
O35   Zn16  S    
C187  O91   S    
C44   H128  S    
O34   Zn13  S    
C35   C115  A    
C8    C153  S    
C112  H2    S    
C187  C192  A    
C88   O86   S    
C154  O47   A    
C10   C146  S    
C102  H97   S    
C8    C183  A    
O57   Zn7   S    
O68   Zn2   S    
O41   Zn10  S    
C111  H182  S    
C165  C179  A    
O31   Zn6   S    
C163  O31   A    
C69   H187  S    
C179  O83   S    
C122  C131  S    
C92   H67   S    
C13   O61   S    
C52   C53   S    
C90   H105  S    
C93   H70   S    
C177  O81   S    
C168  C176  A    
C81   H32   S    
C54   C55   S    
O13   Zn9   S    
C11   C184  A    
C70   O67   S    
O46   Zn8   S    
C137  O90   A    
C52   O59   S    
C60   H167  S    
C61   H169  S    
C79   H1    S    
C89   O87   S    
C85   H48   S    
C70   H190  S    
C80   O77   S    
C67   H185  S    
C66   H184  S    
C72   H7    S    
C87   H52   S    
C109  H160  S    
C74   H12   S    
O2    Zn3   S    
C7    C23   A    
C56   C58   S    
C71   O69   S    
C34   C36   S    
C155  O34   A    
C61   C62   S    
C186  O89   S    
C143  O7    A    
C80   H30   S    
C63   C64   S    
C2    C125  A    
C61   H168  S    
C54   H153  S    
C24   C128  A    
O4    Zn6   S    
C57   O65   S    
C125  C134  S    
C172  O75   S    
O49   Zn13  S    
C166  O70   S    
C47   H134  S    
C41   C42   S    
C46   C125  A    
C108  H149  S    
O42   Zn11  S    
C87   O85   S    
C49   H140  S    
C135  C136  T    
C33   C143  S    
C2    C112  A    
C38   H111  S    
C116  C122  A    
O21   Zn2   S    
C84   H44   S    
C129  C130  T    
C157  O32   A    
C26   C140  S    
C128  C136  S    
O30   Zn5   S    
C65   H180  S    
C71   H5    S    
O28   Zn7   S    
C104  H102  S    
C50   H141  S    
C191  O95   S    
C30   C144  S    
C43   H125  S    
C107  H138  S    
C94   H73   S    
C56   O61   S    
C64   H177  S    
C142  O6    A    
C78   H28   S    
C51   H144  S    
C28   C101  A    
O23   Zn3   S    
C86   H51   S    
C166  C178  A    
C32   C113  A    
C97   H82   S    
C164  C180  A    
C63   H174  S    
C18   C170  A    
C82   H38   S    
C5    C184  A    
C73   O71   S    
O24   Zn2   S    
C73   H9    S    
C92   O89   S    
C138  O54   S    
C161  O40   A    
C29   C110  A    
C39   H114  S    
C40   H117  S    
C98   H86   S    
C61   O63   S    
C24   O62   S    
C22   C158  S    
C160  O56   S    
C4    C185  A    
C100  O98   S    
C45   H131  S    
C73   H11   S    
C75   H16   S    
C58   H162  S    
C14   C150  S    
C50   C51   S    
C169  C175  A    
C16   C152  S    
C83   O81   S    
O90   Zn4   S    
C81   H33   S    
C106  H127  S    
C53   H148  S    
C13   C126  A    
C36   H101  S    
C167  C177  A    
C117  H46   S    
C190  O94   S    
C133  C134  T    
C34   H79   S    
C64   H176  S    
C62   H172  S    
C131  C132  T    
C153  O45   A    
O35   Zn11  S    
C77   H23   S    
C180  O84   S    
C75   H17   S    
C145  O9    A    
C89   H59   S    
C15   C174  A    
C32   C118  A    
C157  O26   A    
C59   O62   S    
C118  H57   S    
C20   C192  A    
C92   H66   S    
C104  H104  S    
C73   H10   S    
C51   H145  S    
C26   C79   A    
C21   C167  A    
C6    C183  A    
O24   Zn14  S    
C78   H26   S    
C59   H164  S    
C11   C147  S    
C103  H100  S    
C82   H36   S    
C86   H49   S    
C60   H166  S    
C85   O83   S    
C146  O15   A    
C85   H45   S    
C56   H157  S    
C97   H84   S    
C72   H6    S    
O39   Zn9   S    
C110  H171  S    
C153  O21   A    
C124  C182  A    
C48   O56   S    
C101  C116  A    
C184  O87   S    
C146  O43   A    
C96   H78   S    
C123  C171  A    
C97   O95   S    
C58   H159  S    
O43   Zn1   S    
C41   H120  S    
C55   H156  S    
O32   Zn11  S    
C162  O37   A    
C1    O50   S    
C148  O41   A    
C71   H4    S    
C53   H151  S    
O14   Zn12  S    
O1    Zn4   S    
C14   C175  A    
C83   H39   S    
C74   O72   S    
C143  O11   A    
C116  O52   S    
C14   C186  A    
C49   H137  S    
C91   H64   S    
C70   H192  S    
C50   O58   S    
C50   H142  S    
C147  O44   A    
C31   C117  A    
C35   O63   S    
C151  O48   A    
C39   O52   S    
O40   Zn1   S    
C42   H123  S    
O35   Zn15  S    
C62   H170  S    
C22   C166  A    
C185  O88   S    
C93   O91   S    
O19   Zn8   S    
C176  O80   S    
C37   H108  S    
O22   Zn16  S    
O18   Zn5   S    
C89   H61   S    
O8    Zn9   S    
C54   H152  S    
C96   H81   S    
C150  O42   A    
C151  O19   A    
C144  O12   A    
C158  O27   A    
C159  O39   A    
C95   H77   S    
C93   H69   S    
C63   H175  S    
C156  O25   A    
C20   C168  A    
C51   H143  S    
C170  O74   S    
O1    Zn8   S    
C10   C178  A    
C9    C181  A    
O9    Zn1   S    
C46   O64   S    
C57   C126  A    
C103  H98   S    
C68   O66   S    
C100  H93   S    
C85   H47   S    
C102  H95   S    
C72   H8    S    
C99   H88   S    
O13   Zn7   S    
C82   O80   S    
C75   O73   S    
C105  C121  A    
O10   Zn11  S    
C95   O93   S    
O37   Zn15  S    
C76   H19   S    
O48   Zn12  S    
C86   O84   S    
C9    C154  S    
C33   C119  A    
C55   H154  S    
C84   O82   S    
C29   C106  A    
C63   O64   S    
C3    C186  A    
C172  C173  A    
C178  O82   S    
C87   H54   S    
C88   H58   S    
C74   H14   S    
C148  O17   A    
C48   C49   S    
C20   C156  S    
C158  O33   A    
C21   C157  S    
C19   C169  A    
C104  O3    S    
C98   O96   S    
C26   C107  A    
C126  C135  S    
C49   H139  S    
C147  O16   A    
C91   H62   S    
C28   C109  A    
C96   H80   S    
C67   O66   S    
C38   H112  S    
C30   C111  A    
O20   Zn7   S    
C12   C148  S    
C159  O28   A    
C69   H189  S    
O79   Zn16  S    
C88   H55   S    
C65   H179  S    
C95   H76   S    
C105  O51   S    
C1    C79   A    
C77   O75   S    
C42   H121  S    
C76   O74   S    
C188  O92   S    
C64   H178  S    
C17   C162  S    
C108  C149  A    
C150  O18   A    
C163  O38   A    
O24   Zn10  S    
C65   C66   S    
C17   C172  A    
C122  C160  A    
C69   H188  S    
C103  O100  S    
C109  C160  A    
C13   C113  A    
C5    O99   S    
C93   H71   S    
C99   H91   S    
