data_mof_unit_55171.cif
_audit_creation_date              2012-12-10T21:00:38-0500
_audit_creation_method            fapswitch 2.2
_symmetry_space_group_name_H-M    P1
_symmetry_Int_Tables_number       1
_space_group_crystal_system       triclinic
_cell_length_a                    18.083723
_cell_length_b                    18.150701
_cell_length_c                    18.356711
_cell_angle_alpha                 119.84799
_cell_angle_beta                  90.359727
_cell_angle_gamma                 119.723561
_cell_volume                      4274.63855777

loop_
_atom_site_label
_atom_site_type_symbol
_atom_type_description
_atom_site_fract_x
_atom_site_fract_y
_atom_site_fract_z
_atom_type_partial_charge
C1    C     C_R   0.111884 0.220115 0.609651 0.795643
C2    C     C_3   0.450264 0.896682 0.946732 -0.072581
C3    C     C_1   0.007095 0.269687 0.220734 0.163645
C4    C     C_1   0.139821 0.847991 0.938354 0.209526
C5    C     C_1   0.860159 0.152012 0.061643 0.209523
C6    C     C_1   0.140134 0.754579 0.026359 0.180590
C7    C     C_1   0.859865 0.245429 0.973638 0.180601
C8    C     C_1   0.853116 0.514845 0.703875 0.136402
C9    C     C_1   0.146874 0.485141 0.296121 0.136407
C10   C     C_1   0.878227 0.554633 0.989279 0.228268
C11   C     C_1   0.121807 0.445420 0.010753 0.228276
C12   C     C_1   0.571477 0.079250 0.901077 0.169157
C13   C     C_3   0.447434 0.031918 0.035828 -0.223562
C14   C     C_1   0.428523 0.920749 0.098923 0.169161
C15   C     C_1   0.359424 0.928123 0.863358 0.195117
C16   C     C_1   0.640575 0.071877 0.136643 0.195121
C17   C     C_3   0.552565 0.968082 0.964173 -0.223559
C18   C     C_3   0.453285 0.407639 0.488205 -0.169655
C19   C     C_3   0.546715 0.592360 0.511795 -0.169642
C20   C     C_3   0.557612 0.482179 0.521609 -0.179792
C21   C     C_3   0.442388 0.517820 0.478391 -0.179790
C22   C     C_3   0.549988 0.499208 0.448752 0.051708
C23   C     C_3   0.450012 0.500792 0.551248 0.051712
C24   C     C_3   0.446458 0.424579 0.414450 -0.131967
C25   C     C_R   0.888113 0.779884 0.390349 0.795672
C26   C     C_3   0.553542 0.575421 0.585550 -0.131968
C27   C     C_R   0.251884 0.202851 0.794204 -0.155512
C28   C     C_R   0.748031 0.796991 0.205781 -0.155372
C29   C     C_R   0.392813 0.780914 0.887918 0.803827
C30   C     C_R   0.607187 0.219086 0.112082 0.803825
C31   C     C_R   0.201986 0.151229 0.705565 0.049693
C32   C     C_R   0.797934 0.848610 0.294417 0.049838
C33   C     C_R   0.107320 0.100993 0.679928 0.074097
C34   C     C_R   0.892622 0.899002 0.320083 0.074103
C35   C     C_R   0.064309 0.102152 0.743604 -0.180250
C36   C     C_3   0.934652 0.401213 0.433196 -0.156873
C37   C     C_R   0.935646 0.898006 0.256439 -0.180432
C38   C     C_R   0.114800 0.154370 0.832092 0.066798
C39   C     C_R   0.885149 0.845789 0.167953 0.066769
C40   C     C_R   0.208557 0.204803 0.857211 -0.145250
C41   C     C_R   0.791373 0.795198 0.142805 -0.145281
C42   C     C_R   0.995027 0.943789 0.533249 -0.240284
C43   C     C_R   0.004946 0.056209 0.466755 -0.240327
C44   C     C_R   0.943347 0.892298 0.445519 -0.043122
C45   C     C_R   0.056631 0.107701 0.554483 -0.043136
C46   C     C_R   0.947572 0.948908 0.411790 0.011323
C47   C     C_3   0.065347 0.598787 0.566804 -0.156870
C48   C     C_R   0.052390 0.051089 0.588216 0.011277
C49   C     C_R   0.602436 0.471427 0.731849 -0.173851
C50   C     C_R   0.397552 0.528555 0.268144 -0.173817
C51   C     C_R   0.561455 0.452407 0.790713 0.025159
C52   C     C_R   0.438533 0.547582 0.209283 0.025176
C53   C     C_R   0.111583 0.501453 0.890314 0.813082
C54   C     C_R   0.888417 0.498548 0.109687 0.813082
C55   C     C_R   0.570888 0.534984 0.871055 0.057704
C56   C     C_R   0.429108 0.465011 0.128941 0.057695
C57   C     C_R   0.622024 0.635586 0.891327 -0.144028
C58   C     C_3   0.433147 0.965907 0.935146 -0.004194
C59   C     C_R   0.377972 0.364407 0.108662 -0.144032
C60   C     C_R   0.662876 0.653897 0.832207 0.060030
C61   C     C_R   0.337121 0.346089 0.167780 0.060031
C62   C     C_R   0.653365 0.571799 0.752770 -0.173452
C63   C     C_R   0.346626 0.428181 0.247219 -0.173463
C64   C     C_R   0.583819 0.519009 0.994595 -0.246142
C65   C     C_R   0.416181 0.480993 0.005405 -0.246106
C66   C     C_R   0.550512 0.500050 0.056200 -0.045285
C67   C     C_R   0.449487 0.499951 0.943801 -0.045223
C68   C     C_R   0.466045 0.480823 0.062217 -0.005465
C69   C     C_3   0.566853 0.034092 0.064854 -0.004193
C70   C     C_R   0.533955 0.519179 0.937783 -0.005456
C71   C     C_R   0.069417 0.739609 0.899121 -0.043970
C72   C     C_R   0.930569 0.260391 0.100877 -0.043913
C73   C     C_R   0.071226 0.693025 0.941237 0.015057
C74   C     C_R   0.928769 0.306979 0.058761 0.015117
C75   C     C_R   0.004452 0.586559 0.901356 0.084298
C76   C     C_R   0.995549 0.413444 0.098643 0.084287
C77   C     C_R   0.392631 0.500295 0.607864 0.784929
C78   C     C_R   0.607369 0.499705 0.392136 0.784952
C79   C     C_R   0.935183 0.528622 0.821418 -0.227585
C80   C     C_3   0.534557 0.037579 0.953037 -0.019982
C81   C     C_R   0.064817 0.471374 0.178581 -0.227571
C82   C     C_R   0.930396 0.575511 0.781634 0.017233
C83   C     C_R   0.069595 0.424481 0.218364 0.017237
C84   C     C_R   0.998019 0.681094 0.819766 -0.017168
C85   C     C_R   0.001964 0.318901 0.180232 -0.017159
C86   C     C_R   0.941925 0.530045 0.997578 -0.065077
C87   C     C_R   0.058088 0.469974 0.002433 -0.065071
C88   C     C_R   0.943205 0.495672 0.051469 -0.114262
C89   C     C_R   0.056799 0.504335 0.948535 -0.114262
C90   C     C_R   0.999471 0.462296 0.051610 -0.042992
C91   C     C_3   0.465443 0.962421 0.046963 -0.019983
C92   C     C_R   0.000534 0.537713 0.948393 -0.042988
C93   C     C_R   0.393889 0.498749 0.887314 0.808821
C94   C     C_R   0.606111 0.501251 0.112686 0.808806
C95   C     C_R   0.109255 0.500542 0.607852 0.786311
C96   C     C_R   0.890744 0.499458 0.392147 0.786308
C97   C     C_3   0.037347 0.453059 0.451443 -0.121894
C98   C     C_3   0.962652 0.546940 0.548558 -0.121893
C99   C     C_3   0.050138 0.550946 0.466325 -0.180188
C100  C     C_3   0.949862 0.449053 0.533675 -0.180190
C101  C     C_3   0.948353 0.499109 0.448905 0.032743
C102  C     C_3   0.549735 0.103318 0.053268 -0.072580
C103  C     C_3   0.051646 0.500891 0.551095 0.032742
C104  C     C_1   0.248915 0.151912 0.642349 0.129999
C105  C     C_1   0.750984 0.847747 0.357592 0.129902
C106  C     C_1   0.070556 0.157619 0.897510 0.173500
C107  C     C_1   0.929410 0.842697 0.102564 0.173488
C108  C     C_1   0.512151 0.348557 0.768734 0.141321
C109  C     C_1   0.487828 0.651432 0.231267 0.141328
C110  C     C_1   0.715369 0.757191 0.853442 0.143913
C111  C     C_1   0.284640 0.242797 0.146549 0.143905
C112  C     C_1   0.992879 0.730303 0.779263 0.163652
H1    H     H_    0.089938 0.593072 0.437898 0.148880
H2    H     H_    0.119681 0.679757 0.622707 0.161256
H3    H     H_    0.605629 0.467171 0.538039 0.141830
H4    H     H_    0.394371 0.532828 0.461960 0.141833
H5    H     H_    0.403393 0.362038 0.343475 0.153837
H6    H     H_    0.596607 0.637961 0.656525 0.153840
H7    H     H_    0.248185 0.245972 0.925599 0.135973
H8    H     H_    0.751740 0.754024 0.074419 0.135969
H9    H     H_    0.991786 0.064315 0.724537 0.145249
H10   H     H_    0.008186 0.935968 0.275526 0.145288
H11   H     H_    0.992569 0.900322 0.558757 0.175859
H12   H     H_    0.910062 0.406928 0.562102 0.148879
H13   H     H_    0.007405 0.099679 0.441249 0.175851
H14   H     H_    0.595942 0.408755 0.670137 0.156116
H15   H     H_    0.404043 0.591221 0.329858 0.156118
H16   H     H_    0.069843 0.415313 0.413591 0.169716
H17   H     H_    0.930156 0.584686 0.586410 0.169714
H18   H     H_    0.648497 0.532248 0.989704 0.182306
H19   H     H_    0.351502 0.467752 0.010296 0.182298
H20   H     H_    0.882584 0.447637 0.792320 0.149360
H21   H     H_    0.117419 0.552359 0.207681 0.149362
H22   H     H_    0.404353 0.057813 0.065054 0.176907
H23   H     H_    0.324578 0.242624 0.814961 0.154632
H24   H     H_    0.595646 0.942187 0.934946 0.176908
H25   H     H_    0.414084 0.331938 0.479615 0.147043
H26   H     H_    0.585916 0.668062 0.520385 0.147070
H27   H     H_    0.675322 0.757091 0.185000 0.154583
H28   H     H_    0.685775 0.585524 0.707232 0.145973
H29   H     H_    0.314219 0.414450 0.292755 0.145972
H30   H     H_    0.630228 0.699481 0.953328 0.136093
H31   H     H_    0.369772 0.300515 0.046661 0.136098
H32   H     H_    0.880318 0.320243 0.377293 0.161256
N1    N     N_1   0.286411 0.152514 0.591580 -0.197271
N2    N     N_1   0.011044 0.230004 0.252703 -0.195522
N3    N     N_1   0.196067 0.934416 0.969617 -0.181487
N4    N     N_1   0.803908 0.065587 0.030378 -0.181506
N5    N     N_1   0.194879 0.803634 0.094472 -0.184147
N6    N     N_1   0.805123 0.196378 0.905524 -0.184159
N7    N     N_1   0.791001 0.466317 0.641808 -0.230512
N8    N     N_1   0.208988 0.533663 0.358188 -0.230512
N9    N     N_1   0.827680 0.574098 0.982323 -0.201068
N10   N     N_1   0.172373 0.425986 0.017727 -0.201084
N11   N     N_1   0.600233 0.112087 0.860022 -0.178613
N12   N     N_1   0.713468 0.846996 0.408326 -0.197398
N13   N     N_1   0.399766 0.887912 0.139978 -0.178609
N14   N     N_1   0.301256 0.898209 0.806769 -0.200085
N15   N     N_1   0.698743 0.101791 0.193233 -0.200084
N16   N     N_1   0.035074 0.160386 0.950151 -0.186022
N17   N     N_1   0.964906 0.840057 0.049947 -0.185919
N18   N     N_1   0.472946 0.265373 0.751266 -0.192439
N19   N     N_1   0.527025 0.734619 0.248740 -0.192430
N20   N     N_1   0.757585 0.840180 0.870385 -0.170910
N21   N     N_1   0.242435 0.159810 0.129611 -0.170910
N22   N     N_1   0.988922 0.769982 0.747294 -0.195512
O1    O     O_3   0.251620 0.500000 0.748430 -0.489037
O2    O     O_R   0.570330 0.268390 0.136490 -0.639341
O3    O     O_R   0.134680 0.268390 0.572240 -0.643309
O4    O     O_R   0.865320 0.731610 0.427760 -0.643299
O5    O     O_R   0.306670 0.731630 0.863510 -0.637401
O6    O     O_R   0.693330 0.268370 0.136490 -0.637405
O7    O     O_R   0.135450 0.439270 0.865360 -0.635010
O8    O     O_R   0.864550 0.560730 0.134640 -0.634995
O9    O     O_R   0.429670 0.560710 0.692610 -0.643909
O10   O     O_R   0.570330 0.439290 0.307390 -0.643910
O11   O     O_R   0.308540 0.439240 0.865360 -0.641782
O12   O     O_3   0.748380 0.500000 0.251570 -0.489041
O13   O     O_R   0.691460 0.560760 0.134640 -0.641798
O14   O     O_R   0.133580 0.439310 0.571150 -0.641541
O15   O     O_R   0.866420 0.560690 0.428850 -0.641543
O16   O     O_R   0.430770 0.560690 0.864590 -0.642150
O17   O     O_R   0.569230 0.439310 0.135410 -0.642135
O18   O     O_R   0.133580 0.560760 0.692610 -0.640917
O19   O     O_R   0.866420 0.439240 0.307390 -0.640921
O20   O     O_R   0.134680 0.560740 0.864590 -0.643040
O21   O     O_R   0.865320 0.439260 0.135410 -0.643050
O22   O     O_R   0.306670 0.439270 0.571150 -0.637091
O23   O     O_R   0.693330 0.560730 0.428850 -0.637082
O24   O     O_R   0.135450 0.268370 0.694460 -0.637704
O25   O     O_R   0.864550 0.731630 0.305540 -0.637706
O26   O     O_R   0.429670 0.731610 0.863510 -0.639339
Zn1   Zn    Zn3+2 0.207400 0.586780 0.791530 0.981832
Zn2   Zn    Zn3+2 0.792600 0.413220 0.208470 0.981822
Zn3   Zn    Zn3+2 0.208510 0.413230 0.792630 0.986517
Zn4   Zn    Zn3+2 0.791490 0.586770 0.207370 0.986542
Zn5   Zn    Zn3+2 0.383150 0.586740 0.791530 0.977649
Zn6   Zn    Zn3+2 0.616850 0.413260 0.208470 0.977660
Zn7   Zn    Zn3+2 0.207400 0.413250 0.618010 0.977651
Zn8   Zn    Zn3+2 0.792600 0.586750 0.381990 0.977680

loop_
_geom_bond_atom_site_label_1
_geom_bond_atom_site_label_2
_ccdc_geom_bond_type
C25   O4    A    
C47   H2    S    
C66   C68   A    
C9    N8    T    
C17   C69   S    
C3    C85   S    
C34   C37   A    
C73   C75   A    
C13   H22   S    
O20   Zn1   S    
O6    Zn2   S    
O19   Zn2   S    
O5    Zn1   S    
C43   H13   S    
O4    Zn8   S    
C72   C85   A    
C53   C89   S    
C53   O7    A    
C39   C41   A    
C69   C102  S    
O8    Zn4   S    
C49   H14   S    
O16   Zn5   S    
C24   H5    S    
C84   C112  S    
C47   C98   S    
C74   C76   A    
C57   H30   S    
C2    C29   S    
C8    C82   S    
C22   C24   S    
C19   C21   S    
C5    C72   S    
C21   H4    S    
C33   C35   A    
C86   C88   A    
C95   O18   A    
O18   Zn1   S    
C28   C41   A    
C47   C99   S    
C10   N9    T    
C54   C88   S    
C60   C62   A    
C23   C26   S    
C61   C63   A    
C19   C26   S    
O25   Zn4   S    
O9    Zn5   S    
C11   N10   T    
C65   H19   S    
C6    N5    T    
C107  N17   T    
C11   C87   S    
C51   C108  S    
C65   C67   A    
O7    Zn3   S    
C50   C52   A    
C31   C33   A    
C36   C97   S    
C111  N21   T    
C64   C70   A    
C96   O15   A    
C18   C20   S    
C58   C80   S    
C66   C94   S    
C1    O24   A    
C23   C77   S    
O12   Zn6   S    
C59   H31   S    
C77   O9    A    
C5    N4    T    
C96   C101  S    
C13   C91   S    
C2    C17   S    
C78   O10   A    
C50   C63   A    
O1    Zn1   S    
C78   O23   A    
C42   C44   A    
C97   H16   S    
C96   O19   A    
C25   C44   S    
C81   C83   A    
C95   C103  S    
C42   H11   S    
C7    C74   S    
O13   Zn4   S    
C63   H29   S    
C19   C22   S    
C59   C61   A    
O17   Zn6   S    
C47   C103  S    
C64   H18   S    
C14   N13   T    
C27   C31   A    
C18   C23   S    
C28   C32   A    
C8    N7    T    
C22   C78   S    
C15   N14   T    
C72   C74   A    
C97   C99   S    
C71   C73   A    
C110  N20   T    
C57   C60   A    
C13   C58   S    
C44   C46   A    
O22   Zn7   S    
C49   C51   A    
C56   C68   S    
C4    N3    T    
O12   Zn4   S    
C100  C103  S    
C28   H27   S    
C80   C102  S    
C36   C101  S    
C100  H12   S    
C32   C34   A    
C38   C106  S    
C18   H25   S    
C39   C107  S    
C53   O20   A    
C79   C82   A    
C7    N6    T    
O12   Zn2   S    
C93   O16   A    
C35   H9    S    
C27   C40   A    
C65   C68   A    
C112  N22   T    
C30   C102  S    
C17   H24   S    
O1    Zn5   S    
C29   O26   A    
C36   C100  S    
C42   C48   A    
O26   Zn5   S    
C29   O5    A    
C89   C92   A    
C43   C45   A    
C30   O6    A    
C97   C103  S    
O2    Zn6   S    
C75   C92   S    
C9    C83   S    
C34   C46   S    
O24   Zn3   S    
O23   Zn8   S    
C99   C101  S    
C88   C90   A    
C98   C100  S    
C32   C105  S    
C55   C57   A    
O21   Zn2   S    
C109  N19   T    
C15   C58   S    
C18   C24   S    
C87   C90   A    
C94   O17   A    
C20   C22   S    
C12   N11   T    
C61   C111  S    
C6    C73   S    
C71   C84   A    
C45   C48   A    
C77   O22   A    
O12   Zn8   S    
C10   C86   S    
C93   O11   A    
C49   C62   A    
O11   Zn3   S    
C83   C85   A    
O1    Zn3   S    
C104  N1    T    
C16   C69   S    
C26   H6    S    
O10   Zn6   S    
C20   C26   S    
C76   C81   A    
C99   H1    S    
C20   H3    S    
C2    C58   S    
C81   H21   S    
C25   O25   A    
C98   C101  S    
C82   C84   A    
C56   C59   A    
O3    Zn7   S    
C54   O21   A    
C67   C70   A    
C27   H23   S    
C31   C104  S    
C54   O8    A    
C21   C23   S    
C36   H32   S    
C30   O2    A    
C37   C39   A    
O14   Zn7   S    
C86   C92   A    
C38   C40   A    
C1    C45   S    
C108  N18   T    
C52   C109  S    
C19   H26   S    
C106  N16   T    
C79   H20   S    
C12   C80   S    
C98   H17   S    
C1    O3    A    
C87   C89   A    
C51   C55   A    
C94   O13   A    
C17   C80   S    
C41   H8    S    
C2    C91   S    
C43   C46   A    
C14   C91   S    
C55   C70   S    
C60   C110  S    
C37   H10   S    
C95   O14   A    
C105  N12   T    
C3    N2    T    
C40   H7    S    
C21   C24   S    
C76   C90   S    
C67   C93   S    
C33   C48   S    
O1    Zn7   S    
C35   C38   A    
C50   H15   S    
C62   H28   S    
C13   C102  S    
C69   C91   S    
O15   Zn8   S    
C75   C79   A    
C4    C71   S    
C52   C56   A    
C64   C66   A    
C16   N15   T    
