data_mof_unit_57291.cif
_audit_creation_date              2012-12-10T17:14:41-0500
_audit_creation_method            fapswitch 2.2
_symmetry_space_group_name_H-M    P1
_symmetry_Int_Tables_number       1
_space_group_crystal_system       triclinic
_cell_length_a                    10.674406
_cell_length_b                    13.020987
_cell_length_c                    11.863427
_cell_angle_alpha                 99.686424
_cell_angle_beta                  93.104298
_cell_angle_gamma                 94.461501
_cell_volume                      1616.68229995

loop_
_atom_site_label
_atom_site_type_symbol
_atom_type_description
_atom_site_fract_x
_atom_site_fract_y
_atom_site_fract_z
_atom_type_partial_charge
C1    C     C_R   0.497367 0.299911 0.478802 0.870132
C2    C     C_R   0.503319 0.700616 0.521198 0.860023
C3    C     C_R   0.444069 0.132181 0.543348 0.406874
C4    C     C_R   0.546408 0.866621 0.446746 0.381784
C5    C     C_R   0.468517 0.027291 0.544152 -0.104567
C6    C     C_R   0.536522 0.974962 0.454740 -0.097261
C7    C     C_R   0.388506 0.392669 0.021233 -0.267235
C8    C     C_R   0.612086 0.606626 0.978537 -0.277563
C9    C     C_R   0.398533 0.400046 0.141792 0.190864
C10   C     C_R   0.601169 0.600021 0.858225 0.190448
C11   C     C_R   0.548053 0.548467 0.155011 0.526517
C12   C     C_R   0.453928 0.449934 0.844489 0.537687
C13   C     C_R   0.540469 0.538519 0.033506 -0.042842
C14   C     C_R   0.460523 0.460361 0.966102 -0.047049
C15   C     C_R   0.259701 0.496833 0.500391 0.821303
C16   C     C_R   0.740305 0.503015 0.499606 0.821666
C17   C     C_3   0.040437 0.470135 0.597716 0.024509
C18   C     C_3   0.959627 0.529519 0.402376 0.020056
C19   C     C_3   0.944842 0.403340 0.505969 -0.326805
C20   C     C_3   0.055169 0.596320 0.494131 -0.324330
C21   C     C_3   0.876752 0.502744 0.497860 -0.102562
C22   C     C_3   0.123265 0.496928 0.502200 -0.103066
C23   C     C_3   0.971844 0.567664 0.588391 0.436045
C24   C     C_3   0.028176 0.431993 0.411713 0.433748
C25   C     C_R   0.501732 0.814214 0.532769 -0.145374
C26   C     C_R   0.504062 0.187769 0.467425 -0.143766
C27   C     C_R   0.594763 0.032456 0.377135 0.445254
C28   C     C_R   0.431433 0.975106 0.634215 0.441152
C29   C     C_R   0.577867 0.138595 0.385216 -0.405468
C30   C     C_R   0.448901 0.868960 0.627197 -0.400485
Cu1   Cu    Cu3+1 0.509400 0.507730 0.615930 0.938166
Cu2   Cu    Cu3+1 0.490600 0.492270 0.384070 0.929980
H1    H     H_    0.898589 0.324520 0.508828 0.156061
H2    H     H_    0.101395 0.675137 0.491235 0.153198
H3    H     H_    0.417101 0.828065 0.694204 0.162648
H4    H     H_    0.625273 0.183969 0.328819 0.163311
H5    H     H_    0.326912 0.332054 0.968341 0.209896
H6    H     H_    0.673668 0.667282 0.031373 0.209511
N1    N     N_R   0.523540 0.519360 0.790140 -0.250873
N2    N     N_R   0.476460 0.480640 0.209860 -0.248609
O1    O     O_R   0.506670 0.354460 0.582000 -0.540916
O2    O     O_R   0.493330 0.645540 0.418000 -0.556631
O3    O     O_R   0.490800 0.341410 0.386200 -0.630373
O4    O     O_R   0.509200 0.658590 0.613800 -0.626707
O5    O     O_R   0.324790 0.506500 0.597880 -0.633012
O6    O     O_R   0.675210 0.493500 0.402120 -0.631027
O7    O     O_R   0.308910 0.493440 0.402080 -0.575125
O8    O     O_R   0.691090 0.506560 0.597920 -0.573713
C31   C     C_3   0.086908 0.436275 0.708864 -0.373909
C32   C     C_3   0.979296 0.418706 0.785848 -0.309779
C33   C     C_3   0.027875 0.381536 0.894210 -0.864627
H7    H     H_    0.069947 0.305975 0.871736 0.267540
H8    H     H_    0.100162 0.440428 0.943579 0.259904
H9    H     H_    0.948711 0.370204 0.949131 0.245318
H10   H     H_    0.934684 0.492691 0.811099 0.248752
H11   H     H_    0.906490 0.358899 0.738680 0.229716
H12   H     H_    0.131759 0.362154 0.685886 0.224557
H13   H     H_    0.158158 0.497461 0.755876 0.207179
C34   C     C_3   0.913485 0.563335 0.291138 -0.361729
C35   C     C_3   0.021266 0.580732 0.214267 -0.317009
C36   C     C_3   0.972939 0.617878 0.105807 -0.859830
H14   H     H_    0.900635 0.559025 0.056397 0.262944
H15   H     H_    0.930958 0.693494 0.128162 0.270729
H16   H     H_    0.052214 0.629092 0.050974 0.240690
H17   H     H_    0.094103 0.640490 0.261472 0.225588
H18   H     H_    0.065785 0.506688 0.189120 0.248642
H19   H     H_    0.842233 0.502172 0.244095 0.211304
H20   H     H_    0.868811 0.637543 0.314038 0.232431
O9    O     O_3   0.939819 0.638978 0.681512 -0.767299
H21   H     H_    0.020885 0.668331 0.723682 0.316246
O10   O     O_3   0.060127 0.360678 0.318580 -0.768120
H22   H     H_    0.979018 0.331187 0.276578 0.316697
O11   O     O_3   0.598657 0.810256 0.355287 -0.655293
H23   H     H_    0.552221 0.823471 0.285139 0.364731
O12   O     O_3   0.358416 0.181230 0.611875 -0.672111
H24   H     H_    0.283537 0.130728 0.609904 0.346086
O13   O     O_3   0.674412 0.986261 0.299349 -0.706453
H25   H     H_    0.706754 0.037672 0.252646 0.318011
O14   O     O_3   0.384331 0.029672 0.730766 -0.701922
H26   H     H_    0.364882 0.981610 0.785293 0.316621
O15   O     O_3   0.375732 0.368014 0.783942 -0.714184
H27   H     H_    0.353949 0.383803 0.708163 0.379515
O16   O     O_3   0.631448 0.627108 0.214523 -0.744876
H28   H     H_    0.645514 0.615208 0.292889 0.387965
C37   C     C_3   0.662190 0.691350 0.808990 -0.311443
C38   C     C_3   0.771301 0.760807 0.881509 -0.428032
C39   C     C_3   0.822415 0.847232 0.819143 -0.780227
H29   H     H_    0.852252 0.814367 0.733414 0.288404
H30   H     H_    0.748797 0.901224 0.808071 0.251521
H31   H     H_    0.904783 0.892672 0.870409 0.239121
H32   H     H_    0.738237 0.801300 0.963038 0.226279
H33   H     H_    0.848348 0.712213 0.900415 0.247557
H34   H     H_    0.700355 0.661836 0.726793 0.279069
H35   H     H_    0.587500 0.743807 0.796454 0.202093
C40   C     C_3   0.337434 0.308794 0.191162 -0.311471
C41   C     C_3   0.227964 0.239598 0.118842 -0.422678
C42   C     C_3   0.176828 0.153149 0.181181 -0.794300
H36   H     H_    0.250101 0.098660 0.191374 0.244086
H37   H     H_    0.147977 0.185875 0.267320 0.287600
H38   H     H_    0.093826 0.108266 0.130357 0.241952
H39   H     H_    0.151037 0.288404 0.100222 0.246952
H40   H     H_    0.260599 0.199051 0.037162 0.229378
H41   H     H_    0.412029 0.256150 0.203666 0.206859
H42   H     H_    0.299527 0.338353 0.273442 0.277782

loop_
_geom_bond_atom_site_label_1
_geom_bond_atom_site_label_2
_ccdc_geom_bond_type
C39   H29   S    
C10   C37   S    
C16   C21   S    
C41   H40   S    
C27   C29   A    
C18   C21   S    
O11   H23   S    
C23   O9    S    
C40   C41   S    
C15   O7    A    
C16   O8    A    
O15   H27   S    
Cu1   Cu2   S    
O13   H25   S    
C29   H4    S    
C17   C23   S    
C30   H3    S    
C18   C24   S    
C19   C21   S    
C38   H32   S    
C5    C6    A    
C31   H12   S    
C36   H15   S    
C28   O14   S    
C34   H19   S    
C37   H34   S    
C1    O3    A    
C15   C22   S    
O16   H28   S    
C2    O4    A    
C3    O12   S    
C9    C40   S    
C36   H14   S    
C20   H2    S    
C35   H18   S    
C34   C35   S    
C41   H39   S    
C11   N2    A    
C8    H6    S    
C42   H37   S    
C40   H41   S    
C42   H36   S    
C7    C14   A    
Cu1   O4    S    
C33   H7    S    
C4    C6    A    
C19   H1    S    
C16   O6    A    
C38   C39   S    
C3    C5    A    
C37   C38   S    
C9    N2    A    
C32   H11   S    
C31   H13   S    
C35   C36   S    
C33   H8    S    
C36   H16   S    
O12   H24   S    
C34   H20   S    
C5    C28   A    
C37   H35   S    
C6    C27   A    
C20   C23   S    
C41   C42   S    
C32   C33   S    
C7    H5    S    
C4    O11   S    
C1    O1    A    
C12   C14   A    
C35   H17   S    
Cu1   O8    S    
C21   C23   S    
C1    C26   S    
Cu2   O7    S    
C22   C24   S    
C15   O5    A    
C17   C31   S    
C4    C25   A    
C42   H38   S    
C40   H42   S    
C25   C30   A    
C7    C9    A    
Cu1   O1    S    
Cu2   O6    S    
C3    C26   A    
C32   H10   S    
C20   C22   S    
C27   O13   S    
C17   C22   S    
C33   H9    S    
C11   O16   S    
C12   N1    A    
C28   C30   A    
C19   C24   S    
O10   H22   S    
C38   H33   S    
C11   C13   A    
C2    O2    A    
C17   C19   S    
Cu2   O3    S    
Cu1   N1    S    
C12   O15   S    
C2    C25   S    
C18   C20   S    
Cu2   N2    S    
O9    H21   S    
O14   H26   S    
C8    C13   A    
C18   C34   S    
C26   C29   A    
C8    C10   A    
C31   C32   S    
Cu1   O5    S    
C39   H31   S    
C39   H30   S    
Cu2   O2    S    
C10   N1    A    
C13   C14   A    
C24   O10   S    
