data_mof_unit_24012.cif
_audit_creation_date              2012-12-11T16:18:01-0500
_audit_creation_method            fapswitch 2.2
_symmetry_space_group_name_H-M    P1
_symmetry_Int_Tables_number       1
_space_group_crystal_system       triclinic
_cell_length_a                    14.057363
_cell_length_b                    14.049194
_cell_length_c                    30.060449
_cell_angle_alpha                 97.249597
_cell_angle_beta                  96.969341
_cell_angle_gamma                 61.295528
_cell_volume                      5152.97407085

loop_
_atom_site_label
_atom_site_type_symbol
_atom_type_description
_atom_site_fract_x
_atom_site_fract_y
_atom_site_fract_z
_atom_type_partial_charge
C1    C     C_R   0.385974 0.710703 0.442180 0.569615
C2    C     C_R   0.780218 0.265742 0.377826 -0.121659
C3    C     C_3   0.874214 0.487485 0.110817 -0.233522
C4    C     C_3   0.986307 0.478468 0.126260 -0.267592
C5    C     C_3   0.000319 0.567959 0.108805 -0.440620
C6    C     C_R   0.808301 0.239578 0.333333 -0.113942
C7    C     C_R   0.398993 0.381023 0.426456 0.546724
C8    C     C_R   0.824001 0.312032 0.311260 0.039420
C9    C     C_R   0.818919 0.407024 0.334427 -0.112025
C10   C     C_R   0.790510 0.433598 0.378863 -0.126963
C11   C     C_R   0.849956 0.382184 0.164225 -0.131650
C12   C     C_R   0.869111 0.386589 0.120314 -0.040605
C13   C     C_R   0.858971 0.217056 0.099421 0.224604
C14   C     C_R   0.840566 0.213941 0.144283 0.055505
C15   C     C_R   0.360341 0.236851 0.222487 -0.108931
C16   C     C_R   0.842354 0.294496 0.176802 -0.011322
C17   C     C_1   0.837366 0.291106 0.223884 -0.036683
C18   C     C_1   0.833229 0.296287 0.263782 -0.032062
C19   C     C_R   0.709948 0.405271 0.442297 0.542019
C20   C     C_R   0.885654 0.296814 0.088239 -0.002693
C21   C     C_R   0.366221 0.769731 0.401907 0.059373
C22   C     C_R   0.455189 0.770690 0.385193 -0.176563
C23   C     C_R   0.447482 0.801409 0.342204 -0.133714
C24   C     C_R   0.350550 0.832955 0.315641 0.007726
C25   C     C_R   0.258557 0.841932 0.332994 -0.108773
C26   C     C_R   0.368169 0.244269 0.269354 -0.107193
C27   C     C_R   0.265089 0.810986 0.376417 0.241676
C28   C     C_R   0.243615 0.851241 0.155934 0.013802
C29   C     C_R   0.227879 0.872430 0.110382 -0.103561
C30   C     C_R   0.387775 0.898442 0.117223 -0.138963
C31   C     C_R   0.389220 0.712265 0.568050 0.547168
C32   C     C_R   0.405721 0.875639 0.162051 -0.131549
C33   C     C_R   0.332323 0.856156 0.181747 0.038533
C34   C     C_1   0.344016 0.849232 0.229323 -0.039727
C35   C     C_1   0.348416 0.843829 0.269000 -0.032538
C36   C     C_R   0.296101 0.901692 0.091598 0.002710
C37   C     C_R   0.324973 0.346489 0.293252 0.037916
C38   C     C_R   0.364319 0.362217 0.591746 -0.029986
C39   C     C_R   0.424568 0.261969 0.610921 -0.058820
C40   C     C_R   0.406039 0.249468 0.653867 0.256768
C41   C     C_R   0.325723 0.339940 0.677962 0.031548
C42   C     C_R   0.259604 0.436724 0.657426 -0.150423
C43   C     C_R   0.402039 0.383018 0.552281 0.539844
C44   C     C_R   0.278248 0.447758 0.614447 -0.146415
C45   C     C_R   0.217085 0.402832 0.832665 -0.119754
C46   C     C_R   0.208280 0.387003 0.876490 -0.133056
C47   C     C_R   0.394446 0.240995 0.878882 -0.126522
C48   C     C_R   0.310067 0.331554 0.199390 0.036782
C49   C     C_R   0.402958 0.257264 0.835077 -0.115040
C50   C     C_R   0.312973 0.335464 0.811551 0.042147
C51   C     C_1   0.315637 0.339349 0.764587 -0.032486
C52   C     C_1   0.318568 0.339881 0.724976 -0.037670
C53   C     C_R   0.295397 0.302568 0.899248 0.021523
C54   C     C_1   0.763341 0.376664 0.612406 -0.015261
C55   C     C_R   0.712950 0.407940 0.568555 0.548316
C56   C     C_R   0.847657 0.407211 0.727092 -0.097446
C57   C     C_R   0.863488 0.396540 0.773765 0.007447
C58   C     C_R   0.831323 0.237517 0.760266 0.008583
C59   C     C_1   0.299819 0.321409 0.151295 -0.072651
C60   C     C_R   0.814282 0.251874 0.714101 -0.097828
C61   C     C_R   0.822660 0.335923 0.697618 0.008511
C62   C     C_R   0.855330 0.310545 0.790230 0.044429
C63   C     C_1   0.878030 0.294679 0.837699 -0.077013
C64   C     C_1   0.794904 0.355680 0.650800 -0.061840
C65   C     C_1   0.905563 0.282668 0.876956 -0.029998
C66   C     C_1   0.373433 0.761792 0.612963 -0.018135
C67   C     C_1   0.365225 0.363503 0.380846 -0.008498
C68   C     C_R   0.261360 0.820916 0.717376 -0.119711
C69   C     C_R   0.251060 0.836526 0.763603 -0.116626
C70   C     C_1   0.343488 0.354167 0.341180 -0.055689
C71   C     C_R   0.422310 0.841436 0.775859 -0.094745
C72   C     C_R   0.434123 0.825012 0.729239 0.017426
C73   C     C_R   0.351855 0.815632 0.699903 0.047444
C74   C     C_R   0.331346 0.846605 0.792936 0.026597
C75   C     C_1   0.314608 0.872277 0.840122 -0.061668
C76   C     C_1   0.362317 0.791532 0.652201 -0.062971
C77   C     C_1   0.294209 0.902033 0.878785 -0.017987
C78   C     C_R   0.948471 0.274447 0.047979 0.529482
C79   C     C_R   0.273516 0.441402 0.270178 -0.106676
C80   C     C_R   0.275259 0.270470 0.065378 0.544767
C81   C     C_1   0.290098 0.303830 0.111322 -0.030986
C82   C     C_R   0.260357 0.954506 0.049008 0.539481
C83   C     C_R   0.952026 0.269168 0.922196 0.542471
C84   C     C_R   0.276475 0.266189 0.939542 0.542292
C85   C     C_R   0.261607 0.950775 0.922854 0.544161
C86   C     C_R   0.265598 0.433971 0.223192 -0.113831
C87   C     C_3   0.818887 0.125437 0.157256 -0.226149
C88   C     C_3   0.698344 0.170121 0.164875 -0.291702
C89   C     C_3   0.676557 0.081424 0.178182 -0.456775
C90   C     C_3   0.165353 0.829302 0.178634 -0.254001
C91   C     C_3   0.067367 0.832193 0.148790 -0.311401
C92   C     C_R   0.766426 0.365335 0.400356 0.020229
C93   C     C_3   0.991252 0.816988 0.175915 -0.464865
C94   C     C_3   0.888124 0.475072 0.806934 -0.250678
C95   C     C_3   0.890169 0.569211 0.786720 -0.317783
C96   C     C_3   0.905877 0.647156 0.823401 -0.455211
C97   C     C_3   0.822034 0.144956 0.776730 -0.253542
C98   C     C_3   0.934533 0.047519 0.785466 -0.291344
C99   C     C_3   0.925011 0.955240 0.802943 -0.453629
C100  C     C_3   0.532752 0.820336 0.711544 -0.253871
C101  C     C_3   0.614583 0.703391 0.696178 -0.295112
C102  C     C_3   0.710011 0.700915 0.675701 -0.446280
Cr1   Cr    Cr6+3 0.581000 0.584320 0.508140 1.016741
Cr2   Cr    Cr6+3 0.339110 0.576430 0.496080 1.052680
Cr3   Cr    Cr6+3 0.579910 0.339270 0.495810 1.025305
Cr4   Cr    Cr6+3 0.082090 0.079210 0.982490 1.037108
Cr5   Cr    Cr6+3 0.082460 0.324610 0.994920 0.996680
Cr6   Cr    Cr6+3 0.323630 0.087860 0.996130 1.018600
H1    H     H_    0.241190 0.520868 0.288492 0.115576
H2    H     H_    0.130915 0.435720 0.891231 0.124868
H3    H     H_    0.147528 0.463500 0.814390 0.109527
H4    H     H_    0.197537 0.506032 0.675666 0.116433
H5    H     H_    0.230187 0.525833 0.600423 0.142944
H6    H     H_    0.490260 0.194532 0.593575 0.156482
H7    H     H_    0.477672 0.205114 0.818789 0.107755
H8    H     H_    0.462975 0.175674 0.895615 0.129009
H9    H     H_    0.853227 0.471362 0.713142 0.106383
H10   H     H_    0.393682 0.157272 0.204234 0.106467
H11   H     H_    0.793672 0.197820 0.690896 0.119413
H12   H     H_    0.812204 0.165865 0.315539 0.105546
H13   H     H_    0.198735 0.812309 0.695160 0.110872
H14   H     H_    0.179867 0.841755 0.776457 0.107941
H15   H     H_    0.483438 0.850893 0.798827 0.102306
H16   H     H_    0.409304 0.170545 0.286909 0.110441
H17   H     H_    0.844429 0.446821 0.189475 0.118259
H18   H     H_    0.831090 0.463473 0.317389 0.108328
H19   H     H_    0.780568 0.510713 0.395267 0.127966
H20   H     H_    0.762647 0.211202 0.393544 0.131499
H21   H     H_    0.698847 0.013899 0.151287 0.151630
H22   H     H_    0.724299 0.048950 0.210011 0.146584
H23   H     H_    0.158976 0.873016 0.089905 0.137660
H24   H     H_    0.588811 0.115944 0.183264 0.150364
H25   H     H_    0.672984 0.237384 0.191927 0.171241
H26   H     H_    0.648113 0.202768 0.133472 0.181077
H27   H     H_    0.841810 0.057249 0.130714 0.193931
H28   H     H_    0.870266 0.090355 0.188119 0.127874
H29   H     H_    0.826006 0.174321 0.038216 0.326815
H30   H     H_    0.033577 0.735460 0.189401 0.150835
H31   H     H_    0.962692 0.880800 0.204232 0.146978
H32   H     H_    0.919123 0.823973 0.153950 0.139666
H33   H     H_    0.020862 0.912068 0.134121 0.173117
H34   H     H_    0.183374 0.867889 0.311948 0.088213
H35   H     H_    0.095789 0.766359 0.121172 0.160506
H36   H     H_    0.211930 0.748100 0.192390 0.145644
H37   H     H_    0.133677 0.891525 0.207374 0.149118
H38   H     H_    0.112320 0.846596 0.371286 0.312100
H39   H     H_    0.444641 0.148451 0.700117 0.325457
H40   H     H_    0.835762 0.686374 0.844857 0.154240
H41   H     H_    0.981585 0.603236 0.844818 0.148340
H42   H     H_    0.911375 0.711672 0.807724 0.140884
H43   H     H_    0.957634 0.536327 0.764001 0.158358
H44   H     H_    0.811908 0.616403 0.767393 0.161117
H45   H     H_    0.533431 0.740606 0.404075 0.137644
H46   H     H_    0.825364 0.510781 0.831974 0.153641
H47   H     H_    0.968423 0.427611 0.825125 0.153755
H48   H     H_    0.884043 0.983325 0.834960 0.158507
H49   H     H_    0.877891 0.926334 0.777806 0.147701
H50   H     H_    0.007290 0.886089 0.809294 0.140924
H51   H     H_    0.976766 0.017196 0.753719 0.162328
H52   H     H_    0.984857 0.072283 0.810648 0.180873
H53   H     H_    0.777226 0.173624 0.807813 0.148300
H54   H     H_    0.773523 0.118072 0.751355 0.144535
H55   H     H_    0.680493 0.751356 0.646447 0.171692
H56   H     H_    0.473887 0.878789 0.182021 0.106052
H57   H     H_    0.754665 0.732277 0.701050 0.143566
H58   H     H_    0.766681 0.616121 0.663838 0.146864
H59   H     H_    0.645194 0.652642 0.725345 0.159107
H60   H     H_    0.575477 0.666601 0.670600 0.182816
H61   H     H_    0.505983 0.873479 0.683222 0.167799
H62   H     H_    0.574193 0.853096 0.738032 0.133560
H63   H     H_    0.998368 0.558697 0.071508 0.165403
H64   H     H_    0.934353 0.649124 0.119718 0.139712
H65   H     H_    0.079808 0.562421 0.122293 0.139656
H66   H     H_    0.995703 0.484968 0.163613 0.146457
H67   H     H_    0.441909 0.920189 0.103526 0.130130
H68   H     H_    0.051821 0.398162 0.114263 0.204735
H69   H     H_    0.850689 0.505351 0.075079 0.172078
H70   H     H_    0.811576 0.559933 0.129414 0.119462
H71   H     H_    0.225417 0.507556 0.205531 0.099865
H72   H     H_    0.518826 0.794775 0.328831 0.118680
O1    O     O_R   0.688580 0.499770 0.460490 -0.518417
O2    O     O_R   0.346150 0.177650 0.050510 -0.506512
O3    O     O_R   0.314200 0.996600 0.036060 -0.502915
O4    O     O_R   0.480400 0.672610 0.462660 -0.522854
O5    O     O_R   0.168690 0.969990 0.933130 -0.508830
O6    O     O_R   0.991920 0.175870 0.937430 -0.496017
O7    O     O_R   0.974010 0.342590 0.941330 -0.515752
O8    O     O_R   0.182630 0.317940 0.955040 -0.503122
O9    O     O_R   0.347320 0.174720 0.953250 -0.515470
O10   O     O_R   0.315290 0.993890 0.945900 -0.494531
O11   O     O_3   0.162730 0.163890 0.991180 -0.240524
O12   O     O_R   0.348600 0.476260 0.536540 -0.500893
O13   O     O_R   0.315310 0.685650 0.451800 -0.440103
O14   O     O_R   0.346220 0.474990 0.446280 -0.490101
O15   O     O_R   0.492270 0.312460 0.441630 -0.511003
O16   O     O_R   0.669740 0.350480 0.455640 -0.501492
O17   O     O_R   0.691150 0.501150 0.557860 -0.509386
O18   O     O_R   0.482790 0.673890 0.552920 -0.495843
O19   O     O_R   0.317880 0.687030 0.549170 -0.507988
O20   O     O_3   0.851212 0.141045 0.067393 -0.716218
O21   O     O_3   0.175642 0.816244 0.393517 -0.679697
O22   O     O_3   0.471687 0.150134 0.671486 -0.719280
O23   O     O_R   0.494840 0.313840 0.539010 -0.516876
O24   O     O_R   0.672120 0.351750 0.545910 -0.490368
O25   O     O_3   0.500010 0.500010 0.500010 -0.250992
O26   O     O_R   0.167510 0.972920 0.030390 -0.505796
O27   O     O_R   0.990840 0.178580 0.027590 -0.470643
O28   O     O_R   0.972840 0.345510 0.038590 -0.528757
O29   O     O_R   0.181550 0.320660 0.045200 -0.504453

loop_
_geom_bond_atom_site_label_1
_geom_bond_atom_site_label_2
_ccdc_geom_bond_type
C58   C62   A    
Cr3   O16   S    
C87   C88   S    
C63   C65   T    
C1    C21   S    
C101  C102  S    
C56   C61   A    
C13   O20   S    
C101  H60   S    
C41   C42   A    
C95   C96   S    
C83   O7    A    
C19   O1    A    
C31   O19   A    
C97   C98   S    
C57   C62   A    
C47   C49   A    
C2    C6    A    
C45   C46   A    
C37   C79   A    
C29   C36   A    
C89   H24   S    
C26   H16   S    
C53   C84   S    
C45   C50   A    
C71   H15   S    
C28   C29   A    
C11   H17   S    
C3    H70   S    
C88   H25   S    
C90   H37   S    
C38   C39   A    
C98   C99   S    
C65   C83   S    
C96   H41   S    
C58   C60   A    
Cr2   O12   S    
Cr5   O7    S    
C89   H21   S    
C56   C57   A    
C60   H11   S    
C17   C18   T    
C34   C35   T    
Cr1   O17   S    
C101  H59   S    
C42   H4    S    
C78   O27   A    
C100  C101  S    
C19   C92   S    
C13   C14   A    
C68   C69   A    
Cr6   O2    S    
Cr5   O8    S    
C25   H34   S    
C36   C82   S    
C102  H55   S    
Cr2   O13   S    
C83   O6    A    
C3    C12   S    
C80   O2    A    
C9    C10   A    
C41   C52   S    
Cr6   O3    S    
C94   H46   S    
C47   C53   A    
C21   C27   A    
C10   C92   A    
C19   O16   A    
C102  H58   S    
C4    H66   S    
C21   C22   A    
Cr6   O10   S    
Cr4   O26   S    
C56   H9    S    
C58   C97   S    
C42   C44   A    
C15   C48   A    
Cr4   O27   S    
C6    H12   S    
C1    O4    A    
C50   C51   S    
C91   H35   S    
C85   O5    A    
C47   H8    S    
C96   H40   S    
C24   C35   S    
C74   C75   S    
C93   H30   S    
C100  H62   S    
Cr1   O4    S    
C87   H27   S    
C84   O9    A    
C24   C25   A    
Cr4   O6    S    
C72   C73   A    
C39   C40   A    
C79   H1    S    
C16   C17   S    
Cr3   O24   S    
C6    C8    A    
C85   O10   A    
C7    C67   S    
C82   O3    A    
C8    C18   S    
C89   H22   S    
C51   C52   T    
C60   C61   A    
Cr1   O18   S    
C61   C64   S    
C1    O13   A    
C38   C44   A    
C62   C63   S    
C93   H31   S    
C8    C9    A    
C91   C93   S    
C11   C16   A    
H29   O20   S    
C23   C24   A    
C39   H6    S    
C96   H42   S    
C99   H48   S    
C12   C20   A    
C33   C34   S    
C94   H47   S    
C29   H23   S    
C69   C74   A    
Cr6   O11   S    
Cr2   O25   S    
C98   H51   S    
C7    O14   A    
C2    C92   A    
C75   C77   T    
Cr5   O28   S    
C40   C41   A    
C49   H7    S    
C40   O22   S    
C28   C33   A    
C49   C50   A    
C102  H57   S    
C97   H53   S    
C57   C94   S    
C99   H49   S    
C43   O23   A    
C25   C27   A    
Cr2   O19   S    
C48   C86   A    
Cr6   O9    S    
C84   O8    A    
C95   H43   S    
C7    O15   A    
C3    C4    S    
C30   H67   S    
C82   O26   A    
C5    H63   S    
C48   C59   S    
C72   C100  S    
Cr3   O15   S    
C54   C55   S    
C13   C20   A    
C100  H61   S    
C27   O21   S    
C31   C66   S    
C5    H65   S    
C87   H28   S    
H39   O22   S    
C14   C87   S    
C59   C81   T    
Cr4   O5    S    
C98   H52   S    
C80   C81   S    
C15   C26   A    
C68   H13   S    
C44   H5    S    
C71   C74   A    
C11   C12   A    
C45   H3    S    
C26   C37   A    
Cr3   O25   S    
Cr5   O29   S    
C30   C36   A    
H38   O21   S    
C23   H72   S    
C9    H18   S    
C15   H10   S    
C20   C78   S    
C67   C70   T    
C32   C33   A    
C46   H2    S    
C68   C73   A    
C88   H26   S    
C38   C43   S    
C93   H32   S    
C30   C32   A    
C90   C91   S    
C55   O17   A    
C54   C64   T    
C69   H14   S    
C55   O24   A    
C32   H56   S    
C46   C53   A    
C86   H71   S    
C73   C76   S    
C5    H64   S    
C14   C16   A    
C79   C86   A    
C3    H69   S    
C94   C95   S    
C78   O28   A    
Cr1   O25   S    
C77   C85   S    
C4    C5    S    
Cr3   O23   S    
C71   C72   A    
C88   C89   S    
Cr4   O11   S    
C97   H54   S    
C4    H68   S    
C99   H50   S    
Cr5   O11   S    
Cr2   O14   S    
C22   C23   A    
C43   O12   A    
C28   C90   S    
C95   H44   S    
C37   C70   S    
C22   H45   S    
C31   O18   A    
C90   H36   S    
C66   C76   T    
C10   H19   S    
C80   O29   A    
C91   H33   S    
Cr1   O1    S    
C2    H20   S    
