data_mof_unit_48170.cif
_audit_creation_date              2012-12-10T17:02:16-0500
_audit_creation_method            fapswitch 2.2
_symmetry_space_group_name_H-M    P1
_symmetry_Int_Tables_number       1
_space_group_crystal_system       triclinic
_cell_length_a                    10.623411
_cell_length_b                    10.7157
_cell_length_c                    10.086456
_cell_angle_alpha                 90.605909
_cell_angle_beta                  90.332103
_cell_angle_gamma                 90.465864
_cell_volume                      1148.09274646

loop_
_atom_site_label
_atom_site_type_symbol
_atom_type_description
_atom_site_fract_x
_atom_site_fract_y
_atom_site_fract_z
_atom_type_partial_charge
C1    C     C_R   0.494541 0.262926 0.499375 0.896479
C2    C     C_R   0.066462 0.612258 0.438692 0.096153
C3    C     C_R   0.128424 0.511849 0.499687 -0.083485
C4    C     C_R   0.063941 0.417284 0.564648 -0.197234
C5    C     C_R   0.935370 0.417717 0.565561 -0.183912
C6    C     C_R   0.871650 0.512623 0.501356 -0.079833
C7    C     C_2   0.474826 0.931497 0.392865 -0.346818
C8    C     C_2   0.517864 0.869078 0.497934 0.516414
C9    C     C_2   0.485393 0.065258 0.387548 -0.131157
C10   C     C_2   0.474732 0.131759 0.498953 -0.238777
C11   C     C_2   0.536317 0.593465 0.931018 0.438979
C12   C     C_R   0.260756 0.503462 0.499747 0.843940
C13   C     C_2   0.505341 0.598693 0.075459 -0.182968
C14   C     C_R   0.502996 0.737283 0.500152 0.796940
C15   C     C_R   0.739259 0.503665 0.500342 0.877775
C16   C     C_R   0.132151 0.713132 0.380700 -0.174510
C17   C     C_R   0.066840 0.811352 0.323219 -0.141521
C18   C     C_R   0.935839 0.811615 0.323864 -0.085859
C19   C     C_R   0.869693 0.713745 0.382140 -0.106757
C20   C     C_R   0.934483 0.612625 0.439515 0.083880
H1    H     H_    0.113494 0.341714 0.612390 0.154180
H2    H     H_    0.449071 0.089438 0.592509 0.209064
H3    H     H_    0.447087 0.432703 0.894702 0.123777
H4    H     H_    0.500043 0.689311 0.123976 0.207106
H5    H     H_    0.518491 0.417237 0.101325 0.162022
H6    H     H_    0.233805 0.718150 0.380782 0.139141
H7    H     H_    0.118084 0.888044 0.279203 0.144594
H8    H     H_    0.885289 0.888472 0.280270 0.154287
H9    H     H_    0.768154 0.719245 0.383395 0.153555
H10   H     H_    0.885175 0.342338 0.613704 0.161762
H11   H     H_    0.430920 0.883911 0.308611 0.149318
H12   H     H_    0.500686 0.108348 0.291888 0.181726
N1    N     N_2   0.501340 0.501330 0.852150 -0.248800
N2    N     N_2   0.501380 0.501360 0.147810 -0.212340
O1    O     O_R   0.499980 0.319060 0.613040 -0.614994
O2    O     O_R   0.500020 0.319100 0.386900 -0.616263
O3    O     O_R   0.316750 0.499980 0.613090 -0.617300
O4    O     O_R   0.316790 0.500020 0.386950 -0.609942
O5    O     O_R   0.499980 0.680900 0.613100 -0.509382
O6    O     O_R   0.500020 0.680940 0.386960 -0.675023
O7    O     O_R   0.683210 0.499980 0.613050 -0.560242
O8    O     O_R   0.683250 0.500020 0.386910 -0.611091
Zn1   Zn    Zn3+2 0.499970 0.499970 0.650990 1.034500
Zn2   Zn    Zn3+2 0.500030 0.500030 0.349010 0.953698
S1    S     S_3+6 0.621361 0.725929 0.877365 0.071624
O9    O     O_2   0.708590 0.696233 0.765242 -0.243546
O10   O     O_2   0.529279 0.824281 0.836742 -0.261755
O11   O     O_3   0.707638 0.782169 0.005417 -0.587494
H13   H     H_    0.745016 0.861106 0.973061 0.385393
F1    F     F_    0.587473 0.924489 0.596213 -0.615305

loop_
_geom_bond_atom_site_label_1
_geom_bond_atom_site_label_2
_ccdc_geom_bond_type
O3    Zn1   S    
O5    Zn1   S    
O4    Zn2   S    
C11   N1    D    
C2    C16   A    
C6    C20   A    
C9    C10   D    
C15   O8    A    
C19   C20   A    
O6    Zn2   S    
H5    N2    S    
O1    Zn1   S    
C17   C18   A    
C14   O5    A    
N2    Zn2   S    
C7    C8    D    
C19   H9    S    
S1    O9    D    
C10   H2    S    
C12   O4    A    
C4    H1    S    
O7    Zn1   S    
C15   O7    A    
O8    Zn2   S    
O11   H13   S    
C7    H11   S    
C2    C3    A    
S1    O10   D    
C16   H6    S    
C5    C6    A    
C11   S1    S    
C11   C13   S    
O2    Zn2   S    
C2    C20   A    
C3    C4    A    
C17   H7    S    
C8    F1    S    
C13   N2    D    
C18   H8    S    
C1    O1    A    
C18   C19   A    
C5    H10   S    
S1    O11   S    
C12   O3    A    
C7    C9    S    
C4    C5    A    
C8    C14   S    
C3    C12   S    
C9    H12   S    
C6    C15   S    
C1    O2    A    
C14   O6    A    
C1    C10   S    
C13   H4    S    
C16   C17   A    
H3    N1    S    
N1    Zn1   S    
