data_mof_unit_63591.cif
_audit_creation_date              2013-03-05T16:23:42-0500
_audit_creation_method            fapswitch 2.2
_symmetry_space_group_name_H-M    P1
_symmetry_Int_Tables_number       1
_space_group_crystal_system       triclinic
_cell_length_a                    13.918768
_cell_length_b                    15.101663
_cell_length_c                    17.276607
_cell_angle_alpha                 91.297682
_cell_angle_beta                  87.018599
_cell_angle_gamma                 91.153475
_cell_volume                      3624.98431057

loop_
_atom_site_label
_atom_site_type_symbol
_atom_site_description
_atom_site_fract_x
_atom_site_fract_y
_atom_site_fract_z
_atom_type_partial_charge
O1    O     O_R   0.418570 0.628550 0.499990 -0.584866
O2    O     O_R   0.581430 0.371450 0.500010 -0.573919
O3    O     O_R   0.581440 0.628540 0.499990 -0.545487
O4    O     O_R   0.418560 0.371460 0.500010 -0.551508
C1    C     C_R   0.500612 0.669802 0.500116 0.956575
C2    C     C_R   0.499111 0.330007 0.499823 0.918037
O5    O     O_R   0.409120 0.500020 0.613600 -0.524650
O6    O     O_R   0.590880 0.499980 0.386400 -0.552909
O7    O     O_R   0.571990 0.500010 0.613600 -0.599501
O8    O     O_R   0.428010 0.499990 0.386400 -0.589803
C3    C     C_R   0.488045 0.499317 0.650263 0.895142
C4    C     C_R   0.511881 0.498747 0.349751 0.910877
Cu1   Cu    Cu3+1 0.403570 0.500010 0.500000 1.089037
Cu2   Cu    Cu3+1 0.596430 0.499990 0.500000 1.071640
C5    C     C_R   0.484293 0.500827 0.735547 -0.109384
C6    C     C_R   0.515882 0.488920 0.264786 -0.110276
C7    C     C_R   0.570199 0.486122 0.772296 -0.167392
C8    C     C_R   0.431155 0.461076 0.229554 -0.158562
C9    C     C_R   0.573553 0.494074 0.852082 -0.092488
C10   C     C_R   0.431484 0.443767 0.150513 -0.083155
C11   C     C_R   0.490627 0.515014 0.896923 0.059561
C12   C     C_R   0.516294 0.454535 0.105193 0.059350
C13   C     C_R   0.404465 0.529824 0.861772 -0.137660
C14   C     C_R   0.601507 0.481535 0.138721 -0.141642
C15   C     C_R   0.399834 0.521722 0.781297 0.360738
C16   C     C_R   0.602334 0.500092 0.218378 0.350731
C17   C     C_2   0.493798 0.519889 0.981056 0.073093
C18   C     C_2   0.512903 0.447620 0.021409 0.065400
H1    H     H_    0.635685 0.468791 0.739353 0.185882
H2    H     H_    0.363989 0.452035 0.263082 0.198510
H3    H     H_    0.340162 0.545435 0.897134 0.189964
H4    H     H_    0.666271 0.491955 0.102205 0.189090
H5    H     H_    0.365088 0.424048 0.124282 0.181255
H6    H     H_    0.640718 0.483121 0.879107 0.172655
C19   C     C_R   0.517929 0.909141 0.562736 -0.163611
C20   C     C_R   0.557259 0.093157 0.448445 -0.168942
H7    H     H_    0.533547 0.948969 0.613703 0.213244
H8    H     H_    0.606361 0.056085 0.409890 0.214761
C21   C     C_R   0.520376 0.817065 0.565776 0.298364
C22   C     C_R   0.560158 0.185365 0.447867 0.298158
C23   C     C_R   0.500841 0.766257 0.498562 -0.293373
C24   C     C_R   0.496570 0.233137 0.498939 -0.299705
C25   C     C_R   0.474497 0.807897 0.430576 0.204440
C26   C     C_R   0.429213 0.187718 0.548641 0.195636
C27   C     C_R   0.469832 0.900748 0.429147 0.297015
C28   C     C_R   0.425357 0.094604 0.546848 0.285749
C29   C     C_R   0.492026 0.950880 0.495805 -0.061633
C30   C     C_R   0.490277 0.047872 0.496606 -0.056563
C31   C     C_R   0.893580 0.467542 0.430786 0.243833
C32   C     C_R   0.110033 0.580041 0.524969 0.239870
C33   C     C_R   0.791685 0.461179 0.438773 0.052732
C34   C     C_R   0.210617 0.571338 0.531303 0.057722
H9    H     H_    0.752483 0.429422 0.393076 0.214558
H10   H     H_    0.251190 0.624850 0.557446 0.197675
N1    N     N_R   0.741310 0.499980 0.500000 -0.241604
N2    N     N_R   0.258690 0.500020 0.500000 -0.232760
C35   C     C_R   0.791593 0.543493 0.556454 0.326404
C36   C     C_R   0.206866 0.433576 0.464083 0.356094
C37   C     C_R   0.892081 0.541449 0.555651 -0.239737
C38   C     C_R   0.106262 0.434439 0.465612 -0.228119
H11   H     H_    0.928064 0.570742 0.604285 0.203245
H12   H     H_    0.068231 0.377642 0.442017 0.202250
C39   C     C_R   0.946045 0.506683 0.491964 0.021268
C40   C     C_R   0.055230 0.508449 0.493273 0.019033
N3    N     N_R   0.940742 0.439195 0.358769 0.135010
O9    O     O_R   0.009851 0.487372 0.326842 -0.273553
O10   O     O_R   0.905827 0.372565 0.319456 -0.255391
N4    N     N_R   0.067152 0.663499 0.546186 0.125477
O11   O     O_R   0.004424 0.697224 0.502553 -0.266993
O12   O     O_R   0.100878 0.712010 0.602166 -0.262263
I1    I     I_    0.730298 0.629596 0.642934 -0.112001
I2    I     I_    0.266982 0.330398 0.392620 -0.138419
N5    N     N_R   0.689893 0.533326 0.249702 0.128765
O13   O     O_R   0.690119 0.607506 0.289495 -0.263979
O14   O     O_R   0.771768 0.499628 0.225797 -0.268161
N6    N     N_R   0.309277 0.534672 0.747856 0.130231
O15   O     O_R   0.263889 0.467217 0.717667 -0.275305
O16   O     O_R   0.262822 0.607344 0.763466 -0.274984
I3    I     I_    0.528062 0.318353 0.971076 -0.155039
I4    I     I_    0.466731 0.646040 0.034980 -0.107261
N7    N     N_R   0.537439 0.776791 0.638412 0.151690
O17   O     O_R   0.588720 0.818728 0.688964 -0.273076
O18   O     O_R   0.489265 0.706009 0.659782 -0.359064
N8    N     N_R   0.625167 0.229077 0.392966 0.148682
O19   O     O_R   0.709827 0.196738 0.376033 -0.278819
O20   O     O_R   0.594870 0.292280 0.351018 -0.357702
N9    N     N_R   0.448783 0.755753 0.364030 0.154657
O21   O     O_R   0.365654 0.765454 0.334463 -0.239254
O22   O     O_R   0.509900 0.700999 0.331003 -0.322036
N10   N     N_R   0.364665 0.235927 0.600864 0.175357
O23   O     O_R   0.398367 0.291426 0.651877 -0.328387
O24   O     O_R   0.272160 0.222609 0.598990 -0.236737
N11   N     N_R   0.443176 0.943748 0.360205 0.161291
O25   O     O_R   0.378438 0.004893 0.364203 -0.261906
O26   O     O_R   0.483653 0.921948 0.293070 -0.232007
N12   N     N_R   0.356907 0.047747 0.596802 0.160306
O27   O     O_R   0.303514 0.984102 0.569048 -0.252380
O28   O     O_R   0.348791 0.067587 0.670506 -0.237086

loop_
_geom_bond_atom_site_label_1
_geom_bond_atom_site_label_2
_geom_bond_distance
_ccdc_geom_bond_type
N9    O21   1.301102 A    
N11   O25   1.301326 A    
C31   C39   1.426330 A    
C32   C40   1.426204 A    
N5    O13   1.301068 A    
C22   N8    1.438483 S    
C27   N11   1.438310 S    
N7    O17   1.301896 A    
C21   C23   1.412521 A    
O5    C3    1.296635 A    
C31   N3    1.436830 S    
O1    C1    1.289828 A    
N6    O16   1.300878 A    
C9    C11   1.393916 A    
N8    O20   1.301300 A    
C5    C15   1.418886 A    
C36   C38   1.399480 A    
C16   N5    1.435869 S    
C7    H1    1.082646 S    
C38   H12   1.081847 S    
O4    Cu1   1.956675 S    
C18   I3    2.128892 S    
C3    C5    1.471313 S    
C4    C6    1.470328 S    
C26   C28   1.405811 A    
N4    O11   1.301425 A    
N3    O10   1.301397 A    
N12   O28   1.301195 A    
C32   C34   1.418899 A    
C8    H2    1.081790 S    
C33   N1    1.365735 A    
Cu1   N2    2.016554 S    
C22   C24   1.413507 A    
Cu2   N1    2.016554 S    
C11   C17   1.456650 S    
C19   C29   1.396420 A    
N11   O26   1.301262 A    
C12   C18   1.452042 S    
Cu1   Cu2   2.684380 S    
C23   C25   1.413155 A    
O2    C2    1.294587 A    
C24   C26   1.415551 A    
N7    O18   1.300678 A    
C34   H10   1.080552 S    
C27   C29   1.408169 A    
C6    C16   1.420150 A    
C28   C30   1.408661 A    
C37   H11   1.081911 S    
C20   C22   1.392510 A    
N6    O15   1.301208 A    
C21   N7    1.439618 S    
O4    C2    1.294876 A    
C17   I4    2.133364 S    
C31   C33   1.419307 A    
C9    H6    1.083720 S    
C35   I1    2.115418 S    
C33   H9    1.080806 S    
C13   H3    1.083964 S    
C19   C21   1.393837 A    
O7    Cu2   1.974368 S    
C14   H4    1.083970 S    
O7    C3    1.299741 A    
N10   O24   1.301133 A    
C29   C30   1.465176 S    
O6    C4    1.296666 A    
N12   O27   1.301326 A    
N1    C35   1.377089 A    
N8    O19   1.301330 A    
C25   C27   1.405848 A    
O3    Cu2   1.956673 S    
O8    C4    1.299035 A    
C10   H5    1.083741 S    
N4    O12   1.301423 A    
C10   C12   1.391000 A    
C11   C13   1.396335 A    
C12   C14   1.396355 A    
O1    Cu1   1.948183 S    
N5    O14   1.301187 A    
C26   N10   1.436490 S    
C5    C7    1.406476 A    
C1    C23   1.457430 S    
O6    Cu2   1.968151 S    
C19   H7    1.083986 S    
C14   C16   1.398814 A    
O3    C1    1.296869 A    
O8    Cu1   1.974371 S    
C37   C39   1.397918 A    
C38   C40   1.398067 A    
C15   N6    1.432318 S    
C25   N9    1.435424 S    
N9    O22   1.299770 A    
C36   I2    2.123726 S    
N10   O23   1.301137 A    
C20   H8    1.084144 S    
C7    C9    1.384052 A    
N2    C36   1.378917 A    
C20   C30   1.395930 A    
C8    C10   1.384313 A    
C13   C15   1.397668 A    
O2    Cu2   1.948183 S    
C35   C37   1.398976 A    
C39   C40   1.520756 S    
O5    Cu1   1.968148 S    
C28   N12   1.438140 S    
C6    C8    1.407530 A    
N3    O9    1.301403 A    
C2    C24   1.462358 S    
C17   C18   1.346592 D    
C32   N4    1.437246 S    
C34   N2    1.365700 A    
