data_mof_unit_41188.cif
_audit_creation_date              2012-12-10T20:34:50-0500
_audit_creation_method            fapswitch 2.2
_symmetry_space_group_name_H-M    P1
_symmetry_Int_Tables_number       1
_space_group_crystal_system       triclinic
_cell_length_a                    10.635373
_cell_length_b                    10.660171
_cell_length_c                    9.914531
_cell_angle_alpha                 90.452402
_cell_angle_beta                  89.495219
_cell_angle_gamma                 88.864421
_cell_volume                      1123.75791261

loop_
_atom_site_label
_atom_site_type_symbol
_atom_type_description
_atom_site_fract_x
_atom_site_fract_y
_atom_site_fract_z
_atom_type_partial_charge
C1    C     C_R   0.503587 0.260342 0.499441 0.877529
C2    C     C_3   0.878459 0.502016 0.499004 0.153200
C3    C     C_3   0.929574 0.511141 0.352476 -0.408926
C4    C     C_3   0.930157 0.379784 0.563452 -0.421462
C5    C     C_R   0.477893 0.063801 0.382694 0.135364
C6    C     C_R   0.518047 0.128456 0.496013 -0.104664
C7    C     C_R   0.576533 0.064434 0.602105 -0.230428
C8    C     C_R   0.576282 0.934396 0.602136 -0.235355
C9    C     C_R   0.515092 0.871437 0.497844 -0.095756
C10   C     C_R   0.475314 0.936130 0.384306 0.145917
C11   C     C_3   0.351719 0.932964 0.314106 -0.509958
C12   C     C_R   0.257835 0.501118 0.500225 0.839831
C13   C     C_3   0.355415 0.074865 0.310639 -0.483073
C14   C     C_R   0.564625 0.410436 0.069328 0.211058
C15   C     C_R   0.424107 0.581017 0.075134 -0.148365
C16   C     C_R   0.423792 0.582754 0.931713 0.184114
C17   C     C_R   0.564278 0.410103 0.927232 0.187600
C18   C     C_3   0.702635 0.386132 0.919524 -0.512030
C19   C     C_3   0.703228 0.387539 0.072607 -0.512894
C20   C     C_R   0.502289 0.739744 0.500173 0.867816
C21   C     C_R   0.742126 0.500349 0.499462 0.834837
C22   C     C_3   0.067651 0.616953 0.586433 0.045621
C23   C     C_3   0.922635 0.617131 0.581139 -0.392489
C24   C     C_3   0.072158 0.511987 0.352778 -0.380297
C25   C     C_3   0.074485 0.380098 0.562305 -0.469094
C26   C     C_3   0.121164 0.504066 0.500105 0.180989
H1    H     H_    0.896876 0.296484 0.506567 0.165684
H2    H     H_    0.108338 0.430202 0.292272 0.175668
H3    H     H_    0.898789 0.429131 0.291880 0.177448
H4    H     H_    0.617128 0.114306 0.686298 0.160465
H5    H     H_    0.619161 0.884033 0.684712 0.158554
H6    H     H_    0.359627 0.888255 0.213202 0.198385
H7    H     H_    0.274946 0.897529 0.378947 0.204270
H8    H     H_    0.367008 0.112623 0.207157 0.205758
H9    H     H_    0.280223 0.121649 0.372733 0.191042
H10   H     H_    0.366271 0.647384 0.132490 0.152240
H11   H     H_    0.095639 0.602224 0.693301 0.150214
H12   H     H_    0.726246 0.292445 0.875099 0.191417
H13   H     H_    0.754267 0.465526 0.874603 0.213030
H14   H     H_    0.728340 0.295027 0.116927 0.196721
H15   H     H_    0.753954 0.468726 0.115021 0.210616
H16   H     H_    0.884704 0.614480 0.686108 0.151484
H17   H     H_    0.884321 0.704578 0.534724 0.170528
H18   H     H_    0.105662 0.597907 0.301934 0.175806
H19   H     H_    0.893087 0.598078 0.303541 0.174100
H20   H     H_    0.111432 0.298072 0.502846 0.167736
H21   H     H_    0.109162 0.369559 0.667336 0.178681
H22   H     H_    0.895582 0.371767 0.669270 0.177650
N1    N     N_R   0.499150 0.499140 0.142800 -0.124641
N2    N     N_R   0.499150 0.499180 0.857150 -0.130076
O1    O     O_R   0.500020 0.316790 0.614690 -0.615417
O2    O     O_R   0.500000 0.316760 0.385350 -0.613228
O3    O     O_R   0.314800 0.500000 0.614670 -0.654130
O4    O     O_R   0.314790 0.499960 0.385330 -0.626167
O5    O     O_R   0.500000 0.683240 0.614650 -0.623896
O6    O     O_R   0.499980 0.683210 0.385310 -0.613170
O7    O     O_R   0.685210 0.500040 0.614670 -0.629017
O8    O     O_R   0.685200 0.500000 0.385330 -0.625783
Zn1   Zn    Zn3+2 0.500010 0.500020 0.653130 0.922203
Zn2   Zn    Zn3+2 0.499990 0.499980 0.346870 0.932055
C27   C     C_3   0.118481 0.745587 0.545476 -0.991775
H23   H     H_    0.089654 0.770585 0.441689 0.251778
H24   H     H_    0.080928 0.819221 0.615668 0.251743
H25   H     H_    0.222494 0.746189 0.551782 0.235831
C28   C     C_3   0.340708 0.681399 0.867566 -0.383671
C29   C     C_3   0.394087 0.812202 0.885609 -0.864600
H26   H     H_    0.382835 0.844119 0.991467 0.236598
H27   H     H_    0.495519 0.811682 0.859004 0.269109
H28   H     H_    0.343263 0.879717 0.819811 0.254433
H29   H     H_    0.327500 0.664607 0.760207 0.269695
H30   H     H_    0.245110 0.679195 0.913688 0.165545

loop_
_geom_bond_atom_site_label_1
_geom_bond_atom_site_label_2
_ccdc_geom_bond_type
C17   N2    A    
C13   H8    S    
C27   H25   S    
C2    C4    S    
C18   H13   S    
C21   O7    A    
C6    C7    A    
O5    Zn1   S    
C11   C13   S    
C9    C10   A    
C25   H21   S    
C9    C20   S    
C29   H27   S    
C12   O3    A    
C17   C18   S    
C20   O6    A    
C2    C21   S    
C19   H15   S    
C29   H26   S    
C18   H12   S    
N1    Zn2   S    
C21   O8    A    
C7    H4    S    
O4    Zn2   S    
C22   C27   S    
C1    O1    A    
C14   C17   A    
C3    H3    S    
C3    C24   S    
C5    C6    A    
C23   H16   S    
O2    Zn2   S    
C20   O5    A    
N2    Zn1   S    
C14   C19   S    
C5    C10   A    
C25   C26   S    
C16   N2    A    
C11   H6    S    
C4    C25   S    
C2    C3    S    
C15   N1    A    
O3    Zn1   S    
C27   H23   S    
C24   H18   S    
C1    O2    A    
O7    Zn1   S    
C29   H28   S    
O1    Zn1   S    
C19   H14   S    
O8    Zn2   S    
C15   C16   A    
C14   N1    A    
C24   H2    S    
C15   H10   S    
C11   H7    S    
C4    H1    S    
C23   H17   S    
C4    H22   S    
C28   C29   S    
C10   C11   S    
C12   C26   S    
C2    C23   S    
C27   H24   S    
C7    C8    A    
C22   C23   S    
C18   C19   S    
C22   C26   S    
C16   C28   S    
C1    C6    S    
C28   H29   S    
C28   H30   S    
C22   H11   S    
C5    C13   S    
C25   H20   S    
C3    H19   S    
C13   H9    S    
C12   O4    A    
C8    H5    S    
O6    Zn2   S    
C24   C26   S    
C8    C9    A    
