data_mof_unit_66784.cif
_audit_creation_date              2013-03-05T15:41:05-0500
_audit_creation_method            fapswitch 2.2
_symmetry_space_group_name_H-M    P1
_symmetry_Int_Tables_number       1
_space_group_crystal_system       triclinic
_cell_length_a                    8.403691
_cell_length_b                    14.865946
_cell_length_c                    15.102904
_cell_angle_alpha                 94.096613
_cell_angle_beta                  98.449884
_cell_angle_gamma                 92.35924
_cell_volume                      1858.98419155

loop_
_atom_site_label
_atom_site_type_symbol
_atom_site_description
_atom_site_fract_x
_atom_site_fract_y
_atom_site_fract_z
_atom_type_partial_charge
P1    P     P_3+3 0.947560 0.714050 0.560480 0.485225
O1    O     O_2   0.113690 0.728200 0.532750 -0.357821
O2    O     O_3   0.871900 0.612110 0.540440 -0.400309
O3    O     O_3   0.325660 0.668890 0.372600 -0.373790
O4    O     O_2   0.232811 0.825955 0.427603 -0.333337
O5    O     O_3   0.965343 0.747309 0.676581 -0.554868
O6    O     O_3   0.279867 0.814961 0.262479 -0.517288
H1    H     H_    0.369141 0.703878 0.200450 0.080991
C1    C     C_3   0.315692 0.805887 0.104743 -0.302478
P2    P     P_3+3 0.325150 0.423860 0.297970 0.475511
P3    P     P_3+3 0.850397 0.629060 0.215270 0.475571
O7    O     O_2   0.147570 0.451710 0.282630 -0.274969
O8    O     O_3   0.905540 0.621350 0.329600 -0.357191
O9    O     O_2   0.977420 0.575934 0.171305 -0.343372
O10   O     O_3   0.311091 0.307217 0.266460 -0.596113
O11   O     O_3   0.882377 0.741588 0.191319 -0.570900
C2    C     C_3   0.881781 0.797979 0.270172 0.311690
H2    H     H_    0.971798 0.777729 0.325373 0.179827
H3    H     H_    0.761114 0.794420 0.290976 0.031173
C3    C     C_3   0.929942 0.895638 0.256237 -0.668206
H4    H     H_    0.949097 0.936356 0.321584 0.155189
H5    H     H_    0.045640 0.898780 0.230987 0.271794
C4    C     C_3   0.701692 0.298445 0.274392 0.216980
H6    H     H_    0.618254 0.325502 0.318721 0.071332
C5    C     C_3   0.600222 0.230489 0.203401 -0.688508
H7    H     H_    0.536988 0.180340 0.238654 0.181365
H8    H     H_    0.506109 0.267125 0.163095 0.167023
Ba1   Ba    Ba6+2 0.142880 0.544780 0.454020 1.576743
C6    C     C_3   0.013413 0.683098 0.737546 0.261637
H9    H     H_    0.002948 0.613602 0.704863 0.049566
C7    C     C_3   0.910175 0.688043 0.814793 -0.709776
H10   H     H_    0.936742 0.630623 0.856994 0.171731
H11   H     H_    0.783704 0.680614 0.786991 0.228239
C8    C     C_3   0.247244 0.254694 0.327160 0.484586
H12   H     H_    0.153414 0.289889 0.358163 0.153290
C9    C     C_3   0.169388 0.167731 0.275632 -0.892861
H13   H     H_    0.124715 0.179944 0.205275 0.298511
H14   H     H_    0.068939 0.141114 0.308199 0.236527
H15   H     H_    0.259008 0.115068 0.274238 0.232368
P4    P     P_3+3 0.862730 0.285940 0.439440 0.468035
O12   O     O_2   0.696600 0.271740 0.467230 -0.390799
O13   O     O_3   0.938380 0.387880 0.459490 -0.373095
O14   O     O_3   0.484630 0.331100 0.627330 -0.393304
O15   O     O_3   0.829832 0.255724 0.322306 -0.572090
P5    P     P_3+3 0.938357 0.394026 0.788496 0.467212
O16   O     O_3   0.389110 0.548970 0.605210 -0.437579
O17   O     O_3   0.904740 0.378630 0.670330 -0.326270
O18   O     O_2   0.798029 0.445315 0.819224 -0.418254
O19   O     O_3   0.910589 0.287087 0.827003 -0.521411
Ba2   Ba    Ba6+2 0.667290 0.455210 0.545900 1.573433
P6    P     P_3+3 0.353927 0.785213 0.370504 0.480697
C10   C     C_3   0.375076 0.778853 0.201142 0.244881
H16   H     H_    0.502420 0.803415 0.220803 0.072313
O20   O     O_3   0.421180 0.451020 0.394720 -0.435699
C11   C     C_3   0.543717 0.730450 0.664616 0.286682
H17   H     H_    0.663239 0.710024 0.650972 0.096841
H18   H     H_    0.454707 0.711120 0.603405 0.131348
C12   C     C_3   0.546148 0.832938 0.681215 -0.667862
H19   H     H_    0.622502 0.862462 0.635628 0.165659
H20   H     H_    0.422259 0.853710 0.660790 0.249296
P7    P     P_3+3 0.483073 0.573815 0.717002 0.432584
O21   O     O_2   0.662730 0.548230 0.717350 -0.369077
O22   O     O_3   0.500860 0.690037 0.739361 -0.552967
C13   C     C_3   0.045882 0.237991 0.814752 0.252389
H21   H     H_    0.072266 0.238834 0.744816 0.115114
H22   H     H_    0.151334 0.266859 0.862794 0.058308
C14   C     C_3   0.016754 0.139421 0.833576 -0.538375
H23   H     H_    0.123448 0.101358 0.821630 0.203304
H24   H     H_    0.001218 0.135401 0.905101 0.217540
P8    P     P_3+3 0.460950 0.214754 0.631575 0.475830
C15   C     C_3   0.488237 0.266929 0.799909 0.451188
H25   H     H_    0.362839 0.287430 0.782522 0.032340
O23   O     O_2   0.592709 0.173386 0.582192 -0.395562
O24   O     O_3   0.519541 0.192384 0.743653 -0.494990
H26   H     H_    0.572201 0.324842 0.794006 0.146533
H27   H     H_    0.487260 0.302812 0.940640 0.180538
C16   C     C_3   0.513707 0.243220 0.897356 -0.647423
H28   H     H_    0.641517 0.227490 0.918209 0.250594
C17   C     C_R   0.006165 0.947065 0.554369 -0.119494
C18   C     C_R   0.825150 0.803447 0.500012 0.240488
C19   C     C_R   0.671752 0.771347 0.457408 -0.542351
C20   C     C_R   0.562200 0.828470 0.415540 0.271454
C21   C     C_R   0.608837 0.918213 0.408257 -0.156749
C22   C     C_R   0.760231 0.956899 0.450354 0.000560
C23   C     C_R   0.868765 0.900858 0.500481 -0.069635
H29   H     H_    0.634240 0.701144 0.459797 0.166560
C24   C     C_R   0.944484 0.095216 0.492957 0.008667
C25   C     C_R   0.057236 0.037064 0.537613 -0.092899
C26   C     C_R   0.984711 0.193225 0.499491 0.174460
C27   C     C_R   0.131984 0.223577 0.552184 -0.452886
C28   C     C_R   0.251097 0.165727 0.583961 0.059221
C29   C     C_R   0.215787 0.072676 0.573139 -0.171779
C30   C     C_R   0.797301 0.052220 0.447356 0.029274
H30   H     H_    0.520624 0.957848 0.371497 0.168059
C31   C     C_R   0.223720 0.487672 0.774086 -0.312136
C32   C     C_R   0.134558 0.453181 0.835133 0.185220
C33   C     C_R   0.197899 0.462789 0.927738 -0.127726
C34   C     C_R   0.365586 0.489177 0.955633 0.110464
C35   C     C_R   0.458649 0.504784 0.886138 -0.333726
C36   C     C_R   0.385212 0.512399 0.797988 0.295804
C37   C     C_R   0.582222 0.563729 0.084486 -0.127421
C38   C     C_R   0.643303 0.577763 0.176754 0.267856
C39   C     C_R   0.420856 0.484838 0.213652 0.288210
C40   C     C_R   0.373050 0.461078 0.121645 -0.291655
C41   C     C_R   0.441511 0.505054 0.054521 0.099506
C42   C     C_R   0.553106 0.545814 0.240380 -0.486712
H31   H     H_    0.284395 0.405832 0.103879 0.161882
H32   H     H_    0.587030 0.514796 0.898675 0.190608
H33   H     H_    0.594574 0.562019 0.311179 0.161539
H34   H     H_    0.165859 0.496948 0.706893 0.159631
C43   C     C_2   0.690975 0.180263 0.138155 1.173357
O25   O     O_2   0.618435 0.122508 0.083874 -0.657239
O26   O     O_R   0.853912 0.200492 0.136681 -0.760224
H35   H     H_    0.896747 0.163636 0.087034 0.320472
C44   C     C_2   0.181366 0.708419 0.779765 1.037595
O27   O     O_2   0.251457 0.772596 0.754388 -0.540488
O28   O     O_R   0.248141 0.668052 0.856039 -0.873845
H36   H     H_    0.366597 0.685229 0.873807 0.352374
C45   C     C_2   0.925646 0.774217 0.875730 1.147462
O29   O     O_2   0.011379 0.839100 0.863252 -0.579203
O30   O     O_R   0.836175 0.779444 0.946650 -0.822945
H37   H     H_    0.850839 0.840584 0.981857 0.348389
N1    N     N_3   0.378435 0.230457 0.393597 -0.196528
H38   H     H_    0.336195 0.180815 0.430799 0.059972
H39   H     H_    0.417366 0.286885 0.436979 0.202901
N2    N     N_3   0.148386 0.772854 0.073930 -0.188431
H40   H     H_    0.070598 0.811662 0.106208 0.208431
H41   H     H_    0.131873 0.705862 0.089086 0.180115
N3    N     N_3   0.417511 0.763666 0.044995 -0.220134
H42   H     H_    0.386932 0.694480 0.036955 0.130371
H43   H     H_    0.387454 0.787198 0.981690 0.211099
C46   C     C_2   0.601064 0.869971 0.777696 1.295133
O31   O     O_2   0.709185 0.928591 0.794922 -0.605714
O32   O     O_R   0.521973 0.842393 0.846942 -0.740418
H44   H     H_    0.565878 0.875846 0.906960 0.341152
C47   C     C_2   0.327459 0.907995 0.099279 1.149031
O33   O     O_2   0.398390 0.941044 0.043127 -0.633869
O34   O     O_R   0.252407 0.964708 0.156067 -0.803194
H45   H     H_    0.261888 0.030054 0.141626 0.316892
C48   C     C_2   0.806307 0.938185 0.193662 1.138368
O35   O     O_2   0.838972 0.963540 0.122920 -0.608251
O36   O     O_R   0.656401 0.952618 0.219023 -0.866605
H46   H     H_    0.593379 0.995593 0.180602 0.343606
N4    N     N_3   0.875579 0.096974 0.775455 -0.104389
H47   H     H_    0.878143 0.112406 0.709120 0.165398
H48   H     H_    0.772802 0.123094 0.796428 0.248979
N5    N     N_3   0.406225 0.166402 0.908054 -0.184109
H49   H     H_    0.464539 0.106876 0.896154 0.236706
H50   H     H_    0.384619 0.169343 0.974554 0.180641
C49   C     C_2   0.353369 0.014311 0.586058 1.105532
O37   O     O_2   0.376518 0.960860 0.525278 -0.667795
O38   O     O_R   0.464266 0.025693 0.664801 -0.740053
H51   H     H_    0.575654 0.008516 0.654422 0.326069
C50   C     C_2   0.173599 0.318283 0.569920 1.119428
O39   O     O_2   0.188824 0.350940 0.646519 -0.703548
O40   O     O_R   0.228893 0.365020 0.503781 -0.810975
H52   H     H_    0.301421 0.418118 0.529473 0.392392
C51   C     C_2   0.032668 0.929690 0.650693 1.085958
O41   O     O_2   0.915549 0.915372 0.687256 -0.597803
O42   O     O_R   0.184283 0.940619 0.702906 -0.790422
H53   H     H_    0.180345 0.938604 0.769463 0.382813
N6    N     N_3   0.685059 0.105034 0.396385 -0.157264
H54   H     H_    0.670618 0.080411 0.329350 0.133445
H55   H     H_    0.574983 0.099977 0.420237 0.145125
N7    N     N_3   0.661564 0.611572 0.022859 -0.207876
H56   H     H_    0.675968 0.679930 0.044983 0.187041
H57   H     H_    0.776053 0.586945 0.022301 0.156284
N8    N     N_3   0.089763 0.452827 0.991770 -0.186748
H58   H     H_    0.998607 0.498067 0.979525 0.153022
H59   H     H_    0.037539 0.387171 0.982774 0.159270
C52   C     C_2   0.771675 0.376659 0.233080 0.990509
O43   O     O_2   0.774347 0.376286 0.152396 -0.610708
O44   O     O_R   0.838077 0.450775 0.288610 -0.690264
H60   H     H_    0.789893 0.457688 0.345995 0.296434

loop_
_geom_bond_atom_site_label_1
_geom_bond_atom_site_label_2
_geom_bond_distance
_ccdc_geom_bond_type
C52   O43   1.221688 D    
N7    H56   1.043277 S    
C37   C38   1.410071 A    
C31   C32   1.383241 A    
N5    H49   1.046128 S    
C17   C23   1.430423 A    
C11   H17   1.104774 S    
C17   C51   1.481850 S    
C33   C34   1.439998 A    
N1    H38   1.040480 S    
C16   H28   1.113234 S    
C35   H32   1.069906 S    
C52   O44   1.381501 S    
Ba1   O16   2.842544 S    
Ba2   O20   2.841826 S    
C34   C41   1.533146 S    
O7    Ba1   2.852871 S    
C21   C22   1.415425 A    
C9    H13   1.104062 S    
N5    H50   1.044766 S    
C48   O36   1.389986 S    
O6    C10   1.403059 S    
C8    H12   1.105531 S    
P2    O10   1.759521 S    
P3    O9    1.551423 D    
P4    Ba2   3.486127 S    
N1    H39   1.037238 S    
C12   H20   1.104602 S    
C44   O27   1.215067 D    
C2    C3    1.528443 S    
P1    O1    1.526105 D    
P7    O22   1.732646 S    
C17   C25   1.439199 A    
P8    C28   1.898684 S    
C2    H3    1.105168 S    
Ba1   Ba2   4.596528 S    
C25   C29   1.426439 A    
C12   C46   1.518605 S    
C46   O31   1.218865 D    
C44   O28   1.392307 S    
C11   O22   1.401274 S    
P8    O24   1.751361 S    
P1    Ba1   3.485553 S    
C4    H6    1.106520 S    
C7    H11   1.081968 S    
O8    Ba1   2.862854 S    
P4    C26   1.948019 S    
C27   C50   1.433282 S    
H1    C10   1.112867 S    
O10   C8    1.396527 S    
C50   O40   1.380369 S    
C19   H29   1.082353 S    
N8    H59   1.044988 S    
C6    C44   1.482521 S    
N7    H57   1.044389 S    
O19   C13   1.403735 S    
C51   O42   1.393199 S    
C18   C23   1.478339 A    
C1    C10   1.554622 S    
C14   N4    1.459251 S    
C40   C41   1.421703 A    
O3    Ba1   2.814516 S    
O2    Ba2   2.853554 S    
C19   C20   1.392305 A    
O17   Ba2   2.863583 S    
N6    H55   1.042693 S    
P5    O17   1.762182 S    
C37   C41   1.437134 A    
O16   P7    1.762290 S    
C14   H23   1.109681 S    
C13   C14   1.529175 S    
N8    H58   1.044930 S    
H27   C16   1.112526 S    
C47   O34   1.394143 S    
C28   C29   1.395674 A    
Ba1   O20   2.986672 S    
C31   C36   1.379579 A    
C18   C19   1.401876 A    
O3    P6    1.738947 S    
C12   H19   1.108247 S    
O44   H60   1.009696 S    
C21   H30   1.080138 S    
N6    H54   1.039708 S    
C4    O15   1.406959 S    
P1    O5    1.770438 S    
P1    O2    1.609659 S    
C13   H22   1.109589 S    
C39   C42   1.397404 A    
C6    H9    1.107075 S    
P3    O11   1.754838 S    
P4    O13   1.609639 S    
C7    H10   1.111896 S    
P5    O19   1.749690 S    
C7    C45   1.512519 S    
C32   C33   1.416408 A    
P8    O23   1.547155 D    
C2    H2    1.107788 S    
O30   H37   1.013171 S    
C43   O26   1.393508 S    
C5    H7    1.108560 S    
C22   C23   1.431377 A    
C37   N7    1.433392 S    
P6    C20   1.853249 S    
P2    C39   1.869816 S    
C50   O39   1.208946 D    
C45   O30   1.395786 S    
P2    O7    1.554057 D    
O13   Ba2   2.961393 S    
N4    H48   1.042850 S    
P4    O12   1.526575 D    
C3    H5    1.095783 S    
C20   C21   1.391463 A    
O14   P8    1.739666 S    
C11   H18   1.112588 S    
C29   C49   1.472469 S    
C51   O41   1.215826 D    
Ba2   O21   2.853166 S    
C49   O38   1.394268 S    
P7    C36   1.843715 S    
O2    Ba1   2.960688 S    
O12   Ba2   2.930817 S    
C15   C16   1.524393 S    
C10   H16   1.107100 S    
O26   H35   1.014322 S    
P5    O18   1.540041 D    
P2    Ba1   3.437214 S    
P1    C18   1.915267 S    
C16   N5    1.459585 S    
O40   H52   0.996120 S    
N2    H41   1.045947 S    
C43   O25   1.220792 D    
C49   O37   1.213618 D    
C9    H15   1.109701 S    
O4    P6    1.542902 D    
N4    H47   1.046691 S    
C31   H34   1.079717 S    
C15   O24   1.405100 S    
C45   O29   1.222130 D    
O14   Ba2   2.814011 S    
O32   H44   1.013559 S    
C1    N3    1.459642 S    
C5    H8    1.110868 S    
C33   N8    1.432004 S    
O16   Ba2   2.985875 S    
C1    N2    1.467219 S    
C35   C36   1.397107 A    
C13   H21   1.111499 S    
C3    C48   1.491184 S    
C9    H14   1.110582 S    
N3    H42   1.043971 S    
O6    P6    1.752724 S    
C15   H25   1.108556 S    
C6    C7    1.552309 S    
O28   H36   1.009430 S    
O42   H53   1.013132 S    
C15   H26   1.107459 S    
P3    O8    1.734044 S    
C27   C28   1.400197 A    
O11   C2    1.407301 S    
C30   N6    1.425729 S    
N2    H40   1.040350 S    
C48   O35   1.222349 D    
C24   C30   1.426329 A    
Ba1   O13   2.853050 S    
C24   C26   1.475104 A    
C38   C42   1.404689 A    
P3    C38   1.865097 S    
C8    C9    1.530356 S    
C22   C30   1.443628 A    
C4    C5    1.550121 S    
P7    O21   1.571418 D    
P2    O20   1.578521 S    
O34   H45   1.013215 S    
C5    C43   1.507573 S    
C1    C47   1.525992 S    
P4    O15   1.772093 S    
O5    C6    1.403620 S    
C4    C52   1.497440 S    
C3    H4    1.107380 S    
C24   C25   1.436296 A    
C46   O32   1.395243 S    
C34   C35   1.424143 A    
C11   C12   1.525091 S    
C39   C40   1.403981 A    
C8    N1    1.453049 S    
O36   H46   1.007899 S    
C47   O33   1.224696 D    
O1    Ba1   2.930279 S    
O38   H51   1.011485 S    
C14   H24   1.112462 S    
C26   C27   1.407807 A    
P5    C32   1.854422 S    
C40   H31   1.077487 S    
N3    H43   1.041339 S    
C42   H33   1.081475 S    
