data_mof_unit_51834.cif
_audit_creation_date              2012-12-11T14:45:52-0500
_audit_creation_method            fapswitch 2.2
_symmetry_space_group_name_H-M    P1
_symmetry_Int_Tables_number       1
_space_group_crystal_system       triclinic
_cell_length_a                    10.912167
_cell_length_b                    10.934233
_cell_length_c                    18.804022
_cell_angle_alpha                 90.096213
_cell_angle_beta                  89.820713
_cell_angle_gamma                 119.916388
_cell_volume                      1944.6608447

loop_
_atom_site_label
_atom_site_type_symbol
_atom_type_description
_atom_site_fract_x
_atom_site_fract_y
_atom_site_fract_z
_atom_type_partial_charge
C1    C     C_R   0.868471 0.635941 0.605200 0.542999
C2    C     C_R   0.271258 0.548135 0.796150 -0.144653
C3    C     C_R   0.255941 0.533530 0.723547 -0.132869
C4    C     C_R   0.298392 0.652556 0.680303 0.026699
C5    C     C_R   0.861672 0.179301 0.826147 -0.043467
C6    C     C_R   0.066258 0.140460 0.814888 -0.083612
C7    C     C_R   0.147883 0.101570 0.773847 -0.129696
C8    C     C_R   0.123284 0.078467 0.701244 -0.121576
C9    C     C_R   0.020754 0.099706 0.668823 -0.085227
C10   C     C_R   0.938448 0.141624 0.709113 -0.000194
C11   C     C_R   0.955268 0.153597 0.784169 0.007499
C12   C     C_R   0.265522 0.629052 0.605337 0.545517
C13   C     C_R   0.738161 0.182141 0.720095 0.025507
C14   C     C_R   0.771067 0.217727 0.791870 0.012996
C15   C     C_R   0.608970 0.166710 0.694557 -0.077144
C16   C     C_R   0.531382 0.211625 0.734800 -0.139205
C17   C     C_R   0.579028 0.270094 0.801610 -0.114688
C18   C     C_R   0.699410 0.275393 0.829769 -0.066323
C19   C     C_R   0.835865 0.165752 0.676360 -0.035107
C20   C     C_R   0.708096 0.589742 0.707547 -0.130293
C21   C     C_R   0.690967 0.595637 0.780445 -0.126448
C22   C     C_R   0.809519 0.651395 0.825536 0.026870
C23   C     C_R   0.859491 0.224320 0.603001 0.530682
C24   C     C_R   0.944263 0.698229 0.797733 -0.129085
C25   C     C_R   0.961521 0.695811 0.725249 -0.114901
C26   C     C_R   0.844138 0.644441 0.679913 0.042189
C27   C     C_R   0.242773 0.536439 0.275137 -0.129024
C28   C     C_R   0.259124 0.552968 0.202527 -0.132771
C29   C     C_R   0.333286 0.688468 0.173582 0.023401
C30   C     C_R   0.378317 0.807592 0.217449 -0.141281
C31   C     C_R   0.359271 0.790668 0.290663 -0.152934
C32   C     C_R   0.296982 0.655065 0.319698 0.028480
C33   C     C_R   0.794178 0.261074 0.274759 -0.091600
C34   C     C_R   0.869813 0.636705 0.395585 0.544118
C35   C     C_R   0.793204 0.244825 0.202000 0.356772
C36   C     C_R   0.852583 0.168520 0.172542 0.029111
C37   C     C_R   0.925979 0.121975 0.216112 -0.201666
C38   C     C_R   0.929021 0.140936 0.289294 -0.176769
C39   C     C_R   0.857496 0.204923 0.318840 -0.028670
C40   C     C_R   0.965406 0.713442 0.276471 -0.131836
C41   C     C_R   0.949642 0.714507 0.203921 -0.127967
C42   C     C_R   0.814158 0.650672 0.174721 0.066926
C43   C     C_R   0.694570 0.574123 0.218253 -0.080857
C44   C     C_R   0.710768 0.570908 0.291380 -0.145397
C45   C     C_R   0.266037 0.630855 0.394807 0.545112
C46   C     C_R   0.846089 0.645491 0.320714 0.021554
C47   C     C_R   0.812276 0.109337 0.896589 0.533264
C48   C     C_R   0.393553 0.700730 0.897125 0.542914
C49   C     C_R   0.796497 0.690567 0.897342 0.546614
C50   C     C_R   0.809430 0.108536 0.101966 0.573649
C51   C     C_R   0.393530 0.704451 0.103129 0.541599
C52   C     C_R   0.797574 0.692781 0.104075 0.556828
C53   C     C_R   0.864521 0.234920 0.394066 0.546065
C54   C     C_R   0.349084 0.785765 0.710914 -0.154705
C55   C     C_R   0.367826 0.801152 0.784131 -0.141538
C56   C     C_R   0.333771 0.682514 0.826570 0.020574
Cr1   Cr    Cr6+3 0.791660 0.390250 0.499930 1.015587
Cr2   Cr    Cr6+3 0.098520 0.708290 0.500540 1.005419
Cr3   Cr    Cr6+3 0.109770 0.401430 0.499480 1.010558
Cr4   Cr    Cr6+3 0.874790 0.925890 0.000070 1.010877
Cr5   Cr    Cr6+3 0.574120 0.948670 0.999300 1.043215
Cr6   Cr    Cr6+3 0.551420 0.625320 0.000920 1.023429
H1    H     H_    0.375556 0.877025 0.678221 0.111129
H2    H     H_    0.435550 0.203068 0.713511 0.103250
H3    H     H_    0.564841 0.116971 0.644074 0.130788
H4    H     H_    0.520408 0.307469 0.832508 0.110095
H5    H     H_    0.616812 0.546754 0.672894 0.118899
H6    H     H_    0.586157 0.562333 0.801107 0.137601
H7    H     H_    0.036676 0.742906 0.831698 0.126902
H8    H     H_    0.067095 0.734121 0.704497 0.140724
H9    H     H_    0.187175 0.430249 0.296409 0.146041
H10   H     H_    0.221892 0.459889 0.169437 0.134908
H11   H     H_    0.436368 0.913443 0.195906 0.155073
H12   H     H_    0.416227 0.906174 0.806767 0.147101
H13   H     H_    0.396183 0.882566 0.324545 0.125939
H14   H     H_    0.745714 0.318566 0.296631 0.161239
H15   H     H_    0.972813 0.062847 0.194372 0.153864
H16   H     H_    0.983283 0.102583 0.322775 0.138666
H17   H     H_    0.071611 0.765470 0.297902 0.146694
H18   H     H_    0.043104 0.772442 0.171114 0.133101
H19   H     H_    0.588676 0.524397 0.196513 0.148683
H20   H     H_    0.618484 0.513531 0.324962 0.122900
H21   H     H_    0.242440 0.455117 0.828001 0.129468
H22   H     H_    0.209397 0.428207 0.701412 0.152488
H23   H     H_    0.230067 0.088630 0.798658 0.105262
H24   H     H_    0.184534 0.044957 0.669790 0.109771
H25   H     H_    0.093890 0.163896 0.870335 0.129209
H26   H     H_    0.003085 0.078297 0.612458 0.129121
H27   H     H_    0.732355 0.317832 0.882823 0.130488
O1    O     O_R   0.766500 0.250040 0.579790 -0.521012
O2    O     O_R   0.218690 0.701900 0.425960 -0.505912
O3    O     O_R   0.249490 0.516440 0.419420 -0.522196
O4    O     O_R   0.982880 0.281910 0.424890 -0.504625
O5    O     O_3   0.999980 0.499990 0.499980 -0.247229
O6    O     O_R   0.895110 0.806860 0.920430 -0.514076
O7    O     O_R   0.872260 0.046970 0.925000 -0.505021
O8    O     O_R   0.691430 0.085060 0.918550 -0.515307
O9    O     O_R   0.451490 0.822460 0.925250 -0.504816
O10   O     O_R   0.413330 0.603360 0.920440 -0.530268
O11   O     O_R   0.676110 0.626250 0.926750 -0.508764
O12   O     O_R   0.798570 0.516780 0.574780 -0.494130
O13   O     O_R   0.895350 0.809870 0.080950 -0.531638
O14   O     O_R   0.872490 0.049760 0.073800 -0.526429
O15   O     O_R   0.691680 0.088070 0.079070 -0.451622
O16   O     O_R   0.451720 0.825250 0.074050 -0.507130
O17   O     O_R   0.413580 0.606370 0.080960 -0.522978
O18   O     O_R   0.676340 0.629040 0.075550 -0.493158
O19   O     O_3   0.666780 0.833290 0.000090 -0.249615
O20   O     O_R   0.984000 0.732950 0.581090 -0.529923
O21   O     O_R   0.218600 0.700890 0.574760 -0.509434
O22   O     O_R   0.249390 0.515350 0.579940 -0.522037
O23   O     O_R   0.982790 0.280900 0.573700 -0.504951
O24   O     O_R   0.766600 0.251130 0.419260 -0.525518
O25   O     O_R   0.798660 0.517790 0.425980 -0.507019
O26   O     O_R   0.984100 0.734040 0.420570 -0.523884
F1    F     F_    0.727656 0.296967 0.160905 -0.636234

loop_
_geom_bond_atom_site_label_1
_geom_bond_atom_site_label_2
_ccdc_geom_bond_type
C55   C56   A    
C50   O15   A    
Cr2   O20   S    
C41   C42   A    
C14   C18   A    
C20   H5    S    
C35   C36   A    
C41   H18   S    
C12   O21   A    
C27   H9    S    
C7    C8    A    
C39   C53   S    
C40   C46   A    
C23   O23   A    
C5    C47   S    
C52   O13   A    
C17   H4    S    
C33   C39   A    
C28   C29   A    
C5    C11   A    
C44   H20   S    
C9    H26   S    
C29   C51   S    
C38   C39   A    
Cr6   O19   S    
C54   H1    S    
C15   C16   A    
C15   H3    S    
C32   C45   S    
C45   O3    A    
Cr5   O19   S    
C1    O20   A    
C55   H12   S    
Cr5   O9    S    
C52   O18   A    
C44   C46   A    
C8    C9    A    
Cr3   O22   S    
C47   O7    A    
C34   C46   S    
Cr3   O5    S    
C4    C12   S    
Cr4   O14   S    
Cr5   O16   S    
Cr2   O2    S    
Cr4   O19   S    
Cr3   O3    S    
C50   O14   A    
C21   C22   A    
C2    H21   S    
C28   H10   S    
Cr4   O13   S    
C53   O24   A    
C24   H7    S    
C17   C18   A    
C23   O1    A    
Cr1   O1    S    
C13   C19   A    
C53   O4    A    
Cr5   O15   S    
C24   C25   A    
C6    C11   A    
C30   H11   S    
C16   C17   A    
Cr1   O24   S    
Cr6   O18   S    
C38   H16   S    
C25   C26   A    
C37   H15   S    
C6    H25   S    
C19   C23   S    
C43   C44   A    
C37   C38   A    
C16   H2    S    
C33   H14   S    
C31   H13   S    
C31   C32   A    
C10   C19   A    
C51   O16   A    
Cr3   O23   S    
C40   H17   S    
C35   F1    S    
C49   O6    A    
C5    C14   A    
C6    C7    A    
C22   C49   S    
Cr6   O11   S    
Cr4   O7    S    
C40   C41   A    
Cr1   O5    S    
C13   C15   A    
C21   H6    S    
C1    C26   S    
C43   H19   S    
C22   C24   A    
C42   C43   A    
C3    C4    A    
C1    O12   A    
C27   C28   A    
C36   C50   S    
C9    C10   A    
C48   C56   S    
C48   O10   A    
C54   C55   A    
C36   C37   A    
C4    C54   A    
C27   C32   A    
Cr2   O21   S    
C18   H27   S    
Cr5   O8    S    
Cr1   O25   S    
Cr6   O17   S    
C34   O25   A    
Cr1   O12   S    
C47   O8    A    
C2    C3    A    
C34   O26   A    
C2    C56   A    
C49   O11   A    
C30   C31   A    
Cr2   O26   S    
C7    H23   S    
C20   C26   A    
C51   O17   A    
C33   C35   A    
C8    H24   S    
C48   O9    A    
Cr2   O5    S    
C45   O2    A    
C10   C11   A    
C29   C30   A    
Cr6   O10   S    
Cr4   O6    S    
C20   C21   A    
C3    H22   S    
C25   H8    S    
Cr3   O4    S    
C13   C14   A    
C12   O22   A    
C42   C52   S    
