data_mof_unit_56250.cif
_audit_creation_date              2012-12-11T14:45:29-0500
_audit_creation_method            fapswitch 2.2
_symmetry_space_group_name_H-M    P1
_symmetry_Int_Tables_number       1
_space_group_crystal_system       triclinic
_cell_length_a                    24.759164
_cell_length_b                    7.265995
_cell_length_c                    14.936991
_cell_angle_alpha                 90.015403
_cell_angle_beta                  103.376493
_cell_angle_gamma                 90.010856
_cell_volume                      2614.26352204

loop_
_atom_site_label
_atom_site_type_symbol
_atom_type_description
_atom_site_fract_x
_atom_site_fract_y
_atom_site_fract_z
_atom_type_partial_charge
O1    O     O_R   0.319150 0.364170 0.330530 -0.549919
O2    O     O_R   0.680850 0.635830 0.669470 -0.541502
O3    O     O_R   0.180850 0.864170 0.169470 -0.555966
O4    O     O_R   0.819150 0.135830 0.830530 -0.541629
O5    O     O_R   0.210330 0.696850 0.354180 -0.544304
O6    O     O_R   0.789670 0.303150 0.645820 -0.538245
O7    O     O_R   0.289670 0.196850 0.145820 -0.543228
O8    O     O_R   0.710330 0.803150 0.854180 -0.538183
C1    C     C_R   0.196480 0.524520 0.375596 0.693901
C2    C     C_R   0.804123 0.473880 0.624633 0.689809
C3    C     C_R   0.303527 0.024496 0.124420 0.685964
C4    C     C_R   0.695888 0.973893 0.875382 0.689806
O9    O     O_R   0.320550 0.694110 0.341970 -0.536232
O10   O     O_R   0.679450 0.305890 0.658030 -0.541886
O11   O     O_R   0.179450 0.194110 0.158030 -0.530988
O12   O     O_R   0.820550 0.805890 0.841970 -0.541765
O13   O     O_R   0.291860 0.861000 0.157170 -0.542409
O14   O     O_R   0.708140 0.139000 0.842830 -0.548094
O15   O     O_R   0.208140 0.361000 0.342830 -0.539272
O16   O     O_R   0.791860 0.639000 0.657170 -0.548104
C5    C     C_R   0.341358 0.526165 0.361446 0.736232
C6    C     C_R   0.658733 0.475195 0.637946 0.704408
C7    C     C_R   0.158671 0.026084 0.138462 0.717702
C8    C     C_R   0.841272 0.975255 0.862042 0.703884
O17   O     O_3   0.240460 0.529330 0.189380 -0.384506
O18   O     O_3   0.759540 0.470670 0.810620 -0.381794
O19   O     O_3   0.259540 0.029330 0.310620 -0.381225
O20   O     O_3   0.740460 0.970670 0.689380 -0.381809
V1    V     V_3+5 0.251770 0.805510 0.261240 1.421123
V2    V     V_3+5 0.748230 0.194490 0.738760 1.422814
V3    V     V_3+5 0.248230 0.305510 0.238760 1.434187
V4    V     V_3+5 0.751770 0.694490 0.761240 1.422994
C9    C     C_R   0.103356 0.020341 0.075579 -0.096256
C10   C     C_R   0.896744 0.986832 0.924926 -0.096144
C11   C     C_R   0.396738 0.520729 0.424044 -0.079768
C12   C     C_R   0.603292 0.486629 0.574991 -0.097021
C13   C     C_R   0.953673 0.978141 0.080815 -0.187773
C14   C     C_R   0.046919 0.013558 0.919650 -0.184489
C15   C     C_R   0.546478 0.478633 0.418978 -0.188436
C16   C     C_R   0.453097 0.512963 0.579949 -0.204946
C17   C     C_R   0.901513 0.962942 0.019801 0.149154
C18   C     C_R   0.099310 0.009865 0.980365 0.157855
C19   C     C_R   0.598602 0.463288 0.480087 0.149029
C20   C     C_R   0.400916 0.510517 0.519098 0.146944
C21   C     C_R   0.944835 0.022916 0.891151 0.123388
C22   C     C_R   0.054597 0.029548 0.109861 0.120004
C23   C     C_R   0.555160 0.522273 0.608708 0.123128
C24   C     C_R   0.445502 0.529727 0.389759 0.111249
C25   C     C_R   0.997925 0.011595 0.952309 0.041583
C26   C     C_R   0.002173 0.003971 0.048336 0.048080
C27   C     C_R   0.502128 0.511161 0.547434 0.049739
C28   C     C_R   0.497936 0.504126 0.451365 0.050594
H1    H     H_    0.955852 0.967686 0.153750 0.155593
H2    H     H_    0.045226 0.012408 0.846790 0.137651
H3    H     H_    0.544367 0.468627 0.346048 0.155686
H4    H     H_    0.454272 0.511374 0.652675 0.143305
C29   C     C_R   0.664351 0.983373 0.947798 -0.031940
C30   C     C_R   0.334394 0.013517 0.052168 -0.033111
C31   C     C_R   0.835674 0.483316 0.552241 -0.031878
C32   C     C_R   0.165633 0.513675 0.447880 -0.031815
C33   C     C_R   0.657648 0.102435 0.095026 -0.172155
C34   C     C_R   0.340028 0.085048 0.898276 -0.173037
C35   C     C_R   0.842367 0.602039 0.404980 -0.172177
C36   C     C_R   0.159992 0.585914 0.601722 -0.174378
C37   C     C_R   0.687901 0.076204 0.028781 -0.153629
C38   C     C_R   0.310355 0.084777 0.966066 -0.163412
C39   C     C_R   0.812112 0.575882 0.471222 -0.153573
C40   C     C_R   0.189664 0.585349 0.533928 -0.155236
C41   C     C_R   0.609141 0.919086 0.933274 -0.201570
C42   C     C_R   0.388807 0.943076 0.069955 -0.219223
C43   C     C_R   0.890901 0.419262 0.566816 -0.201573
C44   C     C_R   0.111216 0.443203 0.430132 -0.221888
C45   C     C_R   0.574308 0.978115 0.991574 0.048178
C46   C     C_R   0.423816 0.983448 0.009882 0.054029
C47   C     C_R   0.925728 0.478235 0.508499 0.048200
C48   C     C_R   0.076212 0.483803 0.490189 0.054565
C49   C     C_R   0.601015 0.052868 0.077777 0.078733
C50   C     C_R   0.396789 0.035802 0.918953 0.090066
C51   C     C_R   0.899008 0.552674 0.422260 0.078695
C52   C     C_R   0.103239 0.536520 0.581087 0.089621
C53   C     C_R   0.514232 0.981658 0.965356 -0.055516
C54   C     C_R   0.483825 0.986156 0.036866 -0.050399
C55   C     C_R   0.985804 0.481998 0.534717 -0.055300
C56   C     C_R   0.016207 0.486360 0.463207 -0.050237
C57   C     C_R   0.515123 0.020365 0.129902 -0.004815
C58   C     C_R   0.483856 0.006494 0.871469 -0.008023
C59   C     C_R   0.984906 0.520264 0.370158 -0.004891
C60   C     C_R   0.016183 0.507162 0.628592 -0.008086
C61   C     C_R   0.570881 0.078799 0.145210 0.128748
C62   C     C_R   0.426669 0.044627 0.850480 0.127754
C63   C     C_R   0.929138 0.578505 0.354822 0.128789
C64   C     C_R   0.073365 0.545498 0.649568 0.126577
H5    H     H_    0.403984 0.866793 0.132669 0.139936
H6    H     H_    0.592457 0.838857 0.872159 0.134842
H7    H     H_    0.096027 0.366761 0.367442 0.139758
H8    H     H_    0.907597 0.339241 0.627965 0.134795
H9    H     H_    0.268018 0.135301 0.950566 0.136385
H10   H     H_    0.730229 0.126039 0.041454 0.110634
H11   H     H_    0.231992 0.636023 0.549381 0.129419
H12   H     H_    0.769776 0.625565 0.458518 0.110672
H13   H     H_    0.678955 0.167026 0.158620 0.119663
H14   H     H_    0.318381 0.132106 0.830874 0.119772
H15   H     H_    0.821050 0.666409 0.341357 0.119669
H16   H     H_    0.181631 0.633307 0.669086 0.118857
N1    N     N_3   0.057102 0.082421 0.203988 -0.680999
H17   H     H_    0.097316 0.110985 0.241162 0.219926
H18   H     H_    0.042089 0.976754 0.238163 0.228261
N2    N     N_3   0.940438 0.087941 0.798242 -0.693710
H19   H     H_    0.899699 0.096840 0.759684 0.223795
H20   H     H_    0.961542 0.001090 0.762806 0.229259
N3    N     N_3   0.442990 0.582391 0.295626 -0.681663
H21   H     H_    0.402727 0.610027 0.258401 0.218132
H22   H     H_    0.458179 0.476895 0.261572 0.228955
N4    N     N_3   0.559455 0.586914 0.701667 -0.693047
H23   H     H_    0.600163 0.595235 0.740427 0.223376
H24   H     H_    0.538128 0.500162 0.736784 0.229811
N5    N     N_3   0.148868 0.003656 0.945689 -0.683882
H25   H     H_    0.167653 0.875877 0.963720 0.227392
H26   H     H_    0.139092 0.009459 0.873796 0.222804
N6    N     N_3   0.852563 0.931735 0.054004 -0.663082
H27   H     H_    0.828862 0.052134 0.042705 0.205805
H28   H     H_    0.863035 0.911641 0.125130 0.234174
N7    N     N_3   0.351760 0.504207 0.554232 -0.690092
H29   H     H_    0.353301 0.384749 0.593741 0.237654
H30   H     H_    0.352370 0.617214 0.597825 0.220836
N8    N     N_3   0.647602 0.432541 0.445963 -0.663041
H31   H     H_    0.671268 0.553037 0.457471 0.205860
H32   H     H_    0.637190 0.412732 0.374809 0.234070
N9    N     N_3   0.596311 0.165575 0.231368 -0.685103
H33   H     H_    0.630385 0.087448 0.265286 0.228779
H34   H     H_    0.609324 0.297633 0.218150 0.221316
N10   N     N_3   0.399866 0.101202 0.758395 -0.692849
H35   H     H_    0.384702 0.235150 0.760014 0.226488
H36   H     H_    0.367344 0.010663 0.731364 0.222966
N11   N     N_3   0.903695 0.665002 0.268630 -0.685184
H37   H     H_    0.869634 0.586704 0.234742 0.228745
H38   H     H_    0.890662 0.797059 0.281800 0.221331
N12   N     N_3   0.100176 0.602200 0.741663 -0.688035
H39   H     H_    0.115341 0.736185 0.740116 0.226594
H40   H     H_    0.132702 0.511735 0.768672 0.228548
C65   C     C_R   0.493556 0.012768 0.215037 0.143912
C66   C     C_R   0.451303 0.130181 0.228218 -0.191038
C67   C     C_R   0.433832 0.124384 0.310370 -0.131066
C68   C     C_R   0.463849 0.026328 0.385480 -0.076443
C69   C     C_R   0.509934 0.924517 0.376541 -0.065697
C70   C     C_R   0.522847 0.909018 0.290676 -0.028899
H41   H     H_    0.430438 0.220907 0.173627 0.121072
H42   H     H_    0.398249 0.201667 0.316723 0.143861
H43   H     H_    0.451637 0.031806 0.450387 0.108434
H44   H     H_    0.535127 0.855142 0.435492 0.102135
H45   H     H_    0.557583 0.823489 0.284210 0.094387
C71   C     C_R   0.511012 0.033063 0.794337 0.144257
C72   C     C_R   0.551609 0.167846 0.800574 -0.196500
C73   C     C_R   0.582436 0.175971 0.734548 -0.135301
C74   C     C_R   0.567043 0.074017 0.653382 -0.082193
C75   C     C_R   0.521212 0.957763 0.640877 -0.091366
C76   C     C_R   0.494513 0.931139 0.712559 -0.035956
H46   H     H_    0.562709 0.256098 0.860555 0.128196
H47   H     H_    0.617019 0.267501 0.747811 0.146684
H48   H     H_    0.589871 0.086452 0.600076 0.131000
H49   H     H_    0.508022 0.881766 0.577724 0.115352
H50   H     H_    0.461205 0.831702 0.704613 0.115441
C77   C     C_R   0.006491 0.512643 0.285045 0.143967
C78   C     C_R   0.048728 0.630189 0.271893 -0.190500
C79   C     C_R   0.066209 0.624417 0.189750 -0.133516
C80   C     C_R   0.036222 0.526210 0.114628 -0.076044
C81   C     C_R   0.990153 0.424235 0.123541 -0.064868
C82   C     C_R   0.977233 0.408729 0.209396 -0.029600
H51   H     H_    0.069565 0.721032 0.326493 0.121083
H52   H     H_    0.101771 0.701859 0.183412 0.144302
H53   H     H_    0.048445 0.531701 0.049731 0.108493
H54   H     H_    0.964980 0.354741 0.064580 0.102259
H55   H     H_    0.942511 0.323074 0.215844 0.094529
C83   C     C_R   0.989023 0.533819 0.705704 0.142517
C84   C     C_R   0.948408 0.668484 0.699416 -0.196250
C85   C     C_R   0.917546 0.676586 0.765389 -0.135169
C86   C     C_R   0.932907 0.574693 0.846549 -0.083231
C87   C     C_R   0.978757 0.458586 0.859112 -0.091098
C88   C     C_R   0.005506 0.432018 0.787484 -0.034732
H56   H     H_    0.937316 0.756620 0.639420 0.128135
H57   H     H_    0.882958 0.768048 0.752080 0.146694
H58   H     H_    0.910042 0.587047 0.899809 0.131392
H59   H     H_    0.991911 0.382593 0.922249 0.116223
H60   H     H_    0.038824 0.332676 0.795457 0.120550

loop_
_geom_bond_atom_site_label_1
_geom_bond_atom_site_label_2
_ccdc_geom_bond_type
O17   V3    S    
C23   N4    S    
C59   C77   S    
O1    C5    A    
N8    H31   S    
C59   C63   A    
O19   V1    S    
O13   V1    S    
O3    C7    A    
C77   C78   A    
C56   C59   A    
C44   C48   A    
O15   V3    S    
C48   C56   A    
C53   C54   A    
C60   C83   S    
N7    H29   S    
C14   C25   A    
C35   C51   A    
C50   C62   A    
O7    C3    A    
N1    H18   S    
C49   C61   A    
O5    C1    A    
C79   C80   A    
C9    C18   A    
C36   C40   A    
C38   H9    S    
O9    V1    S    
C78   C79   A    
O10   V2    S    
C37   H10   S    
C14   C18   A    
N5    H26   S    
O4    C8    A    
N7    H30   S    
C32   C44   A    
C67   C68   A    
C22   N1    S    
O1    V3    S    
C61   N9    S    
N2    H19   S    
C12   C23   A    
O2    V4    S    
C72   H46   S    
O3    V1    S    
C83   C84   A    
C31   C39   A    
C44   H7    S    
C1    O15   A    
C15   H3    S    
C60   C64   A    
C2    O16   A    
N10   H35   S    
C16   H4    S    
C42   C46   A    
C41   C45   A    
O14   V2    S    
C3    C30   S    
C16   C20   A    
C51   C63   A    
C69   H44   S    
C21   N2    S    
C62   N10   S    
O11   C7    A    
C55   C60   A    
C64   N12   S    
C80   H53   S    
O12   C8    A    
C9    C22   A    
C36   C52   A    
C78   H51   S    
C67   H42   S    
C10   C17   A    
C46   C54   A    
C11   C24   A    
C19   N8    S    
C45   C53   A    
C30   C38   A    
C69   C70   A    
O5    V1    S    
C85   H57   S    
C35   C39   A    
O7    V3    S    
C34   C38   A    
C27   C28   A    
O8    V4    S    
C87   C88   A    
N11   H37   S    
C42   H5    S    
C35   H15   S    
C41   H6    S    
C58   C62   A    
C33   C49   A    
C81   C82   A    
C57   C61   A    
O18   V4    S    
C30   C42   A    
C23   C27   A    
C43   H8    S    
C7    C9    S    
C8    C10   S    
C15   C28   A    
C52   C64   A    
C87   H59   S    
C33   H13   S    
O2    C6    A    
C68   H43   S    
C58   C71   S    
N4    H24   S    
C55   C56   A    
C14   H2    S    
C82   H55   S    
C21   C25   A    
O8    C4    A    
O9    C5    A    
N3    H22   S    
C10   C21   A    
O11   V3    S    
C11   C20   A    
C73   C74   A    
C81   H54   S    
N12   H40   S    
C39   H12   S    
C4    C29   S    
C65   C70   A    
C85   C86   A    
O6    V2    S    
C75   H49   S    
C86   C87   A    
C80   C81   A    
C48   C52   A    
C57   C65   S    
C54   C57   A    
N6    H27   S    
N6    H28   S    
N9    H33   S    
O16   V4    S    
C79   H52   S    
N11   H38   S    
C71   C76   A    
C75   C76   A    
N8    H32   S    
N3    H21   S    
C74   H48   S    
C66   H41   S    
C34   C50   A    
C36   H16   S    
C53   C58   A    
C29   C37   A    
C68   C69   A    
C3    O13   A    
O6    C2    A    
C15   C19   A    
C18   N5    S    
N4    H23   S    
C84   H56   S    
C5    C11   S    
O12   V4    S    
C16   C27   A    
C6    C12   S    
N1    H17   S    
C22   C26   A    
C20   N7    S    
C1    C32   S    
O10   C6    A    
O20   V2    S    
C2    C31   S    
C40   H11   S    
C13   H1    S    
C73   H47   S    
C84   C85   A    
C65   C66   A    
C43   C47   A    
C13   C26   A    
C47   C55   A    
C83   C88   A    
N9    H34   S    
N2    H20   S    
C77   C82   A    
C17   N6    S    
C13   C17   A    
N12   H39   S    
C70   H45   S    
C88   H60   S    
C33   C37   A    
C24   C28   A    
C24   N3    S    
C63   N11   S    
C71   C72   A    
C32   C40   A    
N10   H36   S    
C25   C26   A    
C46   C50   A    
C4    O14   A    
C74   C75   A    
C45   C49   A    
C66   C67   A    
C12   C19   A    
C29   C41   A    
C72   C73   A    
N5    H25   S    
C47   C51   A    
C76   H50   S    
O4    V2    S    
C86   H58   S    
C31   C43   A    
C34   H14   S    
