data_mof_unit_17710.cif
_audit_creation_date              2012-10-26T19:08:05-0400
_audit_creation_method            fapswitch 2.2
_symmetry_space_group_name_H-M    P1
_symmetry_Int_Tables_number       1
_space_group_crystal_system       triclinic
_cell_length_a                    15.088384
_cell_length_b                    13.686106
_cell_length_c                    19.35218
_cell_angle_alpha                 89.984772
_cell_angle_beta                  90.067975
_cell_angle_gamma                 89.96943
_cell_volume                      3996.24531069

loop_
_atom_site_label
_atom_site_type_symbol
_atom_type_description
_atom_site_fract_x
_atom_site_fract_y
_atom_site_fract_z
_atom_type_partial_charge
C1    C     C_R   0.328493 0.500052 0.500189 0.553624
C2    C     C_R   0.093280 0.411354 0.505316 -0.013982
C3    C     C_R   0.954808 0.320959 0.508727 0.141207
C4    C     C_R   0.045449 0.679575 0.498493 0.140225
C5    C     C_R   0.047457 0.322633 0.508039 -0.120634
C6    C     C_R   0.952770 0.677795 0.497516 -0.121359
C7    C     C_R   0.444945 0.792944 0.543480 0.047238
C8    C     C_R   0.555378 0.207038 0.456807 0.043434
C9    C     C_R   0.555356 0.792795 0.456638 0.031636
C10   C     C_R   0.444571 0.207210 0.543328 0.031374
C11   C     C_R   0.557497 0.896222 0.455341 -0.028431
C12   C     C_R   0.671541 0.499964 0.499943 0.551923
C13   C     C_R   0.442942 0.103767 0.545059 -0.028539
C14   C     C_R   0.443929 0.896184 0.545293 -0.010492
C15   C     C_R   0.557616 0.103792 0.455969 -0.012600
C16   C     C_R   0.500571 0.948183 0.500327 -0.027097
C17   C     C_R   0.500363 0.051800 0.500464 -0.026963
C18   C     C_R   0.614518 0.948688 0.410381 0.139309
C19   C     C_R   0.385607 0.051280 0.589787 0.139491
C20   C     C_R   0.387486 0.947811 0.590730 0.158798
C21   C     C_R   0.615408 0.052157 0.411583 0.156104
C22   C     C_R   0.500555 0.499995 0.367314 0.555697
C23   C     C_R   0.814643 0.411127 0.503366 -0.129418
C24   C     C_R   0.499676 0.499977 0.632691 0.553768
C25   C     C_R   0.503786 0.588110 0.254728 -0.137313
C26   C     C_R   0.503075 0.411403 0.744991 -0.140873
C27   C     C_R   0.494681 0.587974 0.745240 -0.139184
C28   C     C_R   0.506819 0.411362 0.255176 -0.137852
C29   C     C_R   0.507926 0.588801 0.182515 0.111145
C30   C     C_R   0.502468 0.410179 0.817227 0.109005
C31   C     C_R   0.495831 0.588772 0.817510 0.108966
C32   C     C_R   0.511146 0.410212 0.183022 0.103258
C33   C     C_R   0.510156 0.499241 0.146034 0.084612
C34   C     C_R   0.185520 0.589048 0.498897 -0.125985
C35   C     C_R   0.499727 0.499358 0.854105 0.084598
C36   C     C_R   0.503235 0.499854 0.291369 -0.037814
C37   C     C_R   0.499131 0.499818 0.708671 -0.037538
C38   C     C_R   0.501969 0.498991 0.930165 0.352009
C39   C     C_R   0.507199 0.498816 0.069979 0.363107
C40   C     C_R   0.814641 0.588430 0.498866 -0.138163
C41   C     C_R   0.185484 0.411842 0.504421 -0.137367
C42   C     C_R   0.768371 0.499848 0.500585 -0.024753
C43   C     C_R   0.231733 0.500283 0.501092 -0.024851
C44   C     C_3   0.597658 0.708260 0.123406 -0.299479
C45   C     C_R   0.907318 0.409881 0.505387 0.044286
C46   C     C_3   0.417163 0.285917 0.875105 -0.288941
C47   C     C_3   0.580840 0.713980 0.874859 -0.292938
C48   C     C_3   0.597503 0.271223 0.147528 -0.286506
C49   C     C_3   0.884400 0.200208 0.580650 -0.326658
C50   C     C_3   0.116653 0.808498 0.562698 -0.317651
C51   C     C_3   0.636460 0.871433 0.299421 -0.321688
C52   C     C_3   0.242943 0.127865 0.606388 -0.323773
C53   C     C_3   0.378273 0.871646 0.702811 -0.318731
C54   C     C_3   0.758536 0.129185 0.402950 -0.306508
C55   C     C_R   0.092864 0.590546 0.500579 0.044034
C56   C     C_R   0.953596 0.499820 0.503083 0.019169
C57   C     C_R   0.046562 0.500642 0.503262 0.019012
C58   C     C_R   0.906884 0.589041 0.499847 -0.013808
Cu1   Cu    Cu3+1 0.500000 0.597420 0.500000 0.928856
Cu2   Cu    Cu3+1 0.500000 0.402580 0.500000 0.926211
H1    H     H_    0.501923 0.657051 0.282163 0.123933
H2    H     H_    0.916553 0.746196 0.495337 0.099483
H3    H     H_    0.401681 0.750864 0.576608 0.157460
H4    H     H_    0.597608 0.249131 0.422892 0.157543
H5    H     H_    0.597352 0.750037 0.423120 0.131106
H6    H     H_    0.401726 0.249981 0.576179 0.131419
H7    H     H_    0.478927 0.736062 0.172893 0.247080
H8    H     H_    0.642782 0.718815 0.168213 0.123802
H9    H     H_    0.593007 0.777985 0.094273 0.142235
H10   H     H_    0.625781 0.651907 0.088454 0.163879
H11   H     H_    0.537504 0.264609 0.826429 0.245389
H12   H     H_    0.505493 0.342612 0.717336 0.126607
H13   H     H_    0.373537 0.272208 0.829800 0.127323
H14   H     H_    0.385792 0.341137 0.909294 0.171383
H15   H     H_    0.424432 0.216926 0.904780 0.147950
H16   H     H_    0.459344 0.733752 0.827408 0.241364
H17   H     H_    0.623384 0.728637 0.829162 0.129749
H18   H     H_    0.613603 0.659069 0.908577 0.164854
H19   H     H_    0.573289 0.782656 0.904817 0.143531
H20   H     H_    0.462454 0.272531 0.164301 0.247942
H21   H     H_    0.616567 0.249140 0.200805 0.126682
H22   H     H_    0.649005 0.320660 0.126106 0.177048
H23   H     H_    0.491899 0.656855 0.717744 0.123835
H24   H     H_    0.594221 0.204856 0.114647 0.147548
H25   H     H_    0.942511 0.174137 0.485810 0.243775
H26   H     H_    0.944211 0.187189 0.612972 0.141715
H27   H     H_    0.845331 0.131582 0.577871 0.137257
H28   H     H_    0.842611 0.257227 0.605274 0.159763
H29   H     H_    0.057627 0.823173 0.466875 0.247830
H30   H     H_    0.057200 0.824767 0.594557 0.136907
H31   H     H_    0.155079 0.876919 0.555611 0.141334
H32   H     H_    0.159246 0.754978 0.590332 0.163258
H33   H     H_    0.710385 0.844098 0.388425 0.236232
H34   H     H_    0.506415 0.342457 0.282777 0.137475
H35   H     H_    0.583796 0.815715 0.306501 0.131915
H36   H     H_    0.689168 0.840282 0.266059 0.139515
H37   H     H_    0.607860 0.936159 0.272865 0.150485
H38   H     H_    0.356814 0.156227 0.664115 0.236386
H39   H     H_    0.252018 0.182487 0.564576 0.129674
H40   H     H_    0.200125 0.160136 0.647041 0.141974
H41   H     H_    0.208910 0.062595 0.584957 0.144406
H42   H     H_    0.271789 0.924671 0.646726 0.269477
H43   H     H_    0.334690 0.824501 0.734783 0.138996
H44   H     H_    0.393402 0.939484 0.732090 0.160614
H45   H     H_    0.778935 0.657155 0.496503 0.122931
H46   H     H_    0.440833 0.831321 0.692692 0.137538
H47   H     H_    0.685761 0.075204 0.320610 0.272041
H48   H     H_    0.799083 0.175897 0.368344 0.148799
H49   H     H_    0.796448 0.061706 0.415211 0.158632
H50   H     H_    0.745752 0.170318 0.451390 0.165224
H51   H     H_    0.221194 0.343134 0.506041 0.120923
H52   H     H_    0.778082 0.343092 0.503904 0.156274
H53   H     H_    0.222120 0.656904 0.495454 0.167706
H54   H     H_    0.083690 0.254225 0.510112 0.097280
N1    N     N_R   0.559860 0.437704 0.033216 -0.222519
N2    N     N_2   0.511938 0.318999 0.147843 -0.498928
N3    N     N_2   0.910098 0.229494 0.511711 -0.547756
N4    N     N_2   0.090273 0.771062 0.495866 -0.528430
N5    N     N_2   0.674135 0.899060 0.365381 -0.529214
N6    N     N_2   0.327596 0.100907 0.636047 -0.528932
N7    N     N_2   0.333823 0.895340 0.638680 -0.534839
N8    N     N_2   0.676043 0.104648 0.369011 -0.539440
N9    N     N_R   0.449259 0.560155 0.966906 -0.202113
N10   N     N_R   0.557329 0.437795 0.964549 -0.206956
N11   N     N_R   0.451854 0.560079 0.035593 -0.195953
N12   N     N_R   0.500000 0.743810 0.500000 -0.251799
N13   N     N_R   0.500000 0.256190 0.500000 -0.251955
N14   N     N_2   0.510419 0.680002 0.147050 -0.494537
N15   N     N_2   0.503463 0.318734 0.852363 -0.496715
N16   N     N_2   0.494512 0.679995 0.852894 -0.495354
O1    O     O_R   0.370260 0.582280 0.500020 -0.508351
O2    O     O_R   0.629740 0.417720 0.499980 -0.511454
O3    O     O_R   0.629740 0.582280 0.499980 -0.507252
O4    O     O_R   0.370260 0.417720 0.500020 -0.505791
O5    O     O_R   0.499990 0.582300 0.400140 -0.504200
O6    O     O_R   0.500010 0.417700 0.599860 -0.506852
O7    O     O_R   0.500010 0.582300 0.599860 -0.506082
O8    O     O_R   0.499990 0.417700 0.400140 -0.504267

loop_
_geom_bond_atom_site_label_1
_geom_bond_atom_site_label_2
_ccdc_geom_bond_type
C51   H37   S    
C11   C18   A    
C23   C45   A    
C5    H54   S    
C18   C21   A    
C26   H12   S    
C6    C58   A    
C19   C20   A    
C47   H19   S    
Cu2   O2    S    
C46   N15   S    
C2    C57   A    
C56   C57   A    
Cu1   N12   S    
C23   H52   S    
Cu1   O1    S    
C33   C39   S    
C23   C42   A    
C30   C35   A    
C39   N11   A    
C53   H43   S    
C31   N16   S    
N9    N11   A    
Cu1   O7    S    
C53   H44   S    
C29   C33   A    
C48   H21   S    
C54   H50   S    
C28   H34   S    
C21   N8    S    
C49   H27   S    
C12   C42   S    
C3    N3    S    
H16   N16   S    
C53   H46   S    
C1    C43   S    
C7    C14   A    
C49   N3    S    
H20   N2    S    
C45   C56   A    
C56   C58   A    
C16   C17   A    
C51   N5    S    
C44   H10   S    
H42   N7    S    
Cu2   O6    S    
C38   N9    A    
C51   H36   S    
C48   N2    S    
C24   O6    A    
C40   C42   A    
C54   N8    S    
Cu1   Cu2   S    
H33   N5    S    
C41   C43   A    
C49   H28   S    
C4    N4    S    
C46   H15   S    
C50   H30   S    
C10   H6    S    
C25   C29   A    
C52   H41   S    
C40   C58   A    
C13   C19   A    
C47   N16   S    
C27   C31   A    
C14   C20   A    
C28   C32   A    
C35   C38   S    
C4    C6    A    
C1    O1    A    
C3    C45   A    
C48   H24   S    
C54   H49   S    
C34   H53   S    
H11   N15   S    
C11   C16   A    
C8    N13   A    
C24   C37   S    
C34   C55   A    
C44   H9    S    
C25   H1    S    
C32   N2    S    
H25   N3    S    
C9    C11   A    
C7    H3    S    
C20   N7    S    
C8    H4    S    
C52   N6    S    
C50   H32   S    
C19   N6    S    
C26   C30   A    
C8    C15   A    
C39   N1    A    
C12   O3    A    
C55   C57   A    
C4    C55   A    
C31   C35   A    
C44   H8    S    
C2    C5    A    
C47   H17   S    
C1    O4    A    
Cu2   O4    S    
C46   H14   S    
C15   C17   A    
C44   N14   S    
N1    N10   A    
C12   O2    A    
C50   N4    S    
Cu1   O3    S    
C49   H26   S    
Cu2   N13   S    
C34   C43   A    
C3    C5    A    
C10   C13   A    
C26   C37   A    
H38   N6    S    
C54   H48   S    
C24   O7    A    
C30   N15   S    
C22   C36   S    
C22   O8    A    
C52   H39   S    
C52   H40   S    
C9    N12   A    
H47   N8    S    
C13   C17   A    
C22   O5    A    
C32   C33   A    
C6    H2    S    
C27   H23   S    
C53   N7    S    
H7    N14   S    
C27   C37   A    
Cu1   O5    S    
C48   H22   S    
C14   C16   A    
C7    N12   A    
C9    H5    S    
C25   C36   A    
C50   H31   S    
C15   C21   A    
H29   N4    S    
C28   C36   A    
C41   H51   S    
C29   N14   S    
C51   H35   S    
C2    C41   A    
C47   H18   S    
C18   N5    S    
C46   H13   S    
C38   N10   A    
C10   N13   A    
Cu2   O8    S    
C40   H45   S    
