data_mof_unit_41195.cif
_audit_creation_date              2012-12-10T16:57:53-0500
_audit_creation_method            fapswitch 2.2
_symmetry_space_group_name_H-M    P1
_symmetry_Int_Tables_number       1
_space_group_crystal_system       triclinic
_cell_length_a                    10.632498
_cell_length_b                    10.911284
_cell_length_c                    9.739937
_cell_angle_alpha                 90.788798
_cell_angle_beta                  89.917725
_cell_angle_gamma                 90.335335
_cell_volume                      1129.84357949

loop_
_atom_site_label
_atom_site_type_symbol
_atom_type_description
_atom_site_fract_x
_atom_site_fract_y
_atom_site_fract_z
_atom_type_partial_charge
C1    C     C_R   0.495228 0.265301 0.499098 0.860174
C2    C     C_3   0.959569 0.496622 0.367528 -0.325182
C3    C     C_3   0.041680 0.396779 0.435281 -0.269705
C4    C     C_3   0.122942 0.499430 0.501470 -0.168412
C5    C     C_2   0.456676 0.929148 0.405874 -0.375536
C6    C     C_2   0.523007 0.867412 0.499308 0.289820
C7    C     C_2   0.475023 0.062002 0.386014 0.569980
C8    C     C_2   0.479706 0.133063 0.499907 -0.331574
C9    C     C_2   0.453004 0.412634 0.923188 -0.137466
C10   C     C_2   0.432075 0.425016 0.076057 0.036778
C11   C     C_R   0.259606 0.499885 0.500272 0.857996
C12   C     C_R   0.506367 0.734557 0.500754 0.778693
C13   C     C_R   0.740385 0.500161 0.499751 0.891785
C14   C     C_3   0.040684 0.502529 0.633353 -0.367551
C15   C     C_3   0.958289 0.402286 0.564867 0.527003
C16   C     C_3   0.877092 0.500313 0.498600 -0.170865
C17   C     C_3   0.959999 0.600855 0.563629 0.404561
C18   C     C_3   0.041927 0.597761 0.434386 0.489710
Cu1   Cu    Cu3+1 0.500030 0.500020 0.638630 0.967925
Cu2   Cu    Cu3+1 0.499970 0.499980 0.361370 0.993019
H1    H     H_    0.468928 0.092356 0.600549 0.128512
H2    H     H_    0.425701 0.326670 0.874135 0.149097
H3    H     H_    0.578461 0.535596 0.110140 0.202085
H4    H     H_    0.076198 0.503493 0.740484 0.164633
H5    H     H_    0.923834 0.494147 0.260494 0.178600
H6    H     H_    0.078011 0.312272 0.385041 0.178357
H7    H     H_    0.387360 0.881968 0.342042 0.154811
N1    N     N_2   0.498620 0.498660 0.846910 -0.229041
N2    N     N_2   0.498590 0.498630 0.153040 -0.301125
O1    O     O_R   0.500020 0.321960 0.617040 -0.595899
O2    O     O_R   0.499980 0.321920 0.382900 -0.523835
O3    O     O_R   0.316870 0.499990 0.617050 -0.604567
O4    O     O_R   0.316830 0.499950 0.382910 -0.553672
O5    O     O_R   0.500020 0.678080 0.617100 -0.605855
O6    O     O_R   0.499980 0.678040 0.382960 -0.579985
O7    O     O_R   0.683170 0.500050 0.617090 -0.545382
O8    O     O_R   0.683130 0.500010 0.382950 -0.602631
O9    O     O_3   0.903422 0.300870 0.630961 -0.558092
C19   C     C_3   0.999158 0.224797 0.680837 -0.287745
H8    H     H_    0.058794 0.273877 0.757803 0.154530
H9    H     H_    0.058013 0.187406 0.595767 0.150377
H10   H     H_    0.954709 0.145802 0.732975 0.184910
C20   C     C_1   0.492291 0.618527 0.897973 0.446759
N3    N     N_1   0.486709 0.717990 0.940383 -0.391418
C21   C     C_1   0.336223 0.348868 0.136007 0.382776
N4    N     N_1   0.258830 0.287345 0.183085 -0.308627
O10   O     O_3   0.906719 0.706159 0.625340 -0.585387
C22   C     C_3   0.001577 0.774758 0.692293 -0.303302
H11   H     H_    0.079303 0.799491 0.621117 0.187274
H12   H     H_    0.038783 0.724726 0.782054 0.161885
H13   H     H_    0.959987 0.861494 0.731388 0.177805
O11   O     O_3   0.096917 0.699803 0.369565 -0.587913
C23   C     C_3   0.002964 0.765755 0.301187 -0.305505
H14   H     H_    0.925879 0.794094 0.371922 0.202367
H15   H     H_    0.964606 0.711862 0.212922 0.158348
H16   H     H_    0.045850 0.850441 0.259641 0.187071
O12   O     O_3   0.625761 0.924362 0.562863 -0.579354
C24   C     C_3   0.633269 0.893955 0.702682 -0.251792
H17   H     H_    0.676902 0.802575 0.715003 0.220465
H18   H     H_    0.539929 0.898869 0.754409 0.154558
H19   H     H_    0.695598 0.961754 0.754957 0.176347
O13   O     O_3   0.475496 0.115416 0.256560 -0.562258
C25   C     C_3   0.515303 0.033178 0.152430 -0.280461
H20   H     H_    0.439982 0.965561 0.127312 0.174955
H21   H     H_    0.604164 0.986245 0.180567 0.172180
H22   H     H_    0.534312 0.086086 0.058097 0.173997

loop_
_geom_bond_atom_site_label_1
_geom_bond_atom_site_label_2
_ccdc_geom_bond_type
C20   N3    T    
C25   H21   S    
C7    O13   S    
O13   C25   S    
Cu1   N1    S    
C2    C18   S    
C1    C8    S    
C2    C16   S    
C9    C10   S    
N1    C20   S    
C13   O8    A    
Cu1   Cu2   S    
C10   N2    D    
C1    O2    A    
Cu2   N2    S    
C4    C18   S    
C10   C21   S    
C22   H12   S    
C2    C3    S    
C25   H22   S    
C18   O11   S    
C7    C8    D    
C19   H9    S    
C5    H7    S    
C23   H14   S    
C4    C11   S    
C6    C12   S    
Cu2   O8    S    
Cu1   O1    S    
C14   C17   S    
O12   C24   S    
C5    C6    D    
C15   O9    S    
C24   H19   S    
Cu1   O3    S    
H3    N2    S    
C22   H11   S    
C11   O3    A    
C17   C18   S    
C2    H5    S    
Cu1   O7    S    
C23   H15   S    
C4    C14   S    
O9    C19   S    
C22   H13   S    
C9    H2    S    
C23   H16   S    
C6    O12   S    
C15   C16   S    
Cu2   O4    S    
C12   O5    A    
C25   H20   S    
C17   O10   S    
C11   O4    A    
C3    C15   S    
O11   C23   S    
C13   O7    A    
C13   C16   S    
C14   H4    S    
C19   H8    S    
C5    C7    S    
C19   H10   S    
C1    O1    A    
C14   C15   S    
C24   H17   S    
C21   N4    T    
Cu2   O6    S    
C24   H18   S    
Cu1   O5    S    
C3    H6    S    
C3    C4    S    
O10   C22   S    
C9    N1    D    
C16   C17   S    
C12   O6    A    
Cu2   O2    S    
C8    H1    S    
