data_mof_unit_36427.cif
_audit_creation_date              2012-12-10T18:55:58-0500
_audit_creation_method            fapswitch 2.2
_symmetry_space_group_name_H-M    P1
_symmetry_Int_Tables_number       1
_space_group_crystal_system       triclinic
_cell_length_a                    10.648909
_cell_length_b                    9.836543
_cell_length_c                    15.001948
_cell_angle_alpha                 89.908487
_cell_angle_beta                  90.484303
_cell_angle_gamma                 88.844975
_cell_volume                      1571.05294582

loop_
_atom_site_label
_atom_site_type_symbol
_atom_type_description
_atom_site_fract_x
_atom_site_fract_y
_atom_site_fract_z
_atom_type_partial_charge
C1    C     C_R   0.260239 0.501730 0.500171 0.982819
C2    C     C_R   0.933894 0.563529 0.570812 0.124282
C3    C     C_R   0.936292 0.426651 0.433024 0.095714
C4    C     C_R   0.063763 0.573635 0.567339 0.097778
C5    C     C_R   0.547317 0.616315 0.094720 -0.186064
C6    C     C_R   0.561219 0.388770 0.905019 -0.181222
C7    C     C_R   0.459203 0.612457 0.906149 -0.187527
C8    C     C_R   0.477631 0.382253 0.093243 -0.187218
C9    C     C_R   0.542755 0.616785 0.186672 -0.201521
C10   C     C_R   0.555262 0.387658 0.813100 -0.207683
C11   C     C_R   0.455116 0.612301 0.814150 -0.198208
C12   C     C_R   0.739768 0.498309 0.500031 0.981265
C13   C     C_R   0.474941 0.381989 0.185168 -0.207695
C14   C     C_R   0.506067 0.499761 0.231917 -0.018926
C15   C     C_R   0.502604 0.499619 0.767783 -0.019691
C16   C     C_R   0.513607 0.499468 0.047939 0.121969
C17   C     C_R   0.512430 0.500760 0.951634 0.116966
C18   C     C_R   0.872405 0.493733 0.502219 -0.171554
C19   C     C_R   0.127613 0.506487 0.498125 -0.170131
C20   C     C_3   0.163440 0.481324 0.287771 -0.813895
C21   C     C_3   0.833993 0.524031 0.712240 -0.809226
C22   C     C_3   0.853278 0.213269 0.380026 -0.736412
C23   C     C_R   0.501334 0.500013 0.327753 0.873395
C24   C     C_3   0.148343 0.786361 0.620532 -0.742524
C25   C     C_R   0.499740 0.499902 0.672127 0.873465
C26   C     C_R   0.581270 0.070084 0.553496 -0.091105
C27   C     C_R   0.418730 0.929921 0.446507 -0.094288
C28   C     C_R   0.418767 0.073858 0.446469 -0.066503
C29   C     C_R   0.581252 0.926146 0.553516 -0.066109
C30   C     C_R   0.066064 0.437354 0.429316 0.124854
H1    H     H_    0.646233 0.123183 0.596229 0.118494
H2    H     H_    0.593781 0.300822 0.777490 0.147617
H3    H     H_    0.413372 0.698887 0.779382 0.153556
H4    H     H_    0.445928 0.290959 0.219449 0.154455
H5    H     H_    0.103143 0.293218 0.330344 0.229346
H6    H     H_    0.075121 0.522996 0.257578 0.233227
H7    H     H_    0.219575 0.431575 0.234616 0.242276
H8    H     H_    0.218565 0.565953 0.315982 0.244330
H9    H     H_    0.896853 0.710268 0.668205 0.230059
H10   H     H_    0.921267 0.484814 0.745190 0.231538
H11   H     H_    0.781481 0.437441 0.684064 0.238537
H12   H     H_    0.353750 0.876829 0.403789 0.123064
H13   H     H_    0.774392 0.575013 0.763077 0.247444
H14   H     H_    0.895918 0.379365 0.300927 0.227393
H15   H     H_    0.943571 0.157176 0.370574 0.206244
H16   H     H_    0.783240 0.173701 0.331900 0.236643
H17   H     H_    0.819726 0.193001 0.448520 0.259310
H18   H     H_    0.103640 0.620859 0.699538 0.226035
H19   H     H_    0.058981 0.843727 0.631028 0.207940
H20   H     H_    0.180693 0.806493 0.551721 0.261156
H21   H     H_    0.219845 0.824691 0.668010 0.232325
H22   H     H_    0.353860 0.129956 0.403658 0.130974
H23   H     H_    0.646187 0.870053 0.596304 0.135185
H24   H     H_    0.577043 0.706781 0.060147 0.128635
H25   H     H_    0.604109 0.302765 0.939682 0.129691
H26   H     H_    0.419245 0.698520 0.941742 0.130505
H27   H     H_    0.449483 0.292032 0.057550 0.129998
H28   H     H_    0.568763 0.707925 0.222216 0.154814
N1    N     N_R   0.500000 0.857200 0.500000 -0.079295
N2    N     N_R   0.500000 0.142800 0.500000 -0.077777
N3    N     N_2   0.135674 0.382835 0.356199 -0.301977
N4    N     N_2   0.863953 0.620381 0.643035 -0.299286
N5    N     N_2   0.868196 0.357616 0.364963 -0.302651
N6    N     N_2   0.131930 0.642224 0.635575 -0.305924
O1    O     O_R   0.316770 0.614620 0.499990 -0.621180
O2    O     O_R   0.683230 0.385380 0.500010 -0.621569
O3    O     O_R   0.683230 0.614620 0.500010 -0.612539
O4    O     O_R   0.316770 0.385380 0.499990 -0.612116
O5    O     O_R   0.499990 0.614660 0.369060 -0.635611
O6    O     O_R   0.500010 0.385340 0.630940 -0.632336
O7    O     O_R   0.500010 0.614660 0.630940 -0.611986
O8    O     O_R   0.499990 0.385340 0.369060 -0.611958
Zn1   Zn    Zn3+2 0.500000 0.653120 0.500000 0.949284
Zn2   Zn    Zn3+2 0.500000 0.346880 0.500000 0.951125

loop_
_geom_bond_atom_site_label_1
_geom_bond_atom_site_label_2
_ccdc_geom_bond_type
C14   C23   S    
C6    C10   A    
C3    C30   A    
C2    C4    A    
C9    C14   A    
C5    C9    A    
C8    C13   A    
O3    Zn1   S    
C3    N5    S    
C8    H27   S    
C2    C18   A    
C20   H8    S    
C4    N6    S    
C1    O1    A    
C6    H25   S    
C11   C15   A    
C1    O4    A    
C24   H21   S    
C22   H17   S    
C26   H1    S    
C24   N6    S    
C27   N1    A    
C13   C14   A    
C7    C11   A    
C20   H7    S    
C28   H22   S    
C27   H12   S    
C21   N4    S    
C19   C30   A    
C21   H10   S    
C29   H23   S    
C7    H26   S    
H5    N3    S    
C21   H11   S    
C24   H19   S    
N2    Zn2   S    
O5    Zn1   S    
C22   H16   S    
O6    Zn2   S    
C10   C15   A    
C28   N2    A    
H14   N5    S    
C24   H20   S    
H9    N4    S    
C12   O3    A    
H18   N6    S    
C15   C25   S    
C30   N3    S    
O4    Zn2   S    
C20   N3    S    
C20   H6    S    
C25   O7    A    
C10   H2    S    
C5    H24   S    
C11   H3    S    
C22   H15   S    
O1    Zn1   S    
C3    C18   A    
O8    Zn2   S    
C9    H28   S    
C8    C16   A    
C1    C19   S    
C12   C18   S    
C12   O2    A    
O7    Zn1   S    
C6    C17   A    
N1    Zn1   S    
C26   C29   A    
C23   O8    A    
C5    C16   A    
C13   H4    S    
C25   O6    A    
C7    C17   A    
C22   N5    S    
C21   H13   S    
C4    C19   A    
C26   N2    A    
C23   O5    A    
C29   N1    A    
C2    N4    S    
C16   C17   S    
C27   C28   A    
O2    Zn2   S    
