data_mof_unit_55476.cif
_audit_creation_date              2012-12-10T18:54:27-0500
_audit_creation_method            fapswitch 2.2
_symmetry_space_group_name_H-M    P1
_symmetry_Int_Tables_number       1
_space_group_crystal_system       triclinic
_cell_length_a                    19.433305
_cell_length_b                    18.236964
_cell_length_c                    9.061846
_cell_angle_alpha                 90.000756
_cell_angle_beta                  91.198921
_cell_angle_gamma                 89.999957
_cell_volume                      3210.8557707

loop_
_atom_site_label
_atom_site_type_symbol
_atom_type_description
_atom_site_fract_x
_atom_site_fract_y
_atom_site_fract_z
_atom_type_partial_charge
C1    C     C_R   0.367560 0.500104 0.501070 0.797008
C2    C     C_R   0.632440 0.500104 0.498929 0.797007
C3    C     C_R   0.456673 0.721433 0.405713 0.410915
C4    C     C_R   0.541137 0.278465 0.598867 0.413306
C5    C     C_R   0.543327 0.721434 0.594287 0.410912
C6    C     C_R   0.458863 0.278464 0.401132 0.413303
C7    C     C_R   0.455453 0.798852 0.406467 -0.336754
C8    C     C_R   0.540517 0.200923 0.601318 -0.324843
C9    C     C_R   0.544547 0.798853 0.593534 -0.336754
C10   C     C_R   0.459483 0.200922 0.398682 -0.324842
C11   C     C_R   0.500000 0.838708 0.500000 0.039917
C12   C     C_R   0.500000 0.160929 0.500000 0.030146
C13   C     C_R   0.507340 0.961045 0.632547 -0.182097
C14   C     C_R   0.492911 0.038142 0.367363 -0.181782
C15   C     C_R   0.492660 0.961044 0.367453 -0.182096
C16   C     C_R   0.507088 0.038143 0.632637 -0.181782
C17   C     C_R   0.500000 0.078173 0.500000 0.152606
C18   C     C_R   0.500000 0.921212 0.500000 0.150550
C19   C     C_R   0.499868 0.500006 0.220573 0.864451
C20   C     C_R   0.500131 0.500006 0.779427 0.864450
C21   C     C_1   0.499952 0.500026 0.065549 -0.197730
C22   C     C_1   0.500047 0.500027 0.934451 -0.197731
C23   C     C_R   0.743903 0.567719 0.491476 -0.172099
C24   C     C_R   0.256097 0.567719 0.508518 -0.172099
C25   C     C_R   0.254783 0.434739 0.501837 -0.178416
C26   C     C_R   0.745217 0.434739 0.498166 -0.178416
C27   C     C_R   0.815560 0.568437 0.490259 -0.072390
C28   C     C_R   0.184440 0.568437 0.509734 -0.072386
C29   C     C_R   0.183125 0.435525 0.500207 -0.079080
C30   C     C_R   0.816875 0.435525 0.499795 -0.079080
C31   C     C_R   0.852091 0.502368 0.495873 0.234309
C32   C     C_R   0.147909 0.502368 0.504124 0.234306
C33   C     C_R   0.708077 0.500783 0.496321 -0.032944
C34   C     C_R   0.291922 0.500783 0.503678 -0.032944
C35   C     C_R   0.964166 0.502723 0.635053 -0.092809
C36   C     C_R   0.035834 0.502722 0.364944 -0.092809
C37   C     C_R   0.036818 0.503803 0.637145 -0.094906
C38   C     C_R   0.963181 0.503802 0.362852 -0.094904
C39   C     C_R   0.072276 0.503115 0.502082 0.004934
C40   C     C_R   0.927724 0.503115 0.497916 0.004935
Cu1   Cu    Cu3+1 0.500000 0.573360 0.500000 0.979009
Cu2   Cu    Cu3+1 0.500000 0.426640 0.500000 0.979066
H1    H     H_    0.716687 0.619512 0.488433 0.140623
H2    H     H_    0.283313 0.619512 0.511557 0.140622
H3    H     H_    0.280998 0.382560 0.502061 0.154246
H4    H     H_    0.719002 0.382560 0.497946 0.154246
H5    H     H_    0.842646 0.620300 0.486670 0.119954
H6    H     H_    0.157353 0.620300 0.513319 0.119955
H7    H     H_    0.155036 0.384221 0.497189 0.121390
H8    H     H_    0.844964 0.384221 0.502817 0.121389
H9    H     H_    0.419328 0.827556 0.334546 0.147557
H10   H     H_    0.572655 0.172071 0.681005 0.151433
H11   H     H_    0.580672 0.827558 0.665455 0.147557
H12   H     H_    0.427345 0.172069 0.318994 0.151432
H13   H     H_    0.512048 0.932535 0.737075 0.128777
H14   H     H_    0.488686 0.066322 0.262467 0.126081
H15   H     H_    0.487952 0.932532 0.262925 0.128777
H16   H     H_    0.511313 0.066325 0.737532 0.126081
N1    N     N_R   0.500000 0.683620 0.500000 -0.198111
N2    N     N_R   0.500000 0.316380 0.500000 -0.207239
O1    O     O_R   0.400190 0.561980 0.499980 -0.577867
O2    O     O_R   0.599810 0.438020 0.500020 -0.559785
O3    O     O_R   0.599810 0.561980 0.500020 -0.577866
O4    O     O_R   0.400190 0.438020 0.499980 -0.559785
O5    O     O_R   0.500000 0.561940 0.288400 -0.556006
O6    O     O_R   0.500000 0.438060 0.711600 -0.581041
O7    O     O_R   0.500000 0.561940 0.711600 -0.556007
O8    O     O_R   0.500000 0.438060 0.288400 -0.581041
C41   C     C_2   0.927145 0.497834 0.777734 0.329385
H17   H     H_    0.950091 0.468104 0.870064 0.067245
O9    O     O_2   0.871869 0.528038 0.795305 -0.522991
C42   C     C_2   0.072855 0.497831 0.222264 0.329386
H18   H     H_    0.049909 0.468101 0.129932 0.067246
O10   O     O_2   0.128131 0.528035 0.204693 -0.522990
C43   C     C_2   0.074860 0.508767 0.781960 0.330933
H19   H     H_    0.052549 0.538539 0.872924 0.070433
O11   O     O_2   0.130285 0.478604 0.802786 -0.521987
C44   C     C_2   0.925139 0.508763 0.218038 0.330931
H20   H     H_    0.947449 0.538536 0.127074 0.070433
O12   O     O_2   0.869715 0.478599 0.197212 -0.521988
N3    N     N_2   0.411326 0.682631 0.308968 -0.373956
H21   H     H_    0.360293 0.691816 0.331875 0.230424
C45   C     C_3   0.424880 0.692122 0.153614 -0.677261
H22   H     H_    0.411047 0.748488 0.117165 0.198494
H23   H     H_    0.393540 0.652355 0.088252 0.234507
H24   H     H_    0.480083 0.681946 0.131535 0.238891
N4    N     N_2   0.582759 0.317504 0.703097 -0.375567
H25   H     H_    0.559320 0.323703 0.803356 0.248223
C46   C     C_3   0.653702 0.294081 0.719725 -0.717725
H26   H     H_    0.657645 0.246664 0.796392 0.210522
H27   H     H_    0.684855 0.339803 0.766689 0.246652
H28   H     H_    0.675082 0.278380 0.611454 0.226373
N5    N     N_2   0.588674 0.682633 0.691033 -0.373956
H29   H     H_    0.639707 0.691818 0.668128 0.230424
C47   C     C_3   0.575118 0.692126 0.846386 -0.677261
H30   H     H_    0.588951 0.748492 0.882837 0.198495
H31   H     H_    0.606458 0.652359 0.911749 0.234507
H32   H     H_    0.519915 0.681950 0.868463 0.238890
N6    N     N_2   0.417242 0.317502 0.296902 -0.375567
H33   H     H_    0.440681 0.323700 0.196644 0.248221
C48   C     C_3   0.346298 0.294080 0.280274 -0.717724
H34   H     H_    0.342355 0.246661 0.203607 0.210522
H35   H     H_    0.315146 0.339802 0.233309 0.246652
H36   H     H_    0.324918 0.278380 0.388545 0.226373

loop_
_geom_bond_atom_site_label_1
_geom_bond_atom_site_label_2
_ccdc_geom_bond_type
C15   C18   A    
C14   H14   S    
N4    H25   S    
C11   C18   S    
N5    H29   S    
C25   H3    S    
Cu1   Cu2   S    
C20   O7    A    
C47   H30   S    
Cu1   O1    S    
C4    C8    A    
N3    H21   S    
C47   H32   S    
Cu1   O7    S    
C4    N4    S    
C29   H7    S    
C7    C11   A    
C48   H34   S    
C13   C18   A    
C20   O6    A    
C35   C37   A    
C29   C32   A    
C3    C7    A    
C30   C31   A    
C44   O12   D    
C23   H1    S    
C31   C40   S    
C32   C39   S    
C41   O9    D    
N6    H33   S    
C16   C17   A    
C23   C33   A    
C12   C17   S    
C3    N3    S    
C23   C27   A    
C46   H27   S    
Cu2   O2    S    
C25   C34   A    
C30   H8    S    
N5    C47   S    
C21   C22   T    
Cu2   O8    S    
C15   H15   S    
C14   C17   A    
N3    C45   S    
C1    C34   S    
C25   C29   A    
C5    N1    A    
C27   C31   A    
C6    N2    A    
C28   C32   A    
Cu1   N1    S    
C42   O10   D    
Cu2   N2    S    
C44   H20   S    
Cu1   O5    S    
C38   C44   S    
C24   C34   A    
C43   H19   S    
C5    C9    A    
C9    C11   A    
C26   C33   A    
C45   H22   S    
C8    C12   A    
C4    N2    A    
C19   O8    A    
C16   H16   S    
C46   H28   S    
C43   O11   D    
C10   C12   A    
C2    C33   S    
C45   H23   S    
C20   C22   S    
C26   C30   A    
C48   H36   S    
N4    C46   S    
C24   H2    S    
C9    H11   S    
Cu1   O3    S    
C1    O4    A    
Cu2   O4    S    
C2    O3    A    
C27   H5    S    
C8    H10   S    
C28   H6    S    
N6    C48   S    
C36   C39   A    
C24   C28   A    
C42   H18   S    
C1    O1    A    
C6    C10   A    
C5    N5    S    
C47   H31   S    
C6    N6    S    
C36   C38   A    
C35   C40   A    
C7    H9    S    
C37   C39   A    
C38   C40   A    
C19   O5    A    
C37   C43   S    
C41   H17   S    
C10   H12   S    
C26   H4    S    
C2    O2    A    
C45   H24   S    
C35   C41   S    
C48   H35   S    
C13   C16   A    
Cu2   O6    S    
C14   C15   A    
C13   H13   S    
C46   H26   S    
C36   C42   S    
C19   C21   S    
C3    N1    A    
