data_mof_unit_34478.cif
_audit_creation_date              2012-12-10T17:22:26-0500
_audit_creation_method            fapswitch 2.2
_symmetry_space_group_name_H-M    P1
_symmetry_Int_Tables_number       1
_space_group_crystal_system       triclinic
_cell_length_a                    18.759464
_cell_length_b                    19.025093
_cell_length_c                    18.244729
_cell_angle_alpha                 108.622182
_cell_angle_beta                  108.500733
_cell_angle_gamma                 109.663778
_cell_volume                      5110.28432871

loop_
_atom_site_label
_atom_site_type_symbol
_atom_type_description
_atom_site_fract_x
_atom_site_fract_y
_atom_site_fract_z
_atom_type_partial_charge
C1    C     C_R   0.382509 0.381746 0.504885 0.810949
C2    C     C_3   0.812559 0.505411 0.810913 0.018864
C3    C     C_3   0.849929 0.564446 0.772725 -0.111176
C4    C     C_3   0.755978 0.531485 0.848679 -0.030313
C5    C     C_R   0.386726 0.383591 0.676174 -0.026839
C6    C     C_R   0.381286 0.383047 0.752311 0.112066
C7    C     C_R   0.302398 0.327952 0.742220 -0.019482
C8    C     C_R   0.235265 0.269629 0.657789 -0.170695
C9    C     C_R   0.243925 0.261492 0.581870 0.031934
C10   C     C_R   0.316187 0.323321 0.588518 -0.036381
C11   C     C_R   0.178860 0.192760 0.498995 -0.176719
C12   C     C_R   0.619017 0.498677 0.621086 0.815729
C13   C     C_R   0.168714 0.198614 0.420754 0.025114
C14   C     C_R   0.234280 0.266259 0.426082 0.057562
C15   C     C_R   0.311980 0.321544 0.507146 -0.163179
C16   C     C_R   0.094756 0.139710 0.337404 -0.197034
C17   C     C_R   0.084141 0.147363 0.261568 0.128098
C18   C     C_R   0.145134 0.220168 0.269078 0.055381
C19   C     C_R   0.219693 0.278406 0.350498 -0.204481
C20   C     C_R   0.222678 0.483206 0.395482 -0.137724
C21   C     C_R   0.152660 0.484151 0.406035 -0.140066
C22   C     C_R   0.091784 0.491056 0.345774 -0.140989
C23   C     C_R   0.620126 0.619228 0.498813 0.864194
C24   C     C_R   0.100755 0.497335 0.274819 -0.162161
C25   C     C_R   0.172130 0.497782 0.263087 0.102588
C26   C     C_R   0.233635 0.490401 0.324430 0.151816
C27   C     C_R   0.186280 0.508838 0.194366 -0.211404
C28   C     C_R   0.260128 0.509675 0.187056 -0.003207
C29   C     C_R   0.297075 0.470029 0.226378 -0.013304
C30   C     C_R   0.299623 0.481582 0.308017 -0.171035
C31   C     C_R   0.291340 0.536300 0.133265 0.238738
C32   C     C_R   0.324834 0.490938 0.090459 0.066190
C33   C     C_R   0.340033 0.432095 0.112986 -0.264513
C34   C     C_R   0.375317 0.494788 0.378223 0.815406
C35   C     C_R   0.327197 0.420741 0.180851 0.037564
C36   C     C_R   0.613192 0.776062 0.510039 0.167751
C37   C     C_R   0.631231 0.859970 0.561326 0.144411
C38   C     C_R   0.705702 0.928664 0.578310 -0.017516
C39   C     C_R   0.763430 0.911577 0.552800 -0.216638
C40   C     C_R   0.754584 0.829244 0.520513 0.002393
C41   C     C_R   0.682711 0.761612 0.507106 -0.001414
C42   C     C_R   0.816808 0.813751 0.501881 -0.147718
C43   C     C_R   0.818203 0.736901 0.486935 0.068589
C44   C     C_R   0.756198 0.674636 0.491621 0.070184
C45   C     C_3   0.677405 0.407416 0.662185 0.029873
C46   C     C_R   0.685285 0.684452 0.495595 -0.191097
C47   C     C_R   0.882075 0.722026 0.470558 -0.227419
C48   C     C_R   0.888910 0.650549 0.466650 -0.114816
C49   C     C_R   0.833807 0.592667 0.481537 0.224513
C50   C     C_R   0.768624 0.605664 0.494714 -0.235939
C51   C     C_R   0.999643 0.381035 0.878115 0.940391
C52   C     C_R   0.878004 0.501598 0.877122 0.818700
C53   C     C_R   0.995688 0.618529 0.118078 0.844139
C54   C     C_R   0.118157 0.503691 0.122238 0.928385
C55   C     C_R   0.000572 0.880782 0.379957 0.888337
C56   C     C_3   0.754014 0.413021 0.732809 -0.461016
C57   C     C_R   0.118574 0.118853 0.496733 0.830205
C58   C     C_R   0.000835 0.120770 0.619374 0.852038
C59   C     C_R   0.881118 0.879133 0.499593 0.831038
C60   C     C_R   0.004272 0.391990 0.724454 -0.145278
C61   C     C_R   0.016800 0.402554 0.656563 -0.140668
C62   C     C_R   0.032912 0.346497 0.602894 -0.124575
C63   C     C_R   0.031572 0.276997 0.613790 -0.140724
C64   C     C_R   0.015260 0.263133 0.680145 0.099530
C65   C     C_R   0.008792 0.324978 0.740775 0.081477
C66   C     C_R   0.002163 0.187717 0.685401 -0.106983
C67   C     C_3   0.773974 0.555247 0.696419 -0.439885
C68   C     C_R   0.988465 0.175373 0.752804 0.090896
C69   C     C_R   0.002399 0.244561 0.824148 0.098496
C70   C     C_R   0.005937 0.317212 0.814819 -0.158570
C71   C     C_R   0.960851 0.095147 0.750297 -0.166124
C72   C     C_R   0.950610 0.084309 0.819169 0.216086
C73   C     C_R   0.979367 0.156858 0.896563 -0.230364
C74   C     C_R   0.011006 0.237092 0.901415 -0.030669
C75   C     C_R   0.158304 0.765438 0.274868 0.158808
C76   C     C_R   0.228841 0.847049 0.308826 0.176623
C77   C     C_R   0.215309 0.918464 0.328801 0.084819
C78   C     C_3   0.692378 0.540554 0.780108 -0.329330
C79   C     C_R   0.135231 0.907458 0.324613 -0.046518
C80   C     C_R   0.069441 0.826402 0.298547 0.004385
C81   C     C_R   0.074782 0.755893 0.254357 -0.023965
C82   C     C_R   0.996677 0.812924 0.311651 -0.112112
C83   C     C_R   0.921720 0.732868 0.262651 0.052717
C84   C     C_R   0.918544 0.666667 0.196367 0.095443
C85   C     C_R   0.996336 0.679564 0.191445 -0.188876
C86   C     C_R   0.848528 0.718792 0.275672 -0.170372
C87   C     C_R   0.772500 0.641956 0.221942 -0.111162
C88   C     C_R   0.766726 0.578591 0.152695 -0.167599
C89   C     C_3   0.687253 0.498882 0.688823 0.045687
C90   C     C_R   0.837845 0.590711 0.138836 -0.163571
H1    H     H_    0.685699 0.389212 0.602175 0.139120
H2    H     H_    0.779041 0.617358 0.703953 0.221371
H3    H     H_    0.174698 0.229575 0.651593 0.187098
H4    H     H_    0.042453 0.086230 0.327813 0.224179
H5    H     H_    0.265395 0.333923 0.354165 0.163079
H6    H     H_    0.360935 0.394014 0.076219 0.182266
H7    H     H_    0.265513 0.472795 0.441197 0.152360
H8    H     H_    0.144839 0.478032 0.460364 0.138004
H9    H     H_    0.037238 0.491545 0.353984 0.136539
H10   H     H_    0.051867 0.503761 0.231356 0.150516
H11   H     H_    0.731552 0.366886 0.755925 0.214362
H12   H     H_    0.818367 0.964552 0.563475 0.193606
H13   H     H_    0.928409 0.765659 0.461484 0.158716
H14   H     H_    0.939331 0.642909 0.454589 0.148878
H15   H     H_    0.729869 0.561879 0.509744 0.155532
H16   H     H_    0.982902 0.152577 0.955225 0.139274
H17   H     H_    0.989679 0.436308 0.762180 0.139183
H18   H     H_    0.014414 0.454721 0.645899 0.133637
H19   H     H_    0.792458 0.393861 0.703207 0.140954
H20   H     H_    0.044271 0.355595 0.551191 0.134663
H21   H     H_    0.042721 0.234275 0.569168 0.140675
H22   H     H_    0.944809 0.039421 0.693823 0.127101
H23   H     H_    0.706456 0.519833 0.108721 0.134890
H24   H     H_    0.775448 0.525869 0.633905 0.131895
H25   H     H_    0.848508 0.766915 0.326787 0.140602
H26   H     H_    0.717247 0.632442 0.232753 0.140576
H27   H     H_    0.825354 0.539415 0.081079 0.177038
H28   H     H_    0.886014 0.540062 0.743458 0.099289
H29   H     H_    0.712507 0.608885 0.800692 0.222117
H30   H     H_    0.630136 0.513361 0.778637 0.171092
H31   H     H_    0.718437 0.477969 0.857032 0.176196
O1    O     O_R   0.408690 0.356690 0.448570 -0.624612
O2    O     O_R   0.049540 0.460090 0.906170 -0.590496
O3    O     O_R   0.853530 0.448360 0.905250 -0.630290
O4    O     O_R   0.956970 0.551730 0.905180 -0.662078
O5    O     O_R   0.945170 0.540000 0.088470 -0.650962
O6    O     O_R   0.048600 0.643370 0.088400 -0.613203
O7    O     O_R   0.037740 0.448360 0.089460 -0.631006
O8    O     O_R   0.141170 0.551730 0.089390 -0.640166
O9    O     O_R   0.948510 0.908450 0.356890 -0.585348
O10   O     O_R   0.052500 0.908420 0.460860 -0.642353
O11   O     O_R   0.039610 0.091640 0.448030 -0.638448
O12   O     O_R   0.408090 0.460090 0.551440 -0.592675
O13   O     O_R   0.143600 0.091610 0.551990 -0.615613
O14   O     O_R   0.947500 0.091600 0.539170 -0.617172
O15   O     O_R   0.051490 0.091570 0.643140 -0.600077
O16   O     O_R   0.856400 0.908420 0.448030 -0.621800
O17   O     O_R   0.960390 0.908390 0.552000 -0.626502
O18   O     O_R   0.592400 0.448300 0.540670 -0.651215
O19   O     O_R   0.591800 0.551700 0.643540 -0.585856
O20   O     O_R   0.591910 0.539910 0.448560 -0.618069
O21   O     O_R   0.591310 0.643310 0.551430 -0.621134
O22   O     O_R   0.408200 0.448300 0.356460 -0.635705
O23   O     O_R   0.407600 0.551700 0.459330 -0.640567
O24   O     O_R   0.946100 0.356720 0.906240 -0.633435
Zn1   Zn    Zn3+2 0.500400 0.430960 0.431310 0.960124
Zn2   Zn    Zn3+2 0.499600 0.569040 0.568690 0.993739
Zn3   Zn    Zn3+2 0.928290 0.431030 0.997370 0.926996
Zn4   Zn    Zn3+2 0.066410 0.569060 0.997270 0.942429
Zn5   Zn    Zn3+2 0.930570 0.000030 0.430590 0.974863
Zn6   Zn    Zn3+2 0.069430 0.999990 0.569430 0.970669
C91   C     C_3   0.805070 0.611273 0.940524 -0.412588
C92   C     C_3   0.744214 0.624158 0.976229 -0.863638
H32   H     H_    0.700493 0.639871 0.935616 0.273052
H33   H     H_    0.704877 0.565922 0.976729 0.250472
H34   H     H_    0.782359 0.677726 0.044426 0.276719
H35   H     H_    0.852831 0.604708 0.988194 0.202974
H36   H     H_    0.840344 0.669707 0.938585 0.264017
C93   C     C_2   0.914649 0.657034 0.840597 0.377686
H37   H     H_    0.979077 0.674192 0.885413 0.106631
O25   O     O_2   0.897444 0.714233 0.844848 -0.593959
C94   C     C_2   0.129148 0.237374 0.193359 0.305066
H38   H     H_    0.092796 0.186193 0.126375 0.079188
O26   O     O_2   0.153016 0.309625 0.204666 -0.618296
C95   C     C_2   0.467540 0.446760 0.691166 0.428981
H39   H     H_    0.501004 0.425662 0.659122 0.031476
O27   O     O_2   0.494516 0.522520 0.735322 -0.565721
C96   C     C_3   0.459857 0.439699 0.843828 -0.436764
C97   C     C_3   0.459651 0.520946 0.894497 -0.773457
H40   H     H_    0.478049 0.566469 0.869551 0.299277
H41   H     H_    0.506839 0.551877 0.965171 0.225564
H42   H     H_    0.394950 0.506943 0.887811 0.269474
H43   H     H_    0.462697 0.404352 0.881709 0.171338
H44   H     H_    0.521342 0.457257 0.841196 0.210003
C98   C     C_2   0.288541 0.327867 0.818372 0.434733
H45   H     H_    0.340792 0.365955 0.884853 0.057408
O28   O     O_2   0.217390 0.284489 0.807742 -0.560747
C99   C     C_3   0.004485 0.078772 0.174722 -0.425326
C100  C     C_3   0.025542 0.019608 0.116950 -0.795768
H46   H     H_    0.965401 0.967798 0.056245 0.257921
H47   H     H_    0.055311 0.990753 0.152072 0.300903
H48   H     H_    0.070778 0.054054 0.097936 0.226925
H49   H     H_    0.954293 0.039360 0.185948 0.231150
H50   H     H_    0.974683 0.107402 0.139040 0.187955
C101  C     C_3   0.588072 0.332197 0.631203 -0.385431
C102  C     C_3   0.565269 0.321569 0.702059 -0.906953
H51   H     H_    0.601308 0.295582 0.735451 0.258007
H52   H     H_    0.576688 0.381188 0.751669 0.237996
H53   H     H_    0.495758 0.275160 0.670139 0.248926
H54   H     H_    0.535810 0.334749 0.584050 0.202443
H55   H     H_    0.585800 0.272178 0.592495 0.207240
C103  C     C_3   0.310605 0.623661 0.140902 -0.341858
C104  C     C_3   0.405419 0.680314 0.169517 -0.932504
H56   H     H_    0.448276 0.664025 0.210308 0.259748
H57   H     H_    0.415449 0.673324 0.111411 0.283335
H58   H     H_    0.424832 0.748015 0.208046 0.258645
H59   H     H_    0.269945 0.617575 0.077363 0.265251
H60   H     H_    0.296344 0.657419 0.191311 0.192484
C105  C     C_2   0.342857 0.501482 0.020494 0.426059
H61   H     H_    0.392404 0.489494 0.010550 0.015314
O29   O     O_2   0.301345 0.521025 0.972166 -0.561949
C106  C     C_2   0.326919 0.344847 0.187779 0.501331
H62   H     H_    0.296176 0.319692 0.221552 0.101097
O30   O     O_2   0.360832 0.309006 0.155382 -0.600758
C107  C     C_3   0.841257 0.516430 0.484451 -0.414226
C108  C     C_3   0.911919 0.504327 0.466876 -0.905941
H63   H     H_    0.900841 0.495488 0.400266 0.259613
H64   H     H_    0.976237 0.559656 0.517469 0.257498
H65   H     H_    0.911005 0.446735 0.470107 0.253707
H66   H     H_    0.853440 0.522321 0.550380 0.197305
H67   H     H_    0.778657 0.458088 0.435017 0.212103
C109  C     C_3   0.519977 0.707680 0.446145 -0.373258
C110  C     C_3   0.472149 0.735516 0.386522 -0.939613
H68   H     H_    0.458624 0.783986 0.422826 0.254605
H69   H     H_    0.511081 0.762467 0.357880 0.278073
H70   H     H_    0.409380 0.679895 0.333117 0.269356
H71   H     H_    0.515921 0.649192 0.401638 0.201320
H72   H     H_    0.486075 0.691692 0.482908 0.242039
C111  C     C_3   0.572432 0.875400 0.598327 -0.450344
C112  C     C_3   0.615885 0.909765 0.697965 -0.869823
H73   H     H_    0.630478 0.862912 0.713984 0.269957
H74   H     H_    0.676666 0.970646 0.731978 0.251629
H75   H     H_    0.571921 0.920656 0.723316 0.253225
H76   H     H_    0.552828 0.919187 0.580907 0.188326
H77   H     H_    0.511820 0.816571 0.571113 0.223613
C113  C     C_2   0.722217 0.017970 0.618022 0.374396
H78   H     H_    0.679260 0.033879 0.638846 0.080255
O31   O     O_2   0.784257 0.075778 0.627123 -0.590574
C114  C     C_3   0.914280 0.995033 0.808023 -0.393732
C115  C     C_3   0.901573 0.987081 0.884273 -0.865544
H79   H     H_    0.964601 0.021708 0.944656 0.257242
H80   H     H_    0.858538 0.012217 0.896331 0.256678
H81   H     H_    0.871419 0.919113 0.867724 0.272785
H82   H     H_    0.850660 0.954248 0.747640 0.215324
H83   H     H_    0.957576 0.969414 0.797882 0.218839
C116  C     C_2   0.069143 0.310096 0.989996 0.428693
H84   H     H_    0.060460 0.308978 0.045741 0.101355
O32   O     O_2   0.131377 0.369760 0.002165 -0.576215
C117  C     C_3   0.175210 0.694885 0.281931 -0.390816
C118  C     C_3   0.216318 0.713836 0.378009 -0.894008
H85   H     H_    0.272025 0.778898 0.421598 0.252936
H86   H     H_    0.168010 0.707429 0.401824 0.266583
H87   H     H_    0.239528 0.668413 0.383675 0.262740
H88   H     H_    0.115057 0.634197 0.246343 0.185864
H89   H     H_    0.215993 0.684909 0.252034 0.202864
C119  C     C_3   0.315422 0.856239 0.317023 -0.432528
C120  C     C_3   0.316163 0.840657 0.229890 -0.870574
H90   H     H_    0.268875 0.773772 0.178812 0.262623
H91   H     H_    0.299549 0.883134 0.206780 0.258578
H92   H     H_    0.381297 0.853393 0.238591 0.251234
H93   H     H_    0.369445 0.919559 0.370222 0.210850
H94   H     H_    0.331420 0.812165 0.337106 0.214874
C121  C     C_3   0.284670 0.005813 0.354285 -0.419020
C122  C     C_3   0.335017 0.062178 0.454023 -0.878483
H95   H     H_    0.291539 0.070965 0.481113 0.259004
H96   H     H_    0.368452 0.033269 0.485598 0.257145
H97   H     H_    0.383931 0.125539 0.470568 0.255086
H98   H     H_    0.330407 0.002022 0.329107 0.222781
H99   H     H_    0.256073 0.037750 0.322899 0.202428
C123  C     C_2   0.112524 0.974370 0.325716 0.355624
H100  H     H_    0.158878 0.040178 0.372017 0.065692
O33   O     O_2   0.042062 0.955456 0.270851 -0.592543

loop_
_geom_bond_atom_site_label_1
_geom_bond_atom_site_label_2
_ccdc_geom_bond_type
C17   C99   S    
C8    C9    A    
O22   Zn1   S    
C66   C68   A    
C87   C88   A    
O2    Zn4   S    
O18   Zn1   S    
C114  H83   S    
C95   H39   S    
C16   H4    S    
C51   O2    A    
C73   C74   A    
C57   O11   A    
C75   C117  S    
C117  C118  S    
C43   C44   A    
O24   Zn3   S    
C112  H74   S    
C99   C100  S    
C73   H16   S    
C27   C54   S    
C7    C8    A    
C98   O28   D    
C119  H94   S    
C110  H68   S    
C96   H44   S    
O3    Zn3   S    
C34   O23   A    
C29   C30   A    
C106  O30   D    
C83   C84   A    
C79   C123  S    
C18   C94   S    
C36   C37   A    
C67   H24   S    
C56   H11   S    
C32   C105  S    
C10   C15   A    
C5    C6    A    
C108  H64   S    
C110  H70   S    
C11   C13   A    
C109  H71   S    
C51   O24   A    
C65   C70   A    
C48   H14   S    
C67   C89   S    
O11   Zn5   S    
C116  H84   S    
C115  H81   S    
C18   C19   A    
C97   H40   S    
C114  H82   S    
C49   C50   A    
C61   H18   S    
C1    O1    A    
C67   H2    S    
C122  H96   S    
C53   O6    A    
C111  H76   S    
C91   H35   S    
O10   Zn6   S    
C121  H98   S    
C58   C66   S    
C20   H7    S    
C93   H37   S    
C45   C56   S    
C16   C17   A    
C104  H57   S    
C7    C98   S    
O9    Zn5   S    
C50   H15   S    
C41   C46   A    
C93   O25   D    
C23   O21   A    
C117  H88   S    
C1    C15   S    
C51   C70   S    
C5    C95   S    
C92   H33   S    
C45   C89   S    
C9    C10   A    
C99   H49   S    
C104  H56   S    
C81   C85   A    
C38   C113  S    
C100  H48   S    
C104  H58   S    
C77   C79   A    
C24   C25   A    
C105  H61   S    
C95   O27   D    
C23   C46   S    
C24   H10   S    
C13   C14   A    
C3    C93   S    
C97   H41   S    
C36   C41   A    
C115  H79   S    
C84   C90   A    
O23   Zn2   S    
C1    O12   A    
O21   Zn2   S    
O19   Zn2   S    
C118  H86   S    
C112  H73   S    
C114  C115  S    
C44   C46   A    
C101  H55   S    
C94   O26   D    
C119  H93   S    
C120  H91   S    
C78   C89   S    
C96   H43   S    
C4    C91   S    
C91   H36   S    
C34   O22   A    
C47   H13   S    
C72   C114  S    
C30   C34   S    
C47   C48   A    
C96   C97   S    
C12   C89   S    
C101  H54   S    
C77   C121  S    
C76   C77   A    
C72   C73   A    
C123  O33   D    
C106  H62   S    
C111  C112  S    
C76   C119  S    
O5    Zn3   S    
C108  H63   S    
O7    Zn3   S    
C59   O17   A    
C58   O15   A    
C25   C26   A    
C107  C108  S    
C54   O7    A    
C31   C103  S    
C118  H87   S    
C111  H77   S    
C79   C80   A    
C32   C33   A    
C60   C61   A    
C92   H34   S    
C64   C66   A    
C37   C38   A    
C2    C4    S    
C75   C76   A    
C90   H27   S    
O8    Zn4   S    
C122  H95   S    
C2    C52   S    
C3    H28   S    
C121  H99   S    
C45   H1    S    
C98   H45   S    
C62   H20   S    
C120  H90   S    
C55   O9    A    
C71   H22   S    
C62   C63   A    
C12   O19   A    
C17   C18   A    
C12   O18   A    
C69   C74   A    
C11   C57   S    
C103  H59   S    
C84   C85   A    
C55   C82   S    
C115  H80   S    
C9    C11   A    
C87   H26   S    
C60   H17   S    
O4    Zn4   S    
O20   Zn1   S    
C36   C109  S    
O12   Zn2   S    
C80   C82   A    
C40   C41   A    
C88   C90   A    
C60   C65   A    
C113  H78   S    
C43   C47   A    
C103  H60   S    
C28   C31   A    
C58   O14   A    
C97   H42   S    
C22   C24   A    
C57   O13   A    
C25   C27   A    
C42   C43   A    
C37   C111  S    
C102  H52   S    
C33   H6    S    
C56   H19   S    
C39   C40   A    
O15   Zn6   S    
C19   H5    S    
C39   H12   S    
C94   H38   S    
C120  H92   S    
C44   C50   A    
C54   O8    A    
C78   H30   S    
C119  C120  S    
C28   C29   A    
C22   H9    S    
C86   C87   A    
C123  H100  S    
C6    C96   S    
C14   C19   A    
C68   C69   A    
C31   C32   A    
C3    C67   S    
C8    H3    S    
C49   C107  S    
C80   C81   A    
C42   C59   S    
C52   O4    A    
C35   C106  S    
C26   C30   A    
C6    C7    A    
C75   C81   A    
O17   Zn6   S    
C4    C78   S    
O14   Zn5   S    
C29   C35   A    
C55   O10   A    
C122  H97   S    
C117  H89   S    
C103  C104  S    
C102  H53   S    
C2    C3    S    
C92   H32   S    
C110  H69   S    
C5    C10   A    
C2    C56   S    
O6    Zn4   S    
C21   H8    S    
C52   O3    A    
C108  H65   S    
C45   C101  S    
C101  C102  S    
C121  C122  S    
C20   C26   A    
C107  H66   S    
C68   C71   A    
C48   C49   A    
O13   Zn6   S    
C38   C39   A    
C64   C65   A    
C40   C42   A    
C118  H85   S    
C33   C35   A    
C116  O32   D    
C4    H31   S    
C78   H29   S    
O1    Zn1   S    
C107  H67   S    
C63   H21   S    
C61   C62   A    
O16   Zn5   S    
C69   C70   A    
C53   O5    A    
C63   C64   A    
C71   C72   A    
C83   C86   A    
C20   C21   A    
C82   C83   A    
C13   C16   A    
C23   O20   A    
C27   C28   A    
C105  O29   D    
C100  H46   S    
C59   O16   A    
C14   C15   A    
C86   H25   S    
C53   C85   S    
C91   C92   S    
C100  H47   S    
C102  H51   S    
C21   C22   A    
C74   C116  S    
C112  H75   S    
C99   H50   S    
C113  O31   D    
C88   H23   S    
C109  C110  S    
C109  H72   S    
