data_mof_unit_12543.cif
_audit_creation_date              2012-12-10T17:08:47-0500
_audit_creation_method            fapswitch 2.2
_symmetry_space_group_name_H-M    P1
_symmetry_Int_Tables_number       1
_space_group_crystal_system       triclinic
_cell_length_a                    27.806274
_cell_length_b                    11.022529
_cell_length_c                    9.809853
_cell_angle_alpha                 111.110552
_cell_angle_beta                  98.162618
_cell_angle_gamma                 91.297191
_cell_volume                      2767.59778758

loop_
_atom_site_label
_atom_site_type_symbol
_atom_type_description
_atom_site_fract_x
_atom_site_fract_y
_atom_site_fract_z
_atom_type_partial_charge
C1    C     C_R   0.496464 0.254010 0.440548 0.870234
C2    C     C_R   0.503536 0.745990 0.559452 0.870237
C3    C     C_R   0.101660 0.497148 0.494094 -0.111640
C4    C     C_R   0.898352 0.502860 0.506218 -0.111707
C5    C     C_R   0.125324 0.382956 0.481401 -0.017708
C6    C     C_R   0.874692 0.617061 0.518927 -0.017659
C7    C     C_R   0.097790 0.266867 0.453397 -0.200076
C8    C     C_R   0.902232 0.733176 0.547072 -0.200287
C9    C     C_R   0.129071 0.609983 0.502417 -0.111635
C10   C     C_R   0.870931 0.389987 0.497755 -0.111514
C11   C     C_R   0.354567 0.497758 0.502763 -0.084130
C12   C     C_R   0.645433 0.502229 0.497245 -0.084112
C13   C     C_R   0.972936 0.387422 0.495248 -0.011541
C14   C     C_R   0.027081 0.612621 0.505207 -0.011723
C15   C     C_R   0.976773 0.618569 0.519501 0.036854
C16   C     C_R   0.023247 0.381473 0.480984 0.036795
C17   C     C_R   0.949448 0.502519 0.504947 0.068180
C18   C     C_R   0.050569 0.497511 0.495469 0.068141
C19   C     C_R   0.946037 0.285384 0.512497 -0.303474
C20   C     C_R   0.053972 0.714665 0.487936 -0.302990
C21   C     C_R   0.895286 0.280791 0.502986 0.478549
C22   C     C_R   0.104710 0.719173 0.497224 0.478247
C23   C     C_R   0.407462 0.499546 0.501104 0.826836
C24   C     C_R   0.592538 0.500452 0.498896 0.826847
C25   C     C_R   0.047339 0.263163 0.444305 -0.025154
C26   C     C_R   0.952686 0.736882 0.556237 -0.025139
C27   C     C_2   0.494541 0.114590 0.406921 -0.346686
C28   C     C_2   0.505459 0.885410 0.593079 -0.346689
C29   C     C_2   0.500892 0.069586 0.516610 -0.148127
C30   C     C_2   0.499107 0.930413 0.483390 -0.148128
C31   C     C_2   0.504273 0.510576 0.081332 -0.073721
C32   C     C_2   0.495727 0.489424 0.918668 -0.073729
C33   C     C_R   0.176001 0.385007 0.486729 0.575964
C34   C     C_R   0.824010 0.614990 0.513482 0.575949
C35   C     C_R   0.180109 0.607823 0.509751 0.599288
C36   C     C_R   0.819888 0.392124 0.490279 0.599335
C37   C     C_R   0.272275 0.487011 0.375626 -0.191414
C38   C     C_R   0.727719 0.512915 0.624393 -0.191460
C39   C     C_R   0.322223 0.487299 0.374620 -0.209278
C40   C     C_R   0.677771 0.512637 0.625382 -0.209213
C41   C     C_R   0.335947 0.506236 0.631597 -0.333303
C42   C     C_R   0.664061 0.493791 0.368434 -0.333342
C43   C     C_R   0.285327 0.502235 0.631908 0.496057
C44   C     C_R   0.714683 0.497785 0.368143 0.496183
C45   C     C_R   0.253773 0.495639 0.503809 0.292065
C46   C     C_R   0.746229 0.504328 0.496235 0.292068
Cu1   Cu    Cu3+1 0.508480 0.521810 0.644910 0.944021
Cu2   Cu    Cu3+1 0.491520 0.478190 0.355090 0.944022
H1    H     H_    0.360621 0.517012 0.731763 0.159540
H2    H     H_    0.639390 0.483056 0.268275 0.159504
H3    H     H_    0.512059 0.951694 0.708160 0.152596
H4    H     H_    0.487940 0.048305 0.291839 0.152594
H5    H     H_    0.467211 0.417002 0.845608 0.155389
H6    H     H_    0.532789 0.582998 0.154392 0.155392
H7    H     H_    0.548100 0.622592 0.934541 0.189513
H8    H     H_    0.451900 0.377408 0.065459 0.189505
H9    H     H_    0.115298 0.176240 0.429303 0.184753
H10   H     H_    0.884724 0.823809 0.571205 0.184831
H11   H     H_    0.664518 0.519316 0.726272 0.170627
H12   H     H_    0.335470 0.480589 0.273713 0.170623
H13   H     H_    0.752251 0.519570 0.723426 0.155454
H14   H     H_    0.247737 0.480318 0.276589 0.155480
H15   H     H_    0.964061 0.210612 0.541551 0.170724
H16   H     H_    0.035954 0.789513 0.459021 0.170960
H17   H     H_    0.492523 0.864402 0.368114 0.181430
H18   H     H_    0.507477 0.135598 0.631886 0.181430
N1    N     N_R   0.202194 0.496743 0.502609 -0.452599
N2    N     N_R   0.797809 0.503224 0.497466 -0.452650
N3    N     N_2   0.478780 0.445430 0.137360 -0.284554
N4    N     N_2   0.521220 0.554570 0.862640 -0.284555
O1    O     O_R   0.504520 0.332330 0.577400 -0.579376
O2    O     O_R   0.495480 0.667670 0.422600 -0.579375
O3    O     O_R   0.490210 0.295500 0.332650 -0.571883
O4    O     O_R   0.509790 0.704500 0.667350 -0.571880
O5    O     O_R   0.437420 0.518430 0.622370 -0.581180
O6    O     O_R   0.562580 0.481570 0.377630 -0.581169
O7    O     O_R   0.423110 0.481600 0.377610 -0.578870
O8    O     O_R   0.576890 0.518400 0.622390 -0.578874
O9    O     O_2   0.198970 0.275913 0.474643 -0.570932
O10   O     O_2   0.801044 0.724093 0.525589 -0.570824
O11   O     O_2   0.792273 0.284426 0.475169 -0.479858
O12   O     O_2   0.207713 0.715486 0.524688 -0.480256
O13   O     O_3   0.265897 0.515514 0.758667 -0.570712
C47   C     C_3   0.280240 0.415898 0.811133 0.073863
H19   H     H_    0.317782 0.441011 0.875100 0.132938
H20   H     H_    0.278610 0.319161 0.719194 0.167792
C48   C     C_3   0.245898 0.403741 0.914022 -0.752066
H21   H     H_    0.208022 0.377520 0.852927 0.255145
H22   H     H_    0.256971 0.326537 0.957237 0.195175
H23   H     H_    0.247124 0.497706 0.008759 0.252146
O14   O     O_3   0.734125 0.484553 0.241413 -0.570683
C49   C     C_3   0.719761 0.584137 0.188917 0.073835
H24   H     H_    0.721344 0.680860 0.280844 0.167733
H25   H     H_    0.682235 0.558926 0.124855 0.132970
C50   C     C_3   0.754125 0.596406 0.086138 -0.751932
H26   H     H_    0.752951 0.502452 0.991424 0.252117
H27   H     H_    0.743032 0.673572 0.042881 0.195213
H28   H     H_    0.791985 0.622742 0.147332 0.255158
O15   O     O_3   0.869909 0.176754 0.516540 -0.534755
C51   C     C_3   0.879253 0.056604 0.410527 0.074947
H29   H     H_    0.911419 0.017642 0.457060 0.159506
H30   H     H_    0.885768 0.065165 0.304501 0.149097
C52   C     C_3   0.835348 0.959215 0.375030 -0.688342
H31   H     H_    0.803389 0.991489 0.319128 0.260680
H32   H     H_    0.843507 0.861630 0.300660 0.190859
H33   H     H_    0.826264 0.951800 0.478475 0.278418
O16   O     O_3   0.130046 0.823169 0.483500 -0.534814
C53   C     C_3   0.121039 0.943193 0.590417 0.075171
H34   H     H_    0.114938 0.934285 0.696627 0.148881
H35   H     H_    0.088730 0.982548 0.545146 0.159425
C54   C     C_3   0.164946 0.040375 0.624951 -0.688045
H36   H     H_    0.173596 0.048177 0.521246 0.278123
H37   H     H_    0.157049 0.137876 0.700194 0.190763
H38   H     H_    0.197087 0.007619 0.679485 0.261065
C55   C     C_1   0.022210 0.134201 0.374981 0.217579
N5    N     N_1   0.002441 0.030675 0.319024 -0.303194
C56   C     C_1   0.977825 0.865824 0.625711 0.217326
N6    N     N_1   0.997605 0.969330 0.681790 -0.303189

loop_
_geom_bond_atom_site_label_1
_geom_bond_atom_site_label_2
_ccdc_geom_bond_type
C48   H21   S    
C20   H16   S    
C27   C29   D    
C50   H26   S    
C43   O13   S    
C14   C18   A    
C54   H36   S    
C26   C56   S    
Cu2   N3    S    
C37   H14   S    
C50   H28   S    
C54   H37   S    
C1    O1    A    
C19   C21   A    
C47   H20   S    
C25   C55   S    
C21   O15   S    
C28   H3    S    
C9    C22   A    
C22   O16   S    
C8    C26   A    
C53   H34   S    
C3    C18   A    
Cu2   O6    S    
C51   H29   S    
C12   C42   A    
C34   O10   S    
O15   C51   S    
C19   H15   S    
C5    C33   A    
C45   N1    S    
O16   C53   S    
C47   C48   S    
C52   H33   S    
C2    O4    A    
C38   H13   S    
C8    H10   S    
C40   H11   S    
C41   C43   A    
C42   C44   A    
Cu2   O2    S    
C2    O2    A    
C41   H1    S    
C35   O12   S    
C44   C46   A    
C10   C21   A    
C13   C19   A    
C30   H17   S    
Cu1   Cu2   S    
C14   C20   A    
C47   H19   S    
C4    C6    A    
C34   N2    A    
O14   C49   S    
C5    C7    A    
C24   O6    A    
C15   C26   A    
C6    C8    A    
C49   C50   S    
C6    C34   A    
C10   C36   A    
Cu2   O7    S    
C12   C40   A    
Cu1   N4    S    
C46   N2    S    
C29   C30   S    
C3    C9    A    
O13   C47   S    
C35   N1    A    
C36   O11   S    
C49   H25   S    
C52   H32   S    
C23   O7    A    
C11   C39   A    
C43   C45   A    
Cu1   O1    S    
C44   O14   S    
C42   H2    S    
C4    C17   A    
C24   O8    A    
C20   C22   A    
C48   H22   S    
C13   C16   A    
C4    C10   A    
C32   H5    S    
C27   H4    S    
C33   N1    A    
C1    C27   S    
C51   H30   S    
C16   C25   A    
C15   C17   A    
C50   H27   S    
Cu2   O3    S    
C31   C32   S    
C33   O9    S    
Cu1   O4    S    
C23   O5    A    
C3    C5    A    
C32   N4    D    
C36   N2    A    
C12   C24   S    
C7    C25   A    
C53   C54   S    
C13   C17   A    
C1    O3    A    
C28   C30   D    
Cu1   O5    S    
C37   C39   A    
C56   N6    T    
C38   C40   A    
C39   H12   S    
C11   C23   S    
C49   H24   S    
C53   H35   S    
C11   C41   A    
C54   H38   S    
C51   C52   S    
C31   H6    S    
C38   C46   A    
H7    N4    S    
C29   H18   S    
C31   N3    D    
C16   C18   A    
H8    N3    S    
C48   H23   S    
C52   H31   S    
C9    C35   A    
C14   C15   A    
C2    C28   S    
Cu1   O8    S    
C37   C45   A    
C7    H9    S    
C55   N5    T    
