data_mof_unit_12509.cif
_audit_creation_date              2012-12-10T19:08:40-0500
_audit_creation_method            fapswitch 2.2
_symmetry_space_group_name_H-M    P1
_symmetry_Int_Tables_number       1
_space_group_crystal_system       triclinic
_cell_length_a                    12.990941
_cell_length_b                    13.574259
_cell_length_c                    27.693972
_cell_angle_alpha                 88.937217
_cell_angle_beta                  92.258499
_cell_angle_gamma                 85.522386
_cell_volume                      4863.78780986

loop_
_atom_site_label
_atom_site_type_symbol
_atom_type_description
_atom_site_fract_x
_atom_site_fract_y
_atom_site_fract_z
_atom_type_partial_charge
C1    C     C_R   0.480937 0.685230 0.499636 0.895488
C2    C     C_R   0.481161 0.581093 0.125826 -0.141451
C3    C     C_R   0.496179 0.495788 0.647063 -0.244108
C4    C     C_R   0.501659 0.502867 0.353146 -0.253188
C5    C     C_R   0.455096 0.581711 0.023998 0.004342
C6    C     C_R   0.475291 0.401846 0.975113 0.006965
C7    C     C_R   0.465049 0.400463 0.025930 -0.043186
C8    C     C_R   0.437886 0.581914 0.973155 -0.035427
C9    C     C_R   0.464597 0.490873 0.050453 0.021976
C10   C     C_R   0.458155 0.492486 0.948698 0.020383
C11   C     C_R   0.466862 0.669553 0.048931 -0.266359
C12   C     C_R   0.519081 0.314754 0.500365 0.891781
C13   C     C_R   0.506910 0.316039 0.950251 -0.258358
C14   C     C_R   0.473103 0.670871 0.099062 0.473974
C15   C     C_R   0.509962 0.315829 0.900192 0.488105
C16   C     C_R   0.498992 0.498209 0.594250 0.944079
C17   C     C_R   0.500656 0.501807 0.405831 0.952719
C18   C     C_R   0.400745 0.667943 0.945768 0.392222
C19   C     C_R   0.454374 0.312380 0.053152 0.378740
C20   C     C_1   0.534816 0.211619 0.500613 -0.172561
C21   C     C_1   0.465298 0.788276 0.500500 -0.172677
C22   C     C_2   0.546889 0.018879 0.501598 0.404796
C23   C     C_R   0.464286 0.494055 0.897784 -0.109281
C24   C     C_2   0.454801 0.980626 0.502563 0.386821
C25   C     C_1   0.456158 0.875736 0.501466 -0.065252
C26   C     C_1   0.544476 0.124067 0.500943 -0.087868
C27   C     C_2   0.031914 0.472979 0.485636 0.325784
C28   C     C_2   0.968305 0.525685 0.515321 0.332833
C29   C     C_1   0.854929 0.519067 0.510455 0.059041
C30   C     C_1   0.145124 0.480561 0.489889 0.081878
C31   C     C_R   0.460887 0.584381 0.821290 0.561639
C32   C     C_R   0.499864 0.402813 0.178679 0.575228
C33   C     C_R   0.504836 0.410326 0.823499 0.631710
C34   C     C_R   0.475352 0.490613 0.101530 -0.129113
C35   C     C_R   0.494741 0.578911 0.176284 0.640917
C36   C     C_R   0.406073 0.470135 0.720722 0.300035
C37   C     C_R   0.410334 0.523992 0.275012 0.330771
C38   C     C_R   0.410398 0.462410 0.670449 0.363872
C39   C     C_R   0.412389 0.536712 0.325262 0.351144
C40   C     C_R   0.580667 0.526619 0.674403 -0.447360
C41   C     C_R   0.591873 0.469015 0.330543 -0.422580
C42   C     C_R   0.578933 0.529200 0.725063 0.510217
C43   C     C_R   0.592737 0.463249 0.280178 0.502591
C44   C     C_R   0.491720 0.498924 0.747578 0.102645
C45   C     C_R   0.443726 0.584123 0.871214 -0.169080
C46   C     C_R   0.502068 0.492441 0.252743 0.080233
C47   C     C_3   0.946721 0.622620 0.584886 0.090582
C48   C     C_3   0.888057 0.720871 0.568518 -0.344318
C49   C     C_3   0.812829 0.758040 0.606330 -0.950066
C50   C     C_3   0.053922 0.338263 0.433681 0.083089
C51   C     C_3   0.110980 0.369771 0.389095 -0.355085
C52   C     C_3   0.189166 0.287365 0.374052 -0.932801
C53   C     C_3   0.712349 0.633526 0.734728 0.094009
C54   C     C_3   0.770114 0.682695 0.775663 -0.294158
C55   C     C_3   0.831905 0.765101 0.756508 -0.957387
C56   C     C_R   0.480901 0.400167 0.128240 -0.160078
C57   C     C_3   0.725650 0.341658 0.270954 0.144809
C58   C     C_3   0.835237 0.347284 0.292586 -0.370024
C59   C     C_3   0.884977 0.244740 0.306835 -0.961940
C60   C     C_2   0.364989 0.761836 0.868980 1.099533
C61   C     C_2   0.451038 0.217027 0.129749 1.044956
C62   C     C_3   0.314771 0.682644 0.336986 0.123621
C63   C     C_3   0.364286 0.739412 0.377881 -0.371517
C64   C     C_3   0.351677 0.850693 0.367727 -0.950488
C65   C     C_3   0.326629 0.323533 0.652186 0.124609
C66   C     C_3   0.381170 0.266678 0.612055 -0.352071
C67   C     C_R   0.406099 0.669855 0.895325 -0.206741
C68   C     C_3   0.380667 0.155268 0.620281 -0.954807
C69   C     C_3   0.242370 0.492338 0.253947 0.055744
C70   C     C_3   0.252144 0.402251 0.221489 -0.340635
C71   C     C_3   0.155998 0.344480 0.222508 -0.919463
C72   C     C_3   0.242804 0.521380 0.740858 0.090338
C73   C     C_3   0.158325 0.500480 0.775588 -0.344823
C74   C     C_3   0.068527 0.580022 0.771296 -0.962392
C75   C     C_3   0.368076 0.799521 0.123783 0.109508
C76   C     C_3   0.364159 0.904441 0.142962 -0.283534
C77   C     C_3   0.252648 0.948293 0.145485 -0.995099
C78   C     C_R   0.465187 0.311366 0.103799 -0.101659
C79   C     C_3   0.440249 0.184535 0.864194 0.141630
C80   C     C_3   0.416066 0.105287 0.901210 -0.391060
C81   C     C_3   0.312034 0.064648 0.889253 -0.850399
C82   C     C_3   0.251949 0.732746 0.978134 0.055128
C83   C     C_3   0.192902 0.831322 0.988703 -0.323181
C84   C     C_3   0.085270 0.816414 0.006264 -0.948524
C85   C     C_3   0.316757 0.233401 0.023210 0.051889
C86   C     C_3   0.279564 0.129720 0.028524 -0.309083
C87   C     C_3   0.164362 0.129231 0.015697 -0.964447
C88   C     C_3   0.279681 0.999842 0.521697 0.083516
C89   C     C_R   0.492798 0.405672 0.873583 -0.153905
C90   C     C_3   0.211457 0.953253 0.483370 -0.337602
C91   C     C_3   0.120759 0.907459 0.506118 -0.968343
C92   C     C_3   0.730110 0.005299 0.503498 0.090277
C93   C     C_3   0.759047 0.039516 0.453021 -0.334939
C94   C     C_3   0.858566 0.092341 0.455305 -0.971956
H1    H     H_    0.647793 0.548032 0.656127 0.185026
H2    H     H_    0.771522 0.829002 0.593542 0.277137
H3    H     H_    0.769737 0.974242 0.429567 0.232606
H4    H     H_    0.696162 0.090608 0.436308 0.222903
H5    H     H_    0.848835 0.159176 0.477740 0.273272
H6    H     H_    0.877883 0.115494 0.418300 0.264381
H7    H     H_    0.923500 0.042193 0.470907 0.266657
H8    H     H_    0.855235 0.770488 0.640998 0.258154
H9    H     H_    0.005589 0.277633 0.422963 0.170694
H10   H     H_    0.108565 0.305914 0.462887 0.130053
H11   H     H_    0.054121 0.388564 0.358658 0.222793
H12   H     H_    0.152496 0.436575 0.396606 0.243571
H13   H     H_    0.247331 0.268457 0.403943 0.283262
H14   H     H_    0.230149 0.312176 0.342157 0.262667
H15   H     H_    0.149424 0.220437 0.364473 0.256858
H16   H     H_    0.656362 0.690563 0.716716 0.152285
H17   H     H_    0.661596 0.446994 0.352013 0.203229
H18   H     H_    0.769369 0.604875 0.708442 0.136875
H19   H     H_    0.713647 0.714019 0.801533 0.246625
H20   H     H_    0.823663 0.626505 0.795337 0.227843
H21   H     H_    0.890709 0.734811 0.731557 0.260008
H22   H     H_    0.872197 0.799653 0.787164 0.279309
H23   H     H_    0.779712 0.822734 0.737080 0.273357
H24   H     H_    0.730036 0.296377 0.237972 0.192325
H25   H     H_    0.678600 0.301684 0.296713 0.132441
H26   H     H_    0.883387 0.381761 0.265655 0.236871
H27   H     H_    0.833003 0.394013 0.325095 0.232157
H28   H     H_    0.473158 0.739172 0.030299 0.229041
H29   H     H_    0.839887 0.210170 0.334925 0.266510
H30   H     H_    0.964771 0.250839 0.321632 0.266815
H31   H     H_    0.888698 0.196753 0.274796 0.274461
H32   H     H_    0.250062 0.695364 0.834855 0.286498
H33   H     H_    0.372725 0.145410 0.179079 0.336581
H34   H     H_    0.230660 0.705300 0.334410 0.159386
H35   H     H_    0.346194 0.704437 0.301755 0.174878
H36   H     H_    0.327224 0.722825 0.412254 0.241856
H37   H     H_    0.448014 0.715616 0.381987 0.215701
H38   H     H_    0.387915 0.869040 0.333367 0.277812
H39   H     H_    0.533502 0.248019 0.969115 0.224568
H40   H     H_    0.390041 0.889715 0.397450 0.274382
H41   H     H_    0.268469 0.877050 0.365260 0.261508
H42   H     H_    0.244373 0.306322 0.651364 0.159115
H43   H     H_    0.360585 0.296557 0.688117 0.168668
H44   H     H_    0.341217 0.287552 0.576724 0.252661
H45   H     H_    0.462543 0.286184 0.610951 0.207018
H46   H     H_    0.420985 0.132524 0.655300 0.272245
H47   H     H_    0.421530 0.116179 0.590931 0.281413
H48   H     H_    0.300073 0.133336 0.620311 0.255694
H49   H     H_    0.168478 0.536213 0.244145 0.175675
H50   H     H_    0.995444 0.636679 0.617534 0.164899
H51   H     H_    0.237087 0.467775 0.292274 0.168933
H52   H     H_    0.263640 0.426695 0.183677 0.240230
H53   H     H_    0.320208 0.352742 0.234255 0.261775
H54   H     H_    0.142889 0.318923 0.259923 0.261314
H55   H     H_    0.166412 0.278876 0.199320 0.290918
H56   H     H_    0.086992 0.391440 0.208541 0.259004
H57   H     H_    0.208491 0.527384 0.703346 0.184746
H58   H     H_    0.273488 0.593221 0.750674 0.163841
H59   H     H_    0.128921 0.427582 0.767484 0.237867
H60   H     H_    0.191430 0.497548 0.813284 0.215537
H61   H     H_    0.893540 0.567182 0.596749 0.123456
H62   H     H_    0.095833 0.653820 0.779090 0.278925
H63   H     H_    0.009846 0.563540 0.797728 0.270890
H64   H     H_    0.031775 0.581513 0.734351 0.261578
H65   H     H_    0.326256 0.752482 0.148609 0.162136
H66   H     H_    0.327753 0.802475 0.087465 0.121022
H67   H     H_    0.402161 0.903395 0.179660 0.248910
H68   H     H_    0.406521 0.951783 0.118696 0.251338
H69   H     H_    0.213660 0.951131 0.108989 0.269859
H70   H     H_    0.251446 0.024549 0.159269 0.273915
H71   H     H_    0.209323 0.903040 0.170267 0.275282
H72   H     H_    0.944315 0.777063 0.562464 0.225730
H73   H     H_    0.451717 0.148562 0.828890 0.196798
H74   H     H_    0.372438 0.240076 0.858321 0.114728
H75   H     H_    0.477971 0.043891 0.901898 0.270246
H76   H     H_    0.413722 0.137259 0.937663 0.234378
H77   H     H_    0.248814 0.124495 0.890335 0.238989
H78   H     H_    0.297587 0.006516 0.916331 0.283357
H79   H     H_    0.311754 0.031915 0.852792 0.293397
H80   H     H_    0.252574 0.683001 0.010565 0.147706
H81   H     H_    0.210758 0.698629 0.947302 0.129211
H82   H     H_    0.236331 0.870706 0.016714 0.222257
H83   H     H_    0.844009 0.712036 0.533914 0.231778
H84   H     H_    0.185676 0.878345 0.955268 0.234595
H85   H     H_    0.039966 0.778015 0.978557 0.272982
H86   H     H_    0.044088 0.889341 0.012972 0.270235
H87   H     H_    0.090931 0.772075 0.040523 0.262987
H88   H     H_    0.297395 0.262795 0.985932 0.154631
H89   H     H_    0.274298 0.282088 0.049195 0.131674
H90   H     H_    0.323080 0.077993 0.004688 0.237372
H91   H     H_    0.294636 0.102815 0.066473 0.238798
H92   H     H_    0.119018 0.179388 0.039606 0.274193
H93   H     H_    0.139892 0.053278 0.020603 0.266861
H94   H     H_    0.754899 0.703509 0.612403 0.263339
H95   H     H_    0.148013 0.153215 0.977411 0.268822
H96   H     H_    0.232128 0.060428 0.538575 0.165484
H97   H     H_    0.304642 0.946176 0.551666 0.135031
H98   H     H_    0.181302 0.010920 0.456287 0.227312
H99   H     H_    0.257374 0.894809 0.464306 0.232745
H100  H     H_    0.149358 0.846858 0.531906 0.279925
H101  H     H_    0.071474 0.876411 0.477431 0.270340
H102  H     H_    0.073096 0.964234 0.525539 0.254831
H103  H     H_    0.792894 0.951193 0.517952 0.164975
H104  H     H_    0.726920 0.066915 0.529527 0.136699
N1    N     N_R   0.488194 0.498304 0.798966 -0.297665
N2    N     N_R   0.501893 0.491065 0.201205 -0.304935
N3    N     N_1   0.234530 0.484780 0.492250 -0.087099
N4    N     N_1   0.765470 0.515220 0.507750 -0.092929
O1    O     O_R   0.402510 0.634760 0.497160 -0.621031
O2    O     O_2   0.516748 0.318632 0.205388 -0.582569
O3    O     O_2   0.501582 0.663434 0.200720 -0.512712
O4    O     O_2   0.534330 0.328383 0.799140 -0.527917
O5    O     O_3   0.013817 0.586799 0.548923 -0.663159
O6    O     O_3   0.986685 0.417176 0.449698 -0.666960
O7    O     O_3   0.662187 0.554054 0.754336 -0.618916
O8    O     O_3   0.683160 0.437727 0.256766 -0.622853
O9    O     O_2   0.405306 0.838743 0.876202 -0.570182
O10   O     O_R   0.279403 0.762265 0.836738 -0.775397
O11   O     O_2   0.505371 0.142408 0.120897 -0.600951
O12   O     O_R   0.597490 0.365240 0.502840 -0.611844
O13   O     O_R   0.373333 0.213066 0.163066 -0.821076
O14   O     O_3   0.326489 0.579610 0.347385 -0.637810
O15   O     O_3   0.328802 0.426805 0.644034 -0.621080
O16   O     O_3   0.323241 0.554394 0.246301 -0.643454
O17   O     O_3   0.320875 0.442878 0.744643 -0.647838
O18   O     O_3   0.472196 0.761419 0.121252 -0.583064
O19   O     O_3   0.533276 0.226683 0.878023 -0.593200
O20   O     O_3   0.354253 0.750509 0.967216 -0.651394
O21   O     O_3   0.425376 0.227333 0.031204 -0.649971
O22   O     O_3   0.363235 0.042595 0.500119 -0.666146
O23   O     O_R   0.572960 0.644530 0.502140 -0.593585
O24   O     O_3   0.637925 0.955943 0.501031 -0.663897
O25   O     O_R   0.427040 0.355470 0.497860 -0.617053
O26   O     O_R   0.414790 0.495100 0.568760 -0.563269
O27   O     O_R   0.585210 0.504900 0.431240 -0.618920
O28   O     O_R   0.585240 0.504870 0.573730 -0.630154
O29   O     O_R   0.414760 0.495130 0.426270 -0.570056
O30   O     O_2   0.452053 0.669408 0.794929 -0.566720
Zn1   Zn    Zn3+2 0.386190 0.493480 0.496680 1.000354
Zn2   Zn    Zn3+2 0.613810 0.506520 0.503320 0.975026

loop_
_geom_bond_atom_site_label_1
_geom_bond_atom_site_label_2
_ccdc_geom_bond_type
C75   H66   S    
C77   H69   S    
C88   H97   S    
C66   C68   S    
C34   C56   A    
C85   H88   S    
C23   C45   A    
C84   H85   S    
C69   H51   S    
C73   C74   S    
C76   H68   S    
C62   H35   S    
C12   O12   A    
C65   O15   S    
C31   N1    A    
C17   O29   A    
C90   H98   S    
C53   C54   S    
C1    C21   S    
C49   H94   S    
C53   O7    S    
C93   C94   S    
C61   O11   D    
C39   O14   S    
O23   Zn2   S    
C37   O16   S    
C28   C29   S    
O1    Zn1   S    
C11   C14   A    
C63   H36   S    
C71   H56   S    
N4    Zn2   S    
C4    C41   A    
C33   N1    A    
C1    O23   A    
C54   H19   S    
C56   C78   A    
C7    C9    A    
C27   O6    S    
C81   H78   S    
C16   O28   A    
O27   Zn2   S    
C84   H86   S    
C43   O8    S    
C31   C45   A    
C57   O8    S    
C46   N2    S    
C35   O3    S    
C53   H16   S    
C66   H45   S    
C82   H80   S    
C52   H13   S    
C3    C38   A    
C72   H58   S    
C73   H60   S    
C45   C67   A    
C88   O22   S    
C68   H48   S    
C70   C71   S    
C70   H52   S    
C63   H37   S    
C79   H74   S    
C74   H63   S    
C57   H25   S    
C65   H43   S    
C2    C34   A    
C77   H70   S    
C40   C42   A    
C71   H54   S    
C64   H41   S    
C92   O24   S    
C50   H9    S    
C85   H89   S    
C83   H82   S    
C27   C30   S    
C86   H90   S    
C41   C43   A    
C38   O15   S    
C14   O18   S    
C76   H67   S    
O12   Zn2   S    
C42   C44   A    
C80   H75   S    
C92   H104  S    
C36   O17   S    
C58   H26   S    
C48   H83   S    
C43   C46   A    
C35   N2    A    
C79   O19   S    
C87   H92   S    
C24   O22   S    
C59   H29   S    
O25   Zn1   S    
C64   H40   S    
C33   O4    S    
C74   H64   S    
C63   C64   S    
C69   O16   S    
C47   C48   S    
C64   H38   S    
C19   O21   S    
C76   C77   S    
C60   C67   S    
C48   H72   S    
C49   H8    S    
C2    C35   A    
C17   O27   A    
C86   C87   S    
C72   C73   S    
C12   O25   A    
C87   H93   S    
C58   C59   S    
C85   C86   S    
C47   H50   S    
C8    C18   A    
C51   C52   S    
C81   H79   S    
C15   O19   S    
C19   C78   A    
C88   H96   S    
C75   C76   S    
C5    C9    A    
C62   C63   S    
C33   C89   A    
C32   O2    S    
C15   C89   A    
C91   H101  S    
N3    Zn1   S    
C83   C84   S    
C66   H44   S    
C4    C39   A    
C94   H6    S    
C61   C78   S    
C51   H11   S    
C72   H57   S    
C31   O30   S    
C12   C20   S    
C23   C89   A    
C50   C51   S    
C74   H62   S    
C68   H47   S    
O29   Zn1   S    
C24   C25   S    
C60   O10   S    
O26   Zn1   S    
C42   O7    S    
C44   N1    S    
C82   O20   S    
C4    C17   S    
C53   H18   S    
C94   H7    S    
C48   C49   S    
C88   C90   S    
C3    C40   A    
C82   C83   S    
C7    C19   A    
C80   H76   S    
C22   C26   S    
C9    C34   A    
C22   C24   D    
C36   C44   A    
C11   H28   S    
C69   H49   S    
C40   H1    S    
C90   C91   S    
C92   H103  S    
C1    O1    A    
C93   H3    S    
C55   H23   S    
C75   H65   S    
C59   H30   S    
C91   H100  S    
C72   O17   S    
C21   C25   T    
C54   C55   S    
C16   O26   A    
C58   H27   S    
C29   N4    T    
C83   H84   S    
C62   O14   S    
C80   C81   S    
C6    C10   A    
C5    C8    A    
C5    C11   A    
C6    C7    A    
C22   O24   S    
C10   C23   A    
C59   H31   S    
C47   O5    S    
C94   H5    S    
C13   C15   A    
C75   O18   S    
C18   C67   A    
C32   N2    A    
H32   O10   S    
C6    C13   A    
C62   H34   S    
C91   H102  S    
C55   H21   S    
H33   O13   S    
C57   C58   S    
C71   H55   S    
C90   H99   S    
C20   C26   T    
C52   H15   S    
C85   O21   S    
C51   H12   S    
C54   H20   S    
C36   C38   A    
C92   C93   S    
C18   O20   S    
O28   Zn2   S    
C55   H22   S    
C81   H77   S    
C49   H2    S    
C69   C70   S    
C2    C14   A    
C60   O9    D    
C13   H39   S    
C65   H42   S    
C68   H46   S    
C3    C16   S    
C79   C80   S    
C37   C39   A    
C30   N3    T    
C82   H81   S    
C52   H14   S    
C86   H91   S    
C8    C10   A    
C65   C66   S    
C41   H17   S    
C73   H59   S    
C27   C28   D    
C28   O5    S    
C70   H53   S    
C61   O13   S    
C79   H73   S    
C37   C46   A    
C77   H71   S    
C93   H4    S    
C32   C56   A    
C50   H10   S    
C87   H95   S    
C50   O6    S    
C57   H24   S    
C47   H61   S    
C84   H87   S    
