data_mof_unit_63835.cif
_audit_creation_date              2012-10-26T18:13:31-0400
_audit_creation_method            fapswitch 2.2
_symmetry_space_group_name_H-M    P1
_symmetry_Int_Tables_number       1
_space_group_crystal_system       triclinic
_cell_length_a                    21.602551
_cell_length_b                    21.568682
_cell_length_c                    22.156749
_cell_angle_alpha                 119.026819
_cell_angle_beta                  119.671812
_cell_angle_gamma                 89.826472
_cell_volume                      7451.32829423

loop_
_atom_site_label
_atom_site_type_symbol
_atom_type_description
_atom_site_fract_x
_atom_site_fract_y
_atom_site_fract_z
_atom_type_partial_charge
C1    C     C_R   0.500772 0.120844 0.501800 0.588457
C2    C     C_3   0.232128 0.791599 0.951365 -0.212480
C3    C     C_3   0.719393 0.158972 0.951976 -0.213394
C4    C     C_3   0.280485 0.840042 0.048435 -0.213204
C5    C     C_1   0.837926 0.337780 0.174839 -0.082412
C6    C     C_1   0.161974 0.661855 0.825167 -0.082487
C7    C     C_1   0.663434 0.162015 0.825067 -0.086156
C8    C     C_1   0.336522 0.836496 0.174955 -0.084839
C9    C     C_1   0.625535 0.124268 0.749600 -0.037513
C10   C     C_1   0.374467 0.874580 0.250414 -0.042422
C11   C     C_3   0.474428 0.170025 0.414477 -0.293713
C12   C     C_R   0.499115 0.879089 0.497997 0.562057
C13   C     C_3   0.535694 0.831607 0.588211 -0.288743
C14   C     C_3   0.474664 0.240903 0.413261 -0.247271
C15   C     C_3   0.533814 0.760332 0.588860 -0.246088
C16   C     C_R   0.580130 0.079672 0.659791 0.564240
C17   C     C_R   0.419872 0.919956 0.340212 0.546913
C18   C     C_3   0.446784 0.227514 0.523634 -0.229642
C19   C     C_3   0.547613 0.768256 0.467972 -0.236982
C20   C     C_3   0.582658 0.246722 0.566085 0.165131
C21   C     C_3   0.416484 0.757685 0.444872 0.163873
C22   C     C_3   0.501412 0.190284 0.502794 0.062154
C23   C     C_3   0.709506 0.208413 0.917307 0.072170
C24   C     C_3   0.498887 0.809968 0.497427 0.045781
C25   C     C_3   0.502160 0.311155 0.500872 0.026242
C26   C     C_3   0.498732 0.688898 0.499188 0.019483
C27   C     C_3   0.449369 0.299855 0.525342 -0.251648
C28   C     C_3   0.544707 0.695797 0.465805 -0.250555
C29   C     C_3   0.582818 0.318807 0.565496 -0.222646
C30   C     C_3   0.417073 0.683985 0.440478 -0.211123
C31   C     C_3   0.729198 0.576953 0.531566 -0.284716
C32   C     C_3   0.271262 0.423428 0.469181 -0.284657
C33   C     C_3   0.818208 0.475467 0.559027 -0.216258
C34   C     C_3   0.290406 0.790262 0.082711 0.073071
C35   C     C_3   0.180998 0.523102 0.439613 -0.216798
C36   C     C_3   0.748484 0.476473 0.563329 -0.081518
C37   C     C_3   0.251078 0.522993 0.435991 -0.082392
C38   C     C_3   0.691222 0.498187 0.502913 0.080013
C39   C     C_3   0.308752 0.502010 0.497021 0.080009
C40   C     C_3   0.743264 0.444606 0.412792 -0.207048
C41   C     C_3   0.256610 0.556511 0.586930 -0.206850
C42   C     C_3   0.671461 0.441730 0.412400 0.151067
C43   C     C_3   0.328437 0.559075 0.587356 0.150587
C44   C     C_R   0.880902 0.500753 0.501362 0.546207
C45   C     C_3   0.720208 0.313803 0.047337 -0.212829
C46   C     C_R   0.119136 0.499284 0.498710 0.546330
C47   C     C_R   0.920288 0.420190 0.340148 0.550136
C48   C     C_R   0.079695 0.579798 0.659854 0.550075
C49   C     C_R   0.379149 0.502271 0.499256 0.578817
C50   C     C_R   0.620853 0.497912 0.500727 0.577636
C51   C     C_R   0.501524 0.379706 0.500124 0.559389
C52   C     C_R   0.499190 0.620328 0.499897 0.558178
C53   C     C_3   0.812507 0.500501 0.502158 0.010031
C54   C     C_3   0.187507 0.499549 0.497866 0.009603
C55   C     C_3   0.802229 0.579183 0.535080 -0.249428
C56   C     C_3   0.279648 0.685335 0.952422 -0.212928
C57   C     C_3   0.198625 0.421238 0.466466 -0.249530
C58   C     C_3   0.671799 0.265018 0.950241 -0.214436
C59   C     C_3   0.328115 0.733830 0.049532 -0.212885
C60   C     C_3   0.788318 0.252677 0.951941 -0.211169
C61   C     C_3   0.211612 0.745822 0.047931 -0.213037
C62   C     C_3   0.836752 0.301468 0.049047 -0.213340
C63   C     C_3   0.163121 0.697460 0.950810 -0.212825
C64   C     C_1   0.875534 0.375493 0.250316 -0.042450
C65   C     C_1   0.124402 0.624395 0.749688 -0.042522
C66   C     C_3   0.619093 0.316717 0.708888 -0.007268
C67   C     C_3   0.791925 0.291477 0.082571 0.072745
C68   C     C_3   0.626589 0.299051 0.770330 -0.373281
C69   C     C_3   0.384706 0.721494 0.310176 0.006862
C70   C     C_3   0.315378 0.690044 0.222796 -0.376407
C71   C     C_3   0.773416 0.525662 0.656692 -0.281846
C72   C     C_3   0.739868 0.484011 0.678454 -0.451305
C73   C     C_3   0.226720 0.473909 0.342855 -0.284052
C74   C     C_3   0.260645 0.515702 0.321472 -0.446565
C75   C     C_3   0.586737 0.324823 0.294576 -0.008182
C76   C     C_3   0.557480 0.244453 0.264187 -0.373246
C77   C     C_3   0.413016 0.676346 0.704423 -0.008190
C78   C     C_3   0.207964 0.707793 0.917441 0.072752
C79   C     C_3   0.441433 0.756591 0.733956 -0.372821
C80   C     C_3   0.767813 0.207768 0.049062 -0.212269
Cu1   Cu    Cu3+1 0.437520 0.000000 0.500030 0.928902
Cu2   Cu    Cu3+1 0.562480 0.000000 0.499970 0.920285
Cu3   Cu    Cu3+1 0.000200 0.562470 0.499990 0.899875
Cu4   Cu    Cu3+1 0.999800 0.437530 0.500010 0.899223
Cu5   Cu    Cu3+1 0.458730 0.458690 0.417370 0.870356
Cu6   Cu    Cu3+1 0.541270 0.541310 0.582630 0.868422
H1    H     H_    0.690392 0.590943 0.486896 0.091222
H2    H     H_    0.264844 0.800783 0.928719 0.110342
H3    H     H_    0.615073 0.234774 0.926565 0.111040
H4    H     H_    0.384803 0.764211 0.073250 0.110884
H5    H     H_    0.686651 0.306849 0.070110 0.107126
H6    H     H_    0.313190 0.692469 0.929708 0.106967
H7    H     H_    0.818283 0.190039 0.073104 0.111363
H8    H     H_    0.181686 0.809408 0.927473 0.111363
H9    H     H_    0.416793 0.129391 0.367363 0.116452
H10   H     H_    0.594788 0.868108 0.628892 0.120427
H11   H     H_    0.511353 0.142734 0.395893 0.113093
H12   H     H_    0.310543 0.409716 0.513921 0.091753
H13   H     H_    0.505917 0.864061 0.615456 0.108633
H14   H     H_    0.511972 0.247827 0.394530 0.127626
H15   H     H_    0.500425 0.757031 0.613125 0.126038
H16   H     H_    0.737796 0.461548 0.370677 0.069819
H17   H     H_    0.262396 0.540797 0.630065 0.069287
H18   H     H_    0.416936 0.233926 0.365416 0.137739
H19   H     H_    0.592026 0.764187 0.632271 0.136799
H20   H     H_    0.388406 0.188548 0.475138 0.125620
H21   H     H_    0.607061 0.804731 0.512457 0.134028
H22   H     H_    0.391785 0.296485 0.480944 0.109566
H23   H     H_    0.888515 0.285495 0.073084 0.108741
H24   H     H_    0.602750 0.695973 0.504524 0.108524
H25   H     H_    0.615343 0.220305 0.539939 0.143843
H26   H     H_    0.393673 0.786661 0.482909 0.149944
H27   H     H_    0.620521 0.326101 0.547238 0.079144
H28   H     H_    0.381715 0.674186 0.460216 0.085448
H29   H     H_    0.605129 0.370465 0.627475 0.116691
H30   H     H_    0.392231 0.635691 0.375379 0.135329
H31   H     H_    0.459882 0.238979 0.583944 0.128012
H32   H     H_    0.531498 0.756133 0.406640 0.097657
H33   H     H_    0.468548 0.348398 0.588628 0.110513
H34   H     H_    0.111430 0.713599 0.927036 0.108719
H35   H     H_    0.519195 0.647022 0.400574 0.115814
H36   H     H_    0.741464 0.620953 0.593513 0.120810
H37   H     H_    0.258589 0.379254 0.407082 0.121039
H38   H     H_    0.633740 0.460295 0.371860 0.096527
H39   H     H_    0.366241 0.540972 0.628396 0.096791
H40   H     H_    0.821963 0.417686 0.534240 0.134343
H41   H     H_    0.175858 0.580336 0.462703 0.134736
H42   H     H_    0.871953 0.511659 0.621304 0.107722
H43   H     H_    0.127667 0.485490 0.377291 0.107736
H44   H     H_    0.750552 0.388254 0.388005 0.148655
H45   H     H_    0.663583 0.126716 0.928372 0.109763
H46   H     H_    0.248893 0.612708 0.610482 0.149772
H47   H     H_    0.800091 0.599622 0.496825 0.137584
H48   H     H_    0.201807 0.402050 0.506075 0.137083
H49   H     H_    0.720551 0.417955 0.537197 0.169770
H50   H     H_    0.278411 0.581647 0.461970 0.170912
H51   H     H_    0.850835 0.619533 0.600654 0.124973
H52   H     H_    0.149888 0.379955 0.401305 0.125583
H53   H     H_    0.735830 0.373701 0.070124 0.110992
H54   H     H_    0.263968 0.625370 0.929374 0.110966
H55   H     H_    0.664319 0.301609 0.926649 0.107859
H56   H     H_    0.336286 0.872476 0.072202 0.109903
H57   H     H_    0.335680 0.697054 0.072918 0.106438
H58   H     H_    0.816921 0.213387 0.929531 0.114146
H59   H     H_    0.183040 0.784965 0.070621 0.113041
H60   H     H_    0.782982 0.289039 0.928372 0.108456
H61   H     H_    0.216986 0.709120 0.071093 0.107973
H62   H     H_    0.854564 0.361134 0.071864 0.111678
H63   H     H_    0.145189 0.637694 0.927606 0.111462
H64   H     H_    0.566897 0.331618 0.685743 0.116969
H65   H     H_    0.667801 0.365676 0.743233 0.129860
H66   H     H_    0.679216 0.285117 0.796429 0.161099
H67   H     H_    0.746707 0.117910 0.929591 0.109661
H68   H     H_    0.628034 0.348157 0.822417 0.076890
H69   H     H_    0.578006 0.250988 0.738178 0.157457
H70   H     H_    0.410161 0.676345 0.308212 0.112054
H71   H     H_    0.423765 0.768614 0.326079 0.141574
H72   H     H_    0.288321 0.733714 0.221744 0.166190
H73   H     H_    0.331395 0.670915 0.177617 0.079899
H74   H     H_    0.274750 0.642001 0.203616 0.148015
H75   H     H_    0.678001 0.465103 0.637427 0.192717
H76   H     H_    0.759518 0.434727 0.671059 0.134738
H77   H     H_    0.757675 0.521498 0.744335 0.128394
H78   H     H_    0.253118 0.880954 0.070962 0.109882
H79   H     H_    0.835072 0.543566 0.701602 0.131648
H80   H     H_    0.759516 0.578424 0.672497 0.170413
H81   H     H_    0.240672 0.564744 0.328352 0.140933
H82   H     H_    0.322495 0.535066 0.363017 0.193051
H83   H     H_    0.243409 0.478169 0.255812 0.130192
H84   H     H_    0.240589 0.421133 0.327217 0.170549
H85   H     H_    0.165119 0.456065 0.297658 0.131789
H86   H     H_    0.615541 0.325555 0.264766 0.108225
H87   H     H_    0.538046 0.345847 0.274544 0.137262
H88   H     H_    0.525658 0.241444 0.290032 0.149905
H89   H     H_    0.735156 0.198838 0.071881 0.110311
H90   H     H_    0.519634 0.209537 0.194853 0.084440
H91   H     H_    0.604997 0.222278 0.284515 0.152356
H92   H     H_    0.462060 0.655836 0.724746 0.137544
H93   H     H_    0.384469 0.675676 0.734500 0.108013
H94   H     H_    0.393541 0.778375 0.713830 0.152306
H95   H     H_    0.479791 0.791905 0.803239 0.084185
H96   H     H_    0.472433 0.759485 0.707253 0.150319
O1    O     O_R   0.447230 0.091150 0.500010 -0.526274
O2    O     O_R   0.447240 0.908850 0.500040 -0.492240
O3    O     O_R   0.507510 0.060280 0.620590 -0.514632
O4    O     O_R   0.492490 0.939720 0.379410 -0.516627
O5    O     O_R   0.613050 0.060280 0.620540 -0.490750
O6    O     O_R   0.386950 0.939720 0.379460 -0.494678
O7    O     O_R   0.909030 0.552780 0.500030 -0.514137
O8    O     O_R   0.090970 0.447220 0.499970 -0.514057
O9    O     O_R   0.909010 0.447270 0.500050 -0.518046
O10   O     O_R   0.090990 0.552730 0.499950 -0.517898
O11   O     O_R   0.939920 0.492480 0.379430 -0.505060
O12   O     O_R   0.552770 0.908850 0.499990 -0.531282
O13   O     O_R   0.060080 0.507520 0.620570 -0.505269
O14   O     O_R   0.939890 0.386970 0.379440 -0.505248
O15   O     O_R   0.060110 0.613030 0.620560 -0.505185
O16   O     O_R   0.373940 0.465070 0.430170 -0.529509
O17   O     O_R   0.626060 0.534930 0.569830 -0.530011
O18   O     O_3   0.620424 0.254729 0.644948 -0.554829
O19   O     O_3   0.363409 0.747960 0.366881 -0.555494
O20   O     O_3   0.636337 0.368280 0.382701 -0.566347
O21   O     O_3   0.363398 0.632280 0.616312 -0.566524
O22   O     O_R   0.443640 0.534850 0.569740 -0.496047
O23   O     O_R   0.556360 0.465150 0.430260 -0.495734
O24   O     O_R   0.465150 0.373960 0.430230 -0.508763
O25   O     O_R   0.534850 0.626040 0.569770 -0.508316
O26   O     O_R   0.534860 0.443740 0.569790 -0.534213
O27   O     O_R   0.465140 0.556260 0.430210 -0.533583
O28   O     O_R   0.552760 0.091150 0.499960 -0.501071

loop_
_geom_bond_atom_site_label_1
_geom_bond_atom_site_label_2
_ccdc_geom_bond_type
C23   C58   S    
C66   C68   S    
C69   O19   S    
C75   H87   S    
C52   O25   A    
C73   C74   S    
C3    C23   S    
C3    H67   S    
C5    C67   S    
C68   H69   S    
C43   H39   S    
C74   H82   S    
Cu1   Cu2   S    
C1    O1    A    
C51   O24   A    
C42   H38   S    
C30   H30   S    
Cu5   Cu6   S    
C77   H93   S    
C62   C67   S    
Cu2   O4    S    
C3    H45   S    
C35   C37   S    
C9    C16   S    
C66   H64   S    
C68   H68   S    
C16   O3    A    
C44   O9    A    
C4    H56   S    
C56   H54   S    
C11   C14   S    
C6    C78   S    
Cu4   O13   S    
C45   H53   S    
C33   C36   S    
C56   C78   S    
Cu4   O9    S    
C60   C62   S    
C70   H73   S    
C32   C39   S    
C61   C63   S    
C61   H59   S    
C20   O18   S    
C74   H83   S    
C37   C73   S    
C44   C53   S    
C80   H7    S    
C6    C65   T    
C63   H63   S    
C19   H32   S    
C71   H80   S    
C45   C67   S    
C69   H71   S    
C72   H75   S    
C4    H78   S    
Cu4   O8    S    
C48   C65   S    
Cu3   O15   S    
C35   H43   S    
Cu1   O6    S    
C36   C71   S    
Cu6   O17   S    
C20   C29   S    
C40   C42   S    
C29   H29   S    
C49   O22   A    
C59   H57   S    
C1    C22   S    
C62   H62   S    
C35   C54   S    
C25   C29   S    
C41   C43   S    
C32   H37   S    
C60   H60   S    
C32   C57   S    
C46   O8    A    
C3    C80   S    
C77   O21   S    
Cu1   O3    S    
C74   H81   S    
C75   O20   S    
C47   O11   A    
Cu5   O24   S    
C49   O16   A    
C53   C55   S    
C33   C53   S    
C23   C60   S    
C4    C34   S    
C45   C58   S    
C37   H50   S    
C69   H70   S    
C31   H1    S    
C18   C27   S    
C13   H10   S    
Cu5   O23   S    
C21   O19   S    
C47   O14   A    
C76   H90   S    
C31   H36   S    
C76   H91   S    
Cu6   O26   S    
C47   C64   S    
C28   H35   S    
C15   C26   S    
C39   C43   S    
C28   H24   S    
C55   H47   S    
C33   H42   S    
C41   H17   S    
C13   C24   S    
C70   H72   S    
C59   H4    S    
C13   H13   S    
C2    C4    S    
C75   C76   S    
C18   H20   S    
C68   H66   S    
C26   C52   S    
C44   O7    A    
C20   H25   S    
Cu3   O10   S    
Cu2   O5    S    
C14   H18   S    
Cu3   Cu4   S    
C2    H8    S    
C17   O4    A    
C46   C54   S    
C10   C17   S    
C77   C79   S    
C8    C34   S    
C15   H15   S    
C2    H2    S    
C19   C28   S    
C18   H31   S    
C39   C49   S    
C20   C22   S    
C26   C30   S    
C13   C15   S    
C48   O13   A    
C43   O21   S    
C34   C59   S    
C57   H48   S    
C42   O20   S    
C73   H85   S    
Cu1   O1    S    
C36   C38   S    
C36   H49   S    
Cu6   O22   S    
C50   O23   A    
C35   H41   S    
C21   H26   S    
C2    C78   S    
C30   H28   S    
C11   H9    S    
C7    C9    T    
C40   H44   S    
C1    O28   A    
C51   O26   A    
C12   O12   A    
Cu3   O7    S    
C67   C80   S    
C77   H92   S    
C80   H89   S    
C46   O10   A    
C16   O5    A    
Cu5   O27   S    
Cu6   O25   S    
C41   H46   S    
C50   O17   A    
C31   C38   S    
C14   H14   S    
C38   C50   S    
C27   H33   S    
C25   C27   S    
C21   C30   S    
C12   C24   S    
C11   C22   S    
C26   C28   S    
C25   C51   S    
C55   H51   S    
C56   C59   S    
C48   O15   A    
C11   H11   S    
C15   H19   S    
C18   C22   S    
C19   C24   S    
C61   H61   S    
C71   C72   S    
C37   C39   S    
C79   H96   S    
C60   H58   S    
C52   O27   A    
C63   H34   S    
C58   H55   S    
C12   O2    A    
C62   H23   S    
C27   H22   S    
Cu4   O14   S    
C7    C23   S    
C76   H88   S    
C33   H40   S    
C72   H77   S    
C32   H12   S    
C57   H52   S    
C70   H74   S    
C34   C61   S    
C14   C25   S    
C69   C70   S    
C45   H5    S    
C58   H3    S    
C41   C54   S    
Cu2   O12   S    
C40   H16   S    
C38   C42   S    
C79   H95   S    
Cu5   O16   S    
C66   H65   S    
C5    C64   T    
C8    C10   T    
C40   C53   S    
C71   H79   S    
C21   C24   S    
C29   H27   S    
C75   H86   S    
C72   H76   S    
C79   H94   S    
C17   O6    A    
Cu1   O2    S    
C31   C55   S    
C73   H84   S    
C56   H6    S    
C54   C57   S    
C66   O18   S    
Cu3   O11   S    
Cu2   O28   S    
C63   C78   S    
C19   H21   S    
