data_mof_unit_45216.cif
_audit_creation_date              2012-12-11T14:14:14-0500
_audit_creation_method            fapswitch 2.2
_symmetry_space_group_name_H-M    P1
_symmetry_Int_Tables_number       1
_space_group_crystal_system       triclinic
_cell_length_a                    17.043097
_cell_length_b                    7.245659
_cell_length_c                    17.012544
_cell_angle_alpha                 89.999826
_cell_angle_beta                  99.514591
_cell_angle_gamma                 89.998706
_cell_volume                      2071.95271071

loop_
_atom_site_label
_atom_site_type_symbol
_atom_type_description
_atom_site_fract_x
_atom_site_fract_y
_atom_site_fract_z
_atom_type_partial_charge
O1    O     O_R   0.414560 0.494370 0.416770 -0.542339
O2    O     O_R   0.585440 0.994370 0.583230 -0.542385
O3    O     O_R   0.578370 0.819590 0.429320 -0.523172
O4    O     O_R   0.421630 0.319590 0.570680 -0.523250
C1    C     C_R   0.604247 0.654961 0.413743 0.860741
C2    C     C_R   0.395757 0.154965 0.586262 0.860818
O5    O     O_R   0.414740 0.823790 0.407360 -0.531345
O6    O     O_R   0.585260 0.323790 0.592640 -0.531330
O7    O     O_R   0.420650 0.998510 0.561120 -0.533905
O8    O     O_R   0.579350 0.498510 0.438880 -0.533871
C3    C     C_R   0.389162 0.654714 0.384477 0.776416
C4    C     C_R   0.610837 0.154707 0.615524 0.776601
O9    O     O_3   0.502130 0.662240 0.550470 -0.384617
O10   O     O_3   0.497870 0.162240 0.449530 -0.384533
V1    V     V_3+5 0.499600 0.935390 0.490640 1.609209
V2    V     V_3+5 0.500400 0.435390 0.509360 1.609147
C5    C     C_2   0.775521 0.261123 0.795073 0.116344
C6    C     C_2   0.224395 0.761238 0.205017 0.116482
C7    C     C_2   0.828120 0.118278 0.810756 0.239513
C8    C     C_2   0.171887 0.618240 0.189246 0.239438
C9    C     C_2   0.717700 0.278266 0.719237 -0.050786
C10   C     C_2   0.282222 0.778275 0.280852 -0.050866
C11   C     C_2   0.672105 0.137360 0.687367 -0.223251
C12   C     C_2   0.327903 0.637408 0.312628 -0.223374
H1    H     H_    0.707682 0.415163 0.693502 0.174306
H2    H     H_    0.292160 0.915104 0.306676 0.174485
H3    H     H_    0.678428 0.003061 0.715995 0.163773
H4    H     H_    0.321654 0.503191 0.283926 0.163821
C13   C     C_R   0.331609 0.142657 0.635514 -0.288387
C14   C     C_R   0.668399 0.642629 0.364496 -0.288380
C15   C     C_R   0.164237 0.128493 0.860159 -0.151332
C16   C     C_R   0.835768 0.628533 0.139853 -0.151371
C17   C     C_R   0.287758 0.274021 0.838581 0.288587
C18   C     C_R   0.712393 0.774584 0.161556 0.288611
C19   C     C_R   0.228680 0.244461 0.885035 -0.286925
C20   C     C_R   0.771437 0.744905 0.115076 -0.286649
C21   C     C_R   0.156218 0.044873 0.784289 0.410127
C22   C     C_R   0.843701 0.544588 0.215654 0.410117
C23   C     C_R   0.211468 0.088074 0.731598 -0.200353
C24   C     C_R   0.788498 0.587879 0.268379 -0.200293
C25   C     C_R   0.281884 0.191220 0.761938 -0.015356
C26   C     C_R   0.718179 0.691443 0.238122 -0.015330
C27   C     C_R   0.343281 0.209579 0.714313 0.339341
C28   C     C_R   0.656789 0.709865 0.285748 0.339410
C29   C     C_R   0.258850 0.060857 0.603019 0.265151
C30   C     C_R   0.741098 0.560463 0.396938 0.265231
C31   C     C_R   0.198649 0.036112 0.649494 0.426221
C32   C     C_R   0.801277 0.535610 0.350446 0.426241
H5    H     H_    0.233946 0.312520 0.942467 0.134683
H6    H     H_    0.766235 0.813223 0.057704 0.134718
O11   O     O_R   0.920750 0.773600 0.061260 -0.544406
O12   O     O_R   0.079250 0.273600 0.938740 -0.544402
O13   O     O_R   0.085340 0.439850 0.092570 -0.524139
O14   O     O_R   0.914660 0.939850 0.907430 -0.524197
C33   C     C_R   0.111478 0.608810 0.115414 0.706094
C34   C     C_R   0.888523 0.108814 0.884589 0.706202
O15   O     O_R   0.921720 0.444130 0.070790 -0.516794
O16   O     O_R   0.078280 0.944130 0.929210 -0.516869
O17   O     O_R   0.914480 0.269530 0.916840 -0.527922
O18   O     O_R   0.085520 0.769530 0.083160 -0.527915
C35   C     C_R   0.897269 0.613085 0.087428 0.755419
C36   C     C_R   0.102730 0.113081 0.912575 0.755461
O19   O     O_3   0.997840 0.601520 0.949550 -0.367957
O20   O     O_3   0.002160 0.101520 0.050450 -0.367879
V3    V     V_3+5 0.000400 0.328340 0.009360 1.605481
V4    V     V_3+5 0.999600 0.828340 0.990640 1.605350
N1    N     N_3   0.775295 0.406455 0.852400 -0.672044
H7    H     H_    0.718073 0.414851 0.866740 0.235996
H8    H     H_    0.786975 0.530809 0.825361 0.270323
N2    N     N_3   0.224499 0.906867 0.147804 -0.671861
H9    H     H_    0.281718 0.915683 0.133483 0.235887
H10   H     H_    0.212696 0.031016 0.174937 0.270650
Cl1   Cl    Cl    0.080674 0.875822 0.761687 -0.470595
Cl2   Cl    Cl    0.919046 0.375014 0.238121 -0.470910
Cl3   Cl    Cl    0.835988 0.944884 0.739089 -0.528952
Cl4   Cl    Cl    0.164148 0.444518 0.260808 -0.529498
Cl5   Cl    Cl    0.439399 0.296510 0.752958 -0.624667
Cl6   Cl    Cl    0.560731 0.797212 0.247131 -0.624532
Cl7   Cl    Cl    0.241959 0.993065 0.501328 -0.490645
Cl8   Cl    Cl    0.757951 0.492342 0.498589 -0.490573
N3    N     N_3   0.350596 0.399245 0.868714 -0.559755
H11   H     H_    0.325448 0.527104 0.878608 0.236580
H12   H     H_    0.379606 0.349119 0.923541 0.244341
N4    N     N_3   0.649705 0.900317 0.131559 -0.559784
H13   H     H_    0.675016 0.028063 0.121797 0.236622
H14   H     H_    0.620632 0.850610 0.076683 0.244340
Cl9   Cl    Cl    0.104501 0.967026 0.597358 -0.299248
Cl10  Cl    Cl    0.895374 0.465999 0.402524 -0.299335

loop_
_geom_bond_atom_site_label_1
_geom_bond_atom_site_label_2
_ccdc_geom_bond_type
C7    C34   S    
O16   C36   A    
C22   C24   A    
C6    N2    S    
O1    C3    A    
O2    C4    A    
C2    O7    A    
N3    H11   S    
C20   H6    S    
C7    Cl3   S    
C23   C25   A    
O5    C3    A    
C4    C11   S    
C26   C28   A    
C16   C20   A    
N4    H14   S    
C16   C35   S    
C3    C12   S    
C8    Cl4   S    
C29   C31   A    
C21   Cl1   S    
C17   C19   A    
O16   V4    S    
C18   C26   A    
C19   H5    S    
C32   Cl10  S    
N2    H9    S    
C16   C22   A    
O13   V3    S    
C6    C8    D    
C24   C26   A    
O19   V4    S    
O18   V4    S    
O6    V2    S    
C33   O18   A    
C13   C27   A    
C25   C27   A    
C15   C36   S    
C14   C28   A    
C18   N4    S    
C8    C33   S    
N3    H12   S    
C30   C32   A    
O13   C33   A    
O14   C34   A    
C5    N1    S    
N1    H7    S    
N4    H13   S    
O4    C2    A    
C5    C9    S    
C15   C21   A    
C13   C29   A    
N1    H8    S    
O11   V4    S    
C31   Cl9   S    
O4    V2    S    
O6    C4    A    
C29   Cl7   S    
O1    V2    S    
O2    V1    S    
C11   H3    S    
C9    C11   D    
C10   C12   D    
O3    V1    S    
C23   C31   A    
C1    C14   S    
C22   Cl2   S    
C24   C32   A    
C9    H1    S    
C6    C10   S    
C14   C30   A    
C12   H4    S    
O15   V3    S    
O3    C1    A    
N2    H10   S    
O15   C35   A    
O14   V4    S    
C27   Cl5   S    
C34   O17   A    
C17   C25   A    
O20   V3    S    
C28   Cl6   S    
O7    V1    S    
C1    O8    A    
C21   C23   A    
O12   C36   A    
O17   V3    S    
C30   Cl8   S    
O11   C35   A    
C15   C19   A    
O5    V1    S    
C5    C7    D    
C18   C20   A    
C2    C13   S    
C10   H2    S    
O9    V2    S    
O10   V1    S    
O8    V2    S    
C17   N3    S    
O12   V3    S    
