data_mof_unit_7999.cif
_audit_creation_date              2012-12-10T16:50:10-0500
_audit_creation_method            fapswitch 2.2
_symmetry_space_group_name_H-M    P1
_symmetry_Int_Tables_number       1
_space_group_crystal_system       triclinic
_cell_length_a                    23.349956
_cell_length_b                    8.776288
_cell_length_c                    7.517734
_cell_angle_alpha                 102.866655
_cell_angle_beta                  94.324544
_cell_angle_gamma                 91.978969
_cell_volume                      1495.5314849

loop_
_atom_site_label
_atom_site_type_symbol
_atom_type_description
_atom_site_fract_x
_atom_site_fract_y
_atom_site_fract_z
_atom_type_partial_charge
C1    C     C_R   0.498291 0.200125 0.453628 0.853806
C2    C     C_R   0.501688 0.799818 0.546245 0.859047
C3    C     C_R   0.238745 0.621187 0.497441 0.390362
C4    C     C_R   0.761837 0.430239 0.420480 0.423018
C5    C     C_R   0.298480 0.624513 0.487670 0.308393
C6    C     C_R   0.703515 0.405614 0.440951 0.303419
C7    C     C_R   0.329068 0.495235 0.511474 -0.377963
C8    C     C_R   0.670809 0.534262 0.498930 -0.423064
C9    C     C_R   0.300781 0.368469 0.560203 0.274056
C10   C     C_R   0.699348 0.681052 0.574224 0.265113
C11   C     C_R   0.244231 0.381679 0.610427 0.413579
C12   C     C_R   0.758700 0.685625 0.625532 0.430503
C13   C     C_R   0.211604 0.503842 0.569148 -0.018396
C14   C     C_R   0.792037 0.561023 0.540315 -0.054045
C15   C     C_2   0.496717 0.032386 0.427762 -0.381126
C16   C     C_2   0.503583 0.967409 0.571431 -0.392369
C17   C     C_R   0.391358 0.498243 0.502463 0.929177
C18   C     C_R   0.608571 0.510276 0.499593 0.911142
C19   C     C_R   0.889849 0.692589 0.605447 0.611419
C20   C     C_R   0.114876 0.379909 0.515988 0.606923
C21   C     C_R   0.878196 0.419451 0.587611 0.636204
C22   C     C_R   0.129386 0.643435 0.689893 0.631638
C23   C     C_R   0.936887 0.402328 0.566518 -0.118089
C24   C     C_R   0.069566 0.660992 0.685929 -0.118272
C25   C     C_R   0.973072 0.538557 0.607511 -0.087372
C26   C     C_R   0.032939 0.528036 0.609747 -0.082106
C27   C     C_R   0.949326 0.685382 0.645930 -0.090384
C28   C     C_R   0.055805 0.384183 0.535095 -0.081906
C29   C     C_R   0.960098 0.255644 0.502026 0.484849
C30   C     C_R   0.045254 0.806717 0.751350 0.480078
C31   C     C_R   0.019044 0.249240 0.477981 -0.296618
C32   C     C_R   0.985396 0.819221 0.720399 -0.240897
Cu1   Cu    Cu3+1 0.506340 0.517380 0.684380 1.036031
Cu2   Cu    Cu3+1 0.493660 0.482620 0.315620 1.022669
H1    H     H_    0.036133 0.137224 0.421770 0.187714
H2    H     H_    0.966706 0.931125 0.765010 0.194285
H3    H     H_    0.489623 0.961717 0.288756 0.191398
H4    H     H_    0.511439 0.037953 0.709858 0.171432
N1    N     N_R   0.854139 0.559593 0.580805 -0.439826
N2    N     N_R   0.150900 0.507878 0.595413 -0.423602
N3    N     N_2   0.484110 0.456420 0.038520 0.140721
N4    N     N_2   0.515890 0.543580 0.961480 0.159238
O1    O     O_R   0.504120 0.286130 0.619770 -0.571538
O2    O     O_R   0.495880 0.713870 0.380230 -0.552481
O3    O     O_R   0.493410 0.256770 0.308360 -0.628666
O4    O     O_R   0.506590 0.743230 0.691640 -0.585526
O5    O     O_R   0.423230 0.514630 0.655730 -0.533550
O6    O     O_R   0.576770 0.485370 0.344270 -0.573610
O7    O     O_R   0.412530 0.485280 0.344320 -0.583851
O8    O     O_R   0.587470 0.514720 0.655680 -0.607563
O9    O     O_2   0.869181 0.829314 0.583929 -0.452537
O10   O     O_2   0.135758 0.250178 0.414864 -0.533683
O11   O     O_2   0.845802 0.298100 0.615957 -0.449253
O12   O     O_2   0.165856 0.761476 0.783232 -0.497284
O13   O     O_3   0.925490 0.119144 0.461961 -0.520677
C33   C     C_3   0.915540 0.067331 0.270220 -0.171632
H5    H     H_    0.895988 0.158838 0.207202 0.169346
H6    H     H_    0.884748 0.964090 0.240015 0.192358
H7    H     H_    0.955667 0.029427 0.206439 0.131107
O14   O     O_3   0.079177 0.931402 0.857977 -0.556538
C34   C     C_3   0.081646 0.055026 0.767029 -0.179250
H8    H     H_    0.094098 0.014544 0.624691 0.192452
H9    H     H_    0.115084 0.143671 0.841734 0.205335
H10   H     H_    0.040364 0.114024 0.769319 0.135906
O15   O     O_3   0.207870 0.739820 0.450133 -0.526845
C35   C     C_3   0.184188 0.687625 0.267623 -0.275389
H11   H     H_    0.153586 0.584492 0.251851 0.149883
H12   H     H_    0.218516 0.659750 0.172309 0.165029
H13   H     H_    0.159803 0.783073 0.228357 0.221736
O16   O     O_3   0.790714 0.314449 0.311623 -0.515235
C36   C     C_3   0.771449 0.303335 0.126488 -0.310784
H14   H     H_    0.796492 0.215371 0.039357 0.216191
H15   H     H_    0.778737 0.416913 0.086658 0.129106
H16   H     H_    0.725305 0.263056 0.097499 0.167152
O17   O     O_3   0.327231 0.754856 0.456463 -0.562005
C37   C     C_3   0.342838 0.857584 0.627966 -0.275282
H17   H     H_    0.377472 0.941157 0.611495 0.177826
H18   H     H_    0.360510 0.797013 0.734126 0.142666
H19   H     H_    0.305443 0.924799 0.677298 0.220435
O18   O     O_3   0.682778 0.257142 0.442439 -0.570312
C38   C     C_3   0.681278 0.244027 0.627394 -0.247103
H20   H     H_    0.635973 0.224777 0.655682 0.154749
H21   H     H_    0.700602 0.346617 0.733728 0.113139
H22   H     H_    0.705438 0.142377 0.648720 0.224430
O19   O     O_3   0.327872 0.230751 0.560698 -0.593077
C39   C     C_3   0.332036 0.148749 0.377165 0.026199
H23   H     H_    0.366752 0.065661 0.376422 0.178743
H24   H     H_    0.344585 0.226411 0.287416 0.106797
C40   C     C_3   0.275520 0.058499 0.293349 -0.260713
H25   H     H_    0.260154 0.987519 0.386700 0.306334
H26   H     H_    0.242249 0.142297 0.274422 0.222785
C41   C     C_3   0.283440 0.952314 0.107441 -0.896378
H27   H     H_    0.300290 0.021868 0.014313 0.227475
H28   H     H_    0.241436 0.894960 0.045265 0.302353
H29   H     H_    0.313787 0.860523 0.122989 0.281573
O20   O     O_3   0.670375 0.817992 0.615375 -0.588785
C42   C     C_3   0.645310 0.854172 0.452226 0.043590
H30   H     H_    0.621735 0.961849 0.493146 0.175699
H31   H     H_    0.612144 0.764698 0.380389 0.181557
C43   C     C_3   0.689538 0.881828 0.318455 -0.341043
H32   H     H_    0.724847 0.965128 0.391901 0.283716
H33   H     H_    0.709152 0.770235 0.259918 0.161018
C44   C     C_3   0.661462 0.945132 0.160591 -0.775425
H34   H     H_    0.631870 0.855673 0.069254 0.264970
H35   H     H_    0.695091 0.980366 0.078817 0.263302
H36   H     H_    0.635700 0.046998 0.211011 0.281106
O21   O     O_3   0.219335 0.267585 0.684877 -0.516980
C45   C     C_3   0.237890 0.298218 0.872898 -0.281948
H37   H     H_    0.223668 0.413274 0.946305 0.135776
H38   H     H_    0.285380 0.293299 0.895796 0.182356
H39   H     H_    0.218143 0.206789 0.933117 0.198420
O22   O     O_3   0.782270 0.810658 0.759694 -0.491459
C46   C     C_3   0.787011 0.763829 0.927678 -0.290215
H40   H     H_    0.821921 0.681243 0.930926 0.154817
H41   H     H_    0.745747 0.710186 0.956278 0.130768
H42   H     H_    0.798101 0.868908 0.039371 0.190556
O23   O     O_3   0.436410 0.392222 0.933437 -0.460238
C47   C     C_3   0.426904 0.240778 0.960323 -0.127539
H43   H     H_    0.406932 0.244613 0.089019 0.146759
H44   H     H_    0.467021 0.175943 0.957448 0.129338
H45   H     H_    0.396185 0.175026 0.847880 0.149395
O24   O     O_3   0.562182 0.616587 0.068918 -0.495600
C48   C     C_3   0.611799 0.536162 0.014523 -0.132572
H46   H     H_    0.637221 0.601248 0.934707 0.154872
H47   H     H_    0.602478 0.411207 0.942875 0.136247
H48   H     H_    0.641717 0.536904 0.135571 0.117016

loop_
_geom_bond_atom_site_label_1
_geom_bond_atom_site_label_2
_ccdc_geom_bond_type
C35   H12   S    
O13   C33   S    
N3    N4    D    
C37   H19   S    
C42   C43   S    
C4    O16   S    
C38   H20   S    
C48   H46   S    
C22   O12   S    
O19   C39   S    
C45   H37   S    
C18   O8    A    
Cu1   N4    S    
C32   H2    S    
C37   H18   S    
C20   N2    A    
C39   H24   S    
C48   H47   S    
C35   H13   S    
C15   C16   D    
C33   H5    S    
C34   H9    S    
C47   H43   S    
C15   H3    S    
C13   N2    S    
C2    O4    A    
C42   H31   S    
C14   N1    S    
C1    O1    A    
C2    O2    A    
C7    C17   S    
C30   O14   S    
O21   C45   S    
O16   C36   S    
C1    C15   S    
C40   H26   S    
C19   C27   A    
C3    C13   A    
C46   H42   S    
C9    O19   S    
C23   C25   A    
C35   H11   S    
Cu1   O4    S    
C3    O15   S    
Cu2   N3    S    
C43   H33   S    
O22   C46   S    
C38   H21   S    
C42   H30   S    
C47   H44   S    
C33   H6    S    
Cu1   O1    S    
Cu2   O2    S    
C37   H17   S    
C4    C6    A    
C17   O7    A    
C5    C7    A    
C39   H23   S    
C48   H48   S    
C6    C8    A    
C29   O13   S    
Cu1   O8    S    
C43   C44   S    
C8    C18   S    
O14   C34   S    
C47   H45   S    
C5    O17   S    
C34   H10   S    
O17   C37   S    
C21   O11   S    
C6    O18   S    
C21   N1    A    
C10   O20   S    
C29   C31   A    
C22   N2    A    
O20   C42   S    
C41   H28   S    
Cu1   Cu2   S    
C44   H35   S    
Cu2   O3    S    
C40   C41   S    
C9    C11   A    
C10   C12   A    
C8    C10   A    
C12   C14   A    
C21   C23   A    
C11   O21   S    
Cu1   O5    S    
C22   C24   A    
Cu2   O6    S    
C23   C29   A    
C12   O22   S    
C38   H22   S    
C2    C16   S    
N4    O24   S    
C36   H15   S    
C46   H40   S    
C7    C9    A    
Cu2   O7    S    
C27   C32   A    
C28   C31   A    
C17   O5    A    
C24   C26   A    
O18   C38   S    
C3    C5    A    
C39   C40   S    
C18   O6    A    
C36   H16   S    
C33   H7    S    
C25   C27   A    
C20   C28   A    
C26   C28   A    
C45   H39   S    
C25   C26   A    
C36   H14   S    
C20   O10   S    
O23   C47   S    
C30   C32   A    
C11   C13   A    
C1    O3    A    
C41   H27   S    
C45   H38   S    
C44   H36   S    
C31   H1    S    
C41   H29   S    
C4    C14   A    
C34   H8    S    
C24   C30   A    
C19   O9    S    
C19   N1    A    
O15   C35   S    
C44   H34   S    
O24   C48   S    
C43   H32   S    
N3    O23   S    
C40   H25   S    
C16   H4    S    
C46   H41   S    
