data_mof_unit_52622.cif
_audit_creation_date              2013-03-05T15:58:24-0500
_audit_creation_method            fapswitch 2.2
_symmetry_space_group_name_H-M    P1
_symmetry_Int_Tables_number       1
_space_group_crystal_system       triclinic
_cell_length_a                    7.216967
_cell_length_b                    14.326757
_cell_length_c                    15.982202
_cell_angle_alpha                 89.999884
_cell_angle_beta                  89.999813
_cell_angle_gamma                 90.000468
_cell_volume                      1652.49148246

loop_
_atom_site_label
_atom_site_type_symbol
_atom_site_description
_atom_site_fract_x
_atom_site_fract_y
_atom_site_fract_z
_atom_type_partial_charge
O1    O     O_R   0.388780 0.834790 0.412340 -0.565330
O2    O     O_R   0.111220 0.165210 0.912340 -0.565349
O3    O     O_R   0.888780 0.665210 0.587660 -0.565320
O4    O     O_R   0.611220 0.334790 0.087660 -0.565321
O5    O     O_R   0.059040 0.845930 0.587040 -0.598409
O6    O     O_R   0.440960 0.154070 0.087040 -0.598406
O7    O     O_R   0.559040 0.654070 0.412960 -0.598416
O8    O     O_R   0.940960 0.345930 0.912960 -0.598399
C1    C     C_R   0.227924 0.867928 0.615261 0.938585
C2    C     C_R   0.272076 0.132073 0.115262 0.938572
C3    C     C_R   0.727923 0.632072 0.384740 0.938611
C4    C     C_R   0.772077 0.367926 0.884738 0.938638
O9    O     O_R   0.059070 0.845930 0.412970 -0.569042
O10   O     O_R   0.440930 0.154070 0.912970 -0.569028
O11   O     O_R   0.559070 0.654070 0.587030 -0.569055
O12   O     O_R   0.940930 0.345930 0.087030 -0.569045
O13   O     O_R   0.888760 0.665210 0.412340 -0.586073
O14   O     O_R   0.611240 0.334790 0.912340 -0.586069
O15   O     O_R   0.388760 0.834790 0.587660 -0.586076
O16   O     O_R   0.111240 0.165210 0.087660 -0.586090
C5    C     C_R   0.227164 0.867113 0.383992 0.873022
C6    C     C_R   0.272837 0.132888 0.883991 0.873013
C7    C     C_R   0.727163 0.632884 0.616006 0.873017
C8    C     C_R   0.772837 0.367111 0.116010 0.873038
O17   O     O_3   0.222280 0.690700 0.500000 -0.257268
O18   O     O_3   0.277720 0.309300 0.000000 -0.257249
O19   O     O_3   0.722280 0.809300 0.500000 -0.257266
O20   O     O_3   0.777720 0.190700 0.000000 -0.257281
V1    V     V_3+5 0.947430 0.761000 0.500000 1.235775
V2    V     V_3+5 0.552570 0.239000 0.000000 1.235789
V3    V     V_3+5 0.447430 0.739000 0.500000 1.235765
V4    V     V_3+5 0.052570 0.261000 0.000000 1.235784
C9    C     C_3   0.823344 0.607668 0.767480 -0.415460
C10   C     C_3   0.676613 0.392329 0.267481 -0.415469
C11   C     C_3   0.323361 0.892331 0.232519 -0.415474
C12   C     C_3   0.176618 0.107669 0.732520 -0.415490
H1    H     H_    0.964554 0.633518 0.753431 0.200943
H2    H     H_    0.535429 0.366454 0.253415 0.200948
H3    H     H_    0.464568 0.866481 0.246573 0.200951
H4    H     H_    0.035412 0.133518 0.746580 0.200966
H5    H     H_    0.744940 0.670525 0.787225 0.207959
H6    H     H_    0.755029 0.329486 0.287252 0.208021
H7    H     H_    0.244961 0.829474 0.212769 0.207966
H8    H     H_    0.255010 0.170527 0.712763 0.207966
C13   C     C_3   0.834109 0.535688 0.840353 -0.272585
C14   C     C_3   0.665748 0.464324 0.340340 -0.272656
C15   C     C_3   0.334142 0.964315 0.159649 -0.272600
C16   C     C_3   0.165822 0.035683 0.659652 -0.272614
H9    H     H_    0.752047 0.562020 0.893953 0.247558
H10   H     H_    0.747657 0.437979 0.393987 0.247475
H11   H     H_    0.252113 0.937979 0.106038 0.247533
H12   H     H_    0.247819 0.062024 0.606032 0.247529
H13   H     H_    0.980302 0.529462 0.861785 0.167818
H14   H     H_    0.519503 0.470589 0.361700 0.167783
H15   H     H_    0.480345 0.970552 0.138231 0.167803
H16   H     H_    0.019608 0.029436 0.638249 0.167795
H17   H     H_    0.009316 0.507048 0.658444 0.131192
H18   H     H_    0.490693 0.492975 0.158475 0.131197
H19   H     H_    0.509314 0.992959 0.341547 0.131164
H20   H     H_    0.990694 0.007029 0.841547 0.131123
H21   H     H_    0.021444 0.394053 0.755461 0.148057
H22   H     H_    0.478687 0.606074 0.255407 0.148055
H23   H     H_    0.521413 0.105977 0.244549 0.148058
H24   H     H_    0.978624 0.893993 0.744565 0.148055
C17   C     C_3   0.866463 0.478493 0.664886 0.260807
C18   C     C_3   0.633572 0.521512 0.164886 0.260813
C19   C     C_3   0.366455 0.021508 0.335112 0.260819
C20   C     C_3   0.133564 0.978488 0.835115 0.260823
C21   C     C_3   0.538411 0.524756 0.713554 -0.147320
C22   C     C_3   0.961601 0.475214 0.213580 -0.147365
C23   C     C_3   0.038410 0.975229 0.286436 -0.147304
C24   C     C_3   0.461599 0.024786 0.786424 -0.147314
C25   C     C_3   0.735764 0.562542 0.688145 -0.157609
C26   C     C_3   0.764237 0.437449 0.188152 -0.157574
C27   C     C_3   0.235766 0.937454 0.311852 -0.157608
C28   C     C_3   0.264236 0.062549 0.811850 -0.157584
H25   H     H_    0.475553 0.490880 0.657833 0.171346
H26   H     H_    0.024473 0.509114 0.157873 0.171393
H27   H     H_    0.975537 0.009106 0.342153 0.171361
H28   H     H_    0.524494 0.990910 0.842136 0.171370
C29   C     C_3   0.759962 0.438268 0.813090 0.008824
C30   C     C_3   0.740039 0.561726 0.313095 0.008882
C31   C     C_3   0.259961 0.061729 0.186908 0.008856
C32   C     C_3   0.240042 0.938272 0.686906 0.008858
C33   C     C_3   0.874444 0.404953 0.736709 -0.464459
C34   C     C_3   0.625687 0.595080 0.236686 -0.464512
C35   C     C_3   0.374413 0.095053 0.263295 -0.464468
C36   C     C_3   0.125625 0.904937 0.763301 -0.464469
C37   C     C_3   0.555724 0.449748 0.783088 -0.392143
C38   C     C_3   0.944303 0.550190 0.283143 -0.392101
C39   C     C_3   0.055719 0.050235 0.216899 -0.392155
C40   C     C_3   0.444293 0.949783 0.716884 -0.392126
H29   H     H_    0.465726 0.467069 0.837508 0.201799
H30   H     H_    0.034192 0.532806 0.337587 0.201889
H31   H     H_    0.965742 0.032904 0.162474 0.201811
H32   H     H_    0.534247 0.967125 0.662452 0.201838
H33   H     H_    0.503997 0.381842 0.758425 0.166559
H34   H     H_    0.996174 0.618090 0.258521 0.166461
H35   H     H_    0.003961 0.118138 0.241557 0.166547
H36   H     H_    0.496083 0.881882 0.741536 0.166523
H37   H     H_    0.821926 0.336064 0.715263 0.188397
H38   H     H_    0.678391 0.663932 0.215227 0.188422
H39   H     H_    0.321852 0.163932 0.284744 0.188366
H40   H     H_    0.178231 0.836065 0.784753 0.188392
N1    N     N_R   0.819034 0.434771 0.584721 0.218533
O21   O     O_R   0.940338 0.435064 0.524507 -0.396315
O22   O     O_R   0.667693 0.386410 0.575828 -0.407336
N2    N     N_R   0.680964 0.565201 0.084701 0.218511
O23   O     O_R   0.559547 0.564969 0.024527 -0.396236
O24   O     O_R   0.832407 0.613475 0.075752 -0.407360
N3    N     N_R   0.319035 0.065224 0.415281 0.218527
O25   O     O_R   0.440385 0.064972 0.475477 -0.396262
O26   O     O_R   0.167643 0.113540 0.424193 -0.407338
N4    N     N_R   0.180989 0.934776 0.915286 0.218519
O27   O     O_R   0.059595 0.934982 0.975468 -0.396235
O28   O     O_R   0.332427 0.886496 0.924209 -0.407351
C41   C     C_2   0.403752 0.600734 0.740886 0.951163
O29   O     O_2   0.278741 0.624465 0.693927 -0.661668
O30   O     O_R   0.418531 0.641690 0.820083 -0.766955
H41   H     H_    0.317934 0.689489 0.831040 0.339615
C42   C     C_2   0.096249 0.399220 0.240888 0.951128
O31   O     O_2   0.221279 0.375514 0.193927 -0.661652
O32   O     O_R   0.081445 0.358226 0.320070 -0.766941
H42   H     H_    0.182038 0.310418 0.331016 0.339610
C43   C     C_2   0.903767 0.899244 0.259103 0.951144
O33   O     O_2   0.778761 0.875506 0.306061 -0.661663
O34   O     O_R   0.918551 0.858293 0.179904 -0.766956
H43   H     H_    0.817954 0.810495 0.168941 0.339610
C44   C     C_2   0.596220 0.100782 0.759088 0.951095
O35   O     O_2   0.721214 0.124535 0.806048 -0.661657
O36   O     O_R   0.581426 0.141731 0.679887 -0.766922
H44   H     H_    0.681994 0.189547 0.668928 0.339664

loop_
_geom_bond_atom_site_label_1
_geom_bond_atom_site_label_2
_geom_bond_distance
_ccdc_geom_bond_type
O17   V3    1.766104 S    
C31   C35   1.549398 S    
O1    C5    1.334228 A    
O19   V1    1.766113 S    
C9    C13   1.557547 S    
C21   H25   1.111042 S    
N3    O25   1.300995 A    
C10   H6    1.109387 S    
C6    C28   1.532555 S    
C24   C28   1.576917 S    
C11   C15   1.557556 S    
C23   H27   1.111035 S    
N4    O27   1.301031 A    
C17   C25   1.574132 S    
O32   H42   1.013303 S    
O7    C3    1.337267 A    
N1    O22   1.301222 A    
C11   C27   1.557288 S    
O9    V1    2.016023 S    
C38   H34   1.114144 S    
O10   V2    2.016031 S    
C18   C34   1.559149 S    
C41   O30   1.399199 S    
O4    C8    1.334228 A    
C22   H26   1.111050 S    
C18   C26   1.574162 S    
C2    C31   1.527896 S    
O1    V3    2.006326 S    
O13   V1    2.006357 S    
N2    O23   1.301064 A    
O2    V4    2.006329 S    
O3    V1    2.006319 S    
C22   C26   1.576928 S    
C12   H4    1.107325 S    
C12   C28   1.557307 S    
H19   C19   1.113939 S    
C14   C30   1.557033 S    
O3    C7    1.334226 A    
C1    O15   1.329407 A    
C2    O16   1.329410 A    
O2    C6    1.334227 A    
C21   C25   1.576883 S    
C10   C14   1.557558 S    
C15   C31   1.556989 S    
C11   H7    1.109386 S    
C29   C37   1.558712 S    
O11   C7    1.333514 A    
O15   V3    2.006357 S    
O12   C8    1.333513 A    
C22   C38   1.550944 S    
C7    C25   1.532554 S    
C21   C37   1.550951 S    
C17   N1    1.466654 S    
C36   H40   1.111432 S    
H18   C18   1.113965 S    
C38   H30   1.113558 S    
C12   C16   1.557557 S    
O5    V1    2.016053 S    
C3    C30   1.527897 S    
O7    V3    2.016059 S    
O8    V4    2.016058 S    
C24   C44   1.523221 S    
H17   C17   1.113933 S    
O18   V4    1.766103 S    
C15   H11   1.107681 S    
C1    C32   1.527901 S    
C30   C34   1.549427 S    
C39   H31   1.113521 S    
C9    H1    1.107320 S    
C16   C32   1.557013 S    
C37   H33   1.114099 S    
C11   H3    1.107319 S    
O5    C1    1.337273 A    
H22   C34   1.113471 S    
C13   H9    1.107670 S    
O8    C4    1.337271 A    
C14   H14   1.112908 S    
O9    C5    1.333514 A    
N3    O26   1.301235 A    
C20   C28   1.574161 S    
C17   C33   1.559171 S    
C42   O31   1.221838 D    
H21   C33   1.113423 S    
C10   C26   1.557310 S    
C35   H39   1.111404 S    
C9    C25   1.557286 S    
O6    V2    2.016047 S    
C43   O33   1.221801 D    
C20   C36   1.559154 S    
C12   H8    1.109401 S    
C19   C27   1.574138 S    
O36   H44   1.013286 S    
C34   H38   1.111452 S    
C33   H37   1.111404 S    
C40   H36   1.114124 S    
C15   H15   1.112869 S    
C44   O35   1.221816 D    
O16   V4    2.006356 S    
C19   N3    1.466652 S    
C16   H16   1.112881 S    
C5    C27   1.532553 S    
C3    O13   1.329409 A    
H23   C35   1.113433 S    
C10   H2    1.107316 S    
C13   C29   1.556981 S    
C32   C36   1.549412 S    
C18   N2    1.466657 S    
O6    C2    1.337267 A    
N4    O28   1.301258 A    
O30   H41   1.013280 S    
O11   V3    2.016035 S    
O12   V4    2.016034 S    
C31   C39   1.558710 S    
N1    O21   1.300975 A    
C14   H10   1.107720 S    
C19   C35   1.559158 S    
C30   C38   1.558731 S    
C9    H5    1.109386 S    
O10   C6    1.333515 A    
O20   V2    1.766114 S    
C24   H28   1.111045 S    
C41   O29   1.221810 D    
C23   C27   1.576891 S    
C22   C42   1.523211 S    
C8    C26   1.532559 S    
C24   C40   1.550955 S    
C21   C41   1.523203 S    
N2    O24   1.301281 A    
C4    C29   1.527899 S    
C40   H32   1.113538 S    
C37   H29   1.113513 S    
O4    V2    2.006324 S    
C42   O32   1.399223 S    
O14   V2    2.006350 S    
C13   H13   1.112859 S    
C16   H12   1.107694 S    
C23   C39   1.550949 S    
H20   C20   1.113964 S    
C4    O14   1.329406 A    
C43   O34   1.399201 S    
C23   C43   1.523199 S    
C32   C40   1.558733 S    
C39   H35   1.114107 S    
H24   C36   1.113445 S    
C29   C33   1.549395 S    
O34   H43   1.013270 S    
C20   N4    1.466664 S    
C44   O36   1.399230 S    
