data_mof_unit_68498.cif
_audit_creation_date              2012-12-10T16:51:33-0500
_audit_creation_method            fapswitch 2.2
_symmetry_space_group_name_H-M    P1
_symmetry_Int_Tables_number       1
_space_group_crystal_system       triclinic
_cell_length_a                    7.8168
_cell_length_b                    8.532096
_cell_length_c                    12.024539
_cell_angle_alpha                 91.61102
_cell_angle_beta                  101.391609
_cell_angle_gamma                 93.767072
_cell_volume                      783.771285463

loop_
_atom_site_label
_atom_site_type_symbol
_atom_type_description
_atom_site_fract_x
_atom_site_fract_y
_atom_site_fract_z
_atom_type_partial_charge
C1    C     C_R   0.039269 0.793331 0.486991 0.939604
C2    C     C_R   0.160138 0.526975 0.833731 -0.135169
C3    C     C_2   0.055175 0.956196 0.470963 -0.329268
C4    C     C_R   0.107240 0.510035 0.710930 0.900968
C5    C     C_2   0.914759 0.041833 0.463917 -0.307704
C6    C     C_R   0.950774 0.205120 0.492187 0.974767
C7    C     C_R   0.891643 0.486203 0.288741 0.814550
C8    C     C_R   0.755208 0.231979 0.025686 -0.265703
C9    C     C_R   0.827334 0.442983 0.168792 -0.090345
C10   C     C_R   0.102695 0.654363 0.887954 -0.161887
C11   C     C_R   0.172244 0.692005 0.001060 -0.121408
C12   C     C_R   0.384052 0.493332 0.999053 0.047649
C13   C     C_R   0.312539 0.613217 0.059068 -0.038341
C14   C     C_2   0.029448 0.219887 0.166788 0.948958
C15   C     C_2   0.728887 0.979963 0.420149 0.992811
C16   C     C_2   0.504391 0.056172 0.851906 0.951991
C17   C     C_2   0.357196 0.643530 0.184019 0.948748
C18   C     C_2   0.167805 0.184453 0.774713 0.946825
C19   C     C_R   0.283905 0.432154 0.894420 -0.049005
C20   C     C_R   0.550493 0.433981 0.035278 0.116869
C21   C     C_R   0.592670 0.292950 0.984373 0.089676
C22   C     C_R   0.469560 0.212291 0.896613 -0.064224
C23   C     C_R   0.311583 0.280037 0.853114 -0.201148
C24   C     C_R   0.679970 0.515681 0.116922 -0.180107
C25   C     C_R   0.870626 0.302079 0.119881 -0.158679
H1    H     H_    0.661683 0.631861 0.148507 0.149255
H2    H     H_    0.116364 0.784363 0.042826 0.207198
H3    H     H_    0.978990 0.247898 0.856921 0.310152
H4    H     H_    0.188915 0.008131 0.485032 0.241251
H5    H     H_    0.896696 0.007618 0.163625 0.288748
H6    H     H_    0.788723 0.846222 0.293426 0.285874
H7    H     H_    0.471042 0.369648 0.421081 0.255947
H8    H     H_    0.529309 0.628242 0.580782 0.201711
H9    H     H_    0.454409 0.821136 0.848125 0.339958
H10   H     H_    0.791043 0.125324 0.988102 0.164912
H11   H     H_    0.004191 0.725535 0.842408 0.183967
H12   H     H_    0.345866 0.788215 0.317794 0.383478
N1    N     N_2   0.434800 0.456690 0.470850 -0.111789
N2    N     N_2   0.565200 0.543310 0.529150 -0.144987
O1    O     O_R   0.893060 0.738880 0.507150 -0.598527
O2    O     O_R   0.020434 0.057883 0.181970 -0.771450
O3    O     O_2   0.612239 0.025083 0.464533 -0.547396
O4    O     O_R   0.684949 0.872565 0.327286 -0.765399
O5    O     O_2   0.605647 0.047323 0.786759 -0.563744
O6    O     O_R   0.420338 0.920317 0.884055 -0.796061
O7    O     O_2   0.419527 0.542235 0.245883 -0.583076
O8    O     O_R   0.317484 0.784758 0.231756 -0.740815
O9    O     O_2   0.201883 0.100219 0.699732 -0.590240
O10   O     O_R   0.993606 0.185539 0.786979 -0.741863
O11   O     O_R   0.172250 0.711130 0.488470 -0.619115
O12   O     O_R   0.944700 0.520730 0.667600 -0.598039
O13   O     O_R   0.223890 0.492980 0.648920 -0.615476
O14   O     O_R   0.827750 0.288870 0.511530 -0.583572
O15   O     O_R   0.106940 0.261120 0.492850 -0.593995
O16   O     O_R   0.776110 0.507020 0.351080 -0.572029
O17   O     O_R   0.055300 0.479270 0.332400 -0.586833
O18   O     O_2   0.172186 0.292716 0.188172 -0.533681
Zn1   Zn    Zn3+2 0.813580 0.518530 0.512470 1.040367
Zn2   Zn    Zn3+2 0.186420 0.481470 0.487530 1.034840

loop_
_geom_bond_atom_site_label_1
_geom_bond_atom_site_label_2
_ccdc_geom_bond_type
C16   O6    S    
C2    C4    S    
O14   Zn1   S    
H5    O2    S    
O13   Zn2   S    
H7    N1    S    
H12   O8    S    
H3    O10   S    
C16   O5    D    
C13   C17   S    
C19   C23   A    
O17   Zn2   S    
C7    O16   A    
C12   C20   A    
C8    C21   A    
C2    C19   A    
C15   O4    S    
C9    C24   A    
H9    O6    S    
C21   C22   A    
C12   C13   A    
C8    C25   A    
C11   C13   A    
H8    N2    S    
H6    O4    S    
C7    O17   A    
C6    O15   A    
C14   O2    S    
C5    C6    S    
O11   Zn2   S    
C12   C19   A    
C24   H1    S    
C11   H2    S    
C4    O13   A    
C7    C9    S    
O15   Zn2   S    
C14   C25   S    
N1    N2    D    
C5    C15   S    
O1    Zn1   S    
C10   C11   A    
C6    O14   A    
C9    C25   A    
C18   C23   S    
C2    C10   A    
C17   O8    S    
C17   O7    D    
C18   O10   S    
C3    H4    S    
C1    O11   A    
O16   Zn1   S    
O12   Zn1   S    
C14   O18   D    
C20   C24   A    
C22   C23   A    
C10   H11   S    
C4    O12   A    
C1    O1    A    
C3    C5    D    
C20   C21   A    
N2    Zn1   S    
N1    Zn2   S    
C15   O3    D    
C16   C22   S    
C1    C3    S    
C8    H10   S    
C18   O9    D    
