data_mof_unit_23149.cif
_audit_creation_date              2013-03-05T15:52:08-0500
_audit_creation_method            fapswitch 2.2
_symmetry_space_group_name_H-M    P1
_symmetry_Int_Tables_number       1
_space_group_crystal_system       triclinic
_cell_length_a                    6.9609
_cell_length_b                    19.597137
_cell_length_c                    23.381272
_cell_angle_alpha                 96.064754
_cell_angle_beta                  91.192323
_cell_angle_gamma                 88.657914
_cell_volume                      3170.26537028

loop_
_atom_site_label
_atom_site_type_symbol
_atom_site_description
_atom_site_fract_x
_atom_site_fract_y
_atom_site_fract_z
_atom_type_partial_charge
O1    O     O_R   0.617180 0.809390 0.808140 -0.575817
O2    O     O_R   0.382820 0.190610 0.191860 -0.575692
O3    O     O_R   0.293300 0.672410 0.795490 -0.589703
O4    O     O_R   0.706700 0.327590 0.204510 -0.589152
O5    O     O_R   0.117220 0.690610 0.691850 -0.567082
O6    O     O_R   0.882780 0.309390 0.308150 -0.566091
C1    C     C_R   0.464871 0.647903 0.805393 1.072021
C2    C     C_R   0.535151 0.352037 0.194548 1.073515
O7    O     O_R   0.287840 0.807750 0.814460 -0.577709
O8    O     O_R   0.712160 0.192250 0.185540 -0.577744
O9    O     O_R   0.111720 0.826910 0.710960 -0.588262
O10   O     O_R   0.888280 0.173090 0.289040 -0.588100
C3    C     C_R   0.456516 0.830743 0.833175 0.940968
C4    C     C_R   0.543484 0.169256 0.166825 0.940962
O11   O     O_R   0.622680 0.673080 0.789040 -0.574354
O12   O     O_R   0.377320 0.326920 0.210960 -0.576911
O13   O     O_3   0.448820 0.756130 0.716020 -0.266415
O14   O     O_3   0.551180 0.243870 0.283980 -0.266056
V1    V     V_3+5 0.176220 0.748860 0.756300 1.178581
V2    V     V_3+5 0.823780 0.251140 0.243700 1.178901
O15   O     O_R   0.781670 0.827580 0.704500 -0.591555
O16   O     O_R   0.218330 0.172420 0.295500 -0.591368
C5    C     C_R   0.947811 0.851852 0.694168 0.913194
C6    C     C_R   0.052189 0.148147 0.305831 0.913709
O17   O     O_R   0.787130 0.692240 0.685530 -0.559235
O18   O     O_R   0.212870 0.307760 0.314470 -0.560060
C7    C     C_R   0.956085 0.669229 0.666802 0.981189
C8    C     C_R   0.043915 0.330771 0.333198 0.979508
V3    V     V_3+5 0.675510 0.751130 0.743690 1.190022
V4    V     V_3+5 0.324490 0.248870 0.256310 1.189118
O19   O     O_3   0.952780 0.743870 0.783980 -0.267261
O20   O     O_3   0.047220 0.256130 0.216020 -0.267658
C9    C     C_1   0.966591 0.617161 0.614750 -0.272268
C10   C     C_1   0.033407 0.382839 0.385250 -0.271781
C11   C     C_1   0.978165 0.573648 0.571932 0.102460
C12   C     C_1   0.021832 0.426353 0.428068 0.103152
C13   C     C_1   0.993411 0.521855 0.521319 0.030366
C14   C     C_1   0.006585 0.478146 0.478680 0.030550
C15   C     C_R   0.946276 0.914006 0.663542 -0.100543
C16   C     C_R   0.053723 0.085993 0.336456 -0.101219
C17   C     C_R   0.862580 0.034420 0.663369 -0.156657
C18   C     C_R   0.137418 0.965578 0.336628 -0.154303
C19   C     C_R   0.880227 0.975941 0.692156 -0.157828
C20   C     C_R   0.119773 0.024057 0.307841 -0.157050
C21   C     C_R   0.994162 0.910852 0.605096 -0.242183
C22   C     C_R   0.005836 0.089145 0.394902 -0.241994
C23   C     C_R   0.973606 0.969757 0.574173 0.112779
C24   C     C_R   0.026389 0.030241 0.425824 0.112810
C25   C     C_R   0.906978 0.031855 0.604905 0.166850
C26   C     C_R   0.093016 0.968142 0.395093 0.165528
C27   C     C_R   0.013677 0.969228 0.514003 0.058228
C28   C     C_R   0.986317 0.030769 0.485995 0.058470
C29   C     C_R   0.920501 0.090769 0.519132 -0.191097
C30   C     C_R   0.079490 0.909228 0.480865 -0.191182
C31   C     C_R   0.882310 0.091114 0.577182 -0.212094
C32   C     C_R   0.117682 0.908883 0.422815 -0.210318
H1    H     H_    0.831343 0.138539 0.600665 0.153481
H2    H     H_    0.168648 0.861458 0.399332 0.154252
H3    H     H_    0.958513 0.138489 0.415003 0.104481
H4    H     H_    0.041485 0.861509 0.584995 0.104544
H5    H     H_    0.159277 0.021138 0.263049 0.116792
H6    H     H_    0.840724 0.978861 0.736949 0.116035
H7    H     H_    0.810909 0.081769 0.686772 0.136353
H8    H     H_    0.189088 0.918229 0.313225 0.138134
H9    H     H_    0.896101 0.138818 0.501456 0.137855
H10   H     H_    0.103888 0.861179 0.498541 0.137974
C33   C     C_R   0.484595 0.585247 0.835116 -0.371321
C34   C     C_R   0.515992 0.414632 0.164757 -0.371909
C35   C     C_R   0.584820 0.465390 0.831960 0.187015
C36   C     C_R   0.432532 0.536013 0.168668 0.183190
C37   C     C_R   0.547363 0.524277 0.804216 0.676869
C38   C     C_R   0.461921 0.476397 0.196074 0.674981
C39   C     C_R   0.459037 0.587736 0.894634 -0.329554
C40   C     C_R   0.539909 0.411940 0.105169 -0.331346
C41   C     C_R   0.497216 0.529210 0.924754 0.117071
C42   C     C_R   0.504738 0.470751 0.075186 0.116539
C43   C     C_R   0.558649 0.467369 0.892145 -0.092337
C44   C     C_R   0.449476 0.533175 0.108069 -0.093613
C45   C     C_R   0.478773 0.530224 0.986083 0.109233
C46   C     C_R   0.519912 0.469430 0.013738 0.108929
C47   C     C_R   0.573016 0.409093 0.978934 -0.228324
C48   C     C_R   0.420196 0.590034 0.020682 -0.228838
C49   C     C_R   0.590516 0.408129 0.919908 -0.079327
C50   C     C_R   0.405546 0.591272 0.079822 -0.084286
H11   H     H_    0.628959 0.359560 0.896097 0.175868
H12   H     H_    0.355628 0.638744 0.103178 0.177231
H13   H     H_    0.580975 0.362644 0.083650 0.142180
H14   H     H_    0.414154 0.636677 0.916012 0.142421
H15   H     H_    0.602615 0.360903 0.995834 0.132403
H16   H     H_    0.383029 0.637486 0.003481 0.133289
C51   C     C_1   0.467242 0.882810 0.885234 -0.315355
C52   C     C_1   0.532759 0.117189 0.114766 -0.315222
C53   C     C_1   0.478669 0.926329 0.928059 0.063886
C54   C     C_1   0.521331 0.073670 0.071942 0.064014
C55   C     C_1   0.493574 0.978137 0.978678 0.000215
C56   C     C_1   0.506426 0.021862 0.021322 0.000273
F1    F     F_    0.442561 0.478968 0.254001 -0.658292
F2    F     F_    0.578392 0.522749 0.746876 -0.659168
N1    N     N_R   0.656372 0.404646 0.798681 0.254983
O21   O     O_R   0.571531 0.382641 0.750348 -0.305555
O22   O     O_R   0.822737 0.378118 0.811632 -0.384328
N2    N     N_R   0.386793 0.599218 0.203060 0.255503
O23   O     O_R   0.254700 0.601019 0.241791 -0.306463
O24   O     O_R   0.496121 0.651991 0.201852 -0.376894

loop_
_geom_bond_atom_site_label_1
_geom_bond_atom_site_label_2
_geom_bond_distance
_ccdc_geom_bond_type
C21   H4    1.077021 S    
C22   H3    1.077020 S    
C36   C44   1.419361 A    
O13   V3    1.697587 S    
C34   C40   1.401908 A    
C35   C43   1.419062 A    
C55   C56   1.247296 T    
O4    C2    1.301897 A    
V1    O19   1.705846 S    
C23   C25   1.419529 A    
C7    C9    1.505177 S    
C16   C22   1.407999 A    
C39   C41   1.425034 A    
O9    V1    1.988868 S    
C40   C42   1.424801 A    
C11   C13   1.479273 S    
C42   C44   1.423779 A    
O5    V1    1.837199 S    
O3    C1    1.302191 A    
C9    C11   1.247260 T    
C43   C49   1.399834 A    
O12   V4    1.996092 S    
C21   C23   1.428322 A    
C17   C25   1.403203 A    
C35   C37   1.399118 A    
O7    C3    1.317139 A    
C6    C16   1.476429 S    
O5    C7    1.311283 A    
O7    V1    1.857741 S    
O6    C8    1.311281 A    
O8    V2    1.857741 S    
O3    V1    1.987521 S    
C33   C39   1.402201 A    
C40   H13   1.076322 S    
C29   H9    1.076171 S    
O14   V2    2.150192 S    
C15   C21   1.407998 A    
C47   H15   1.075547 S    
C24   C26   1.419529 A    
C8    C10   1.505178 S    
C2    O12   1.295894 A    
C3    C51   1.505202 S    
C17   C19   1.390844 A    
C18   C20   1.390845 A    
O1    V3    1.838320 S    
C47   C49   1.386093 A    
O11   V3    1.996090 S    
C22   C24   1.428319 A    
C38   F1    1.359404 S    
C29   C31   1.387761 A    
O17   V3    1.858799 S    
C37   F2    1.359511 S    
C30   C32   1.387764 A    
C27   C28   1.438933 A    
O8    C4    1.317140 A    
C15   C19   1.395454 A    
C1    O11   1.295779 A    
C25   C31   1.394037 A    
O15   V3    2.000108 S    
C26   C32   1.394038 A    
C54   C56   1.479283 S    
C39   H14   1.076345 S    
C13   C14   1.247294 T    
C51   C53   1.247270 T    
N1    O21   1.301153 A    
C16   C20   1.395453 A    
C34   C38   1.394921 A    
O10   V2    1.988869 S    
C52   C54   1.247269 T    
N2    O24   1.301315 A    
C41   C43   1.423711 A    
C4    C52   1.505203 S    
C18   C26   1.403206 A    
O14   V4    1.697587 S    
C35   N1    1.436388 S    
N1    O22   1.301354 A    
C2    C34   1.475373 S    
C48   C50   1.386258 A    
C31   H1    1.084406 S    
O16   C6    1.297602 A    
O1    C3    1.312277 A    
C17   H7    1.084000 S    
C12   C14   1.479273 S    
C18   H8    1.084001 S    
C28   C29   1.410613 A    
V2    O20   1.705846 S    
O16   V4    2.000110 S    
C49   H11   1.081573 S    
C42   C46   1.440264 A    
C50   H12   1.081578 S    
C46   C47   1.409159 A    
C45   C48   1.409083 A    
C23   C27   1.438843 A    
C36   N2    1.436637 S    
O18   V4    1.858800 S    
C30   H10   1.076171 S    
C20   H5    1.083660 S    
O17   C7    1.316478 A    
O6    V2    1.837197 S    
O10   C6    1.300246 A    
O18   C8    1.316481 A    
C48   H16   1.075589 S    
O2    V4    1.838318 S    
C27   C30   1.410612 A    
O15   C5    1.297602 A    
V3    O19   2.138350 S    
V4    O20   2.138352 S    
C5    C15   1.476428 S    
O9    C5    1.300246 A    
O13   V1    2.150193 S    
C10   C12   1.247260 T    
C32   H2    1.084405 S    
C33   C37   1.395273 A    
N2    O23   1.301222 A    
O2    C4    1.312278 A    
C1    C33   1.475787 S    
C45   C46   1.434792 A    
O4    V2    1.987521 S    
C44   C50   1.400054 A    
C24   C28   1.438843 A    
C53   C55   1.479281 S    
C36   C38   1.399600 A    
C41   C45   1.440332 A    
C19   H6    1.083660 S    
