data_mof_unit_57758.cif
_audit_creation_date              2013-03-05T15:52:32-0500
_audit_creation_method            fapswitch 2.2
_symmetry_space_group_name_H-M    P1
_symmetry_Int_Tables_number       1
_space_group_crystal_system       triclinic
_cell_length_a                    27.824291
_cell_length_b                    10.843496
_cell_length_c                    9.610323
_cell_angle_alpha                 90.82164
_cell_angle_beta                  90.916231
_cell_angle_gamma                 93.782713
_cell_volume                      2892.52417588

loop_
_atom_site_label
_atom_site_type_symbol
_atom_site_description
_atom_site_fract_x
_atom_site_fract_y
_atom_site_fract_z
_atom_type_partial_charge
O1    O     O_R   0.500000 0.319640 0.618810 -0.582453
O2    O     O_R   0.500000 0.319660 0.381240 -0.555644
C1    C     C_R   0.503283 0.263690 0.499128 0.792123
O3    O     O_R   0.430260 0.500010 0.618770 -0.540132
O4    O     O_R   0.430270 0.500030 0.381200 -0.537542
C2    C     C_R   0.407436 0.499012 0.499133 0.840190
Cu1   Cu    Cu3+1 0.500000 0.499990 0.640660 0.942328
Cu2   Cu    Cu3+1 0.500000 0.500010 0.359340 0.993244
O5    O     O_R   0.500000 0.680340 0.618760 -0.620792
O6    O     O_R   0.500000 0.680360 0.381190 -0.562148
O7    O     O_R   0.569730 0.499970 0.618800 -0.610442
O8    O     O_R   0.569740 0.499990 0.381230 -0.562052
C3    C     C_R   0.499888 0.738192 0.502681 0.797779
C4    C     C_R   0.592323 0.496407 0.500872 0.799774
C5    C     C_R   0.175289 0.381450 0.509836 0.544918
O9    O     O_2   0.198231 0.278963 0.539776 -0.530722
N1    N     N_R   0.201347 0.488350 0.477634 -0.455317
C6    C     C_R   0.179107 0.593033 0.444282 0.539843
C7    C     C_R   0.276768 0.480619 0.611615 -0.188053
C8    C     C_R   0.327184 0.485521 0.619937 0.461896
C9    C     C_R   0.329746 0.508818 0.368370 -0.274868
C10   C     C_R   0.279625 0.506417 0.362168 -0.107826
C11   C     C_R   0.252986 0.491864 0.483610 0.290584
C12   C     C_R   0.101065 0.484797 0.479398 -0.043939
C13   C     C_R   0.124773 0.377834 0.511862 -0.026131
C14   C     C_R   0.097719 0.269771 0.545673 -0.146260
C15   C     C_R   0.128637 0.593076 0.444107 -0.024280
C16   C     C_R   0.354202 0.497647 0.496518 -0.148546
H1    H     H_    0.349325 0.519260 0.272292 0.200633
H2    H     H_    0.261409 0.514814 0.262660 0.157163
H3    H     H_    0.115041 0.185664 0.568891 0.187176
C17   C     C_R   0.644944 0.487057 0.501923 -0.075329
C18   C     C_R   0.971924 0.375375 0.533036 0.041673
C19   C     C_R   0.975422 0.589336 0.446654 0.042463
C20   C     C_R   0.948452 0.481941 0.492260 0.068625
C21   C     C_R   0.943425 0.273313 0.584020 -0.206394
C22   C     C_R   0.893607 0.274197 0.589769 -0.147477
C23   C     C_R   0.870100 0.376799 0.545524 -0.019562
C24   C     C_R   0.897357 0.481078 0.497087 -0.043696
C25   C     C_R   0.873379 0.584509 0.453473 -0.027222
C26   C     C_R   0.822921 0.581325 0.457661 0.576539
N2    N     N_R   0.797168 0.478234 0.502986 -0.455348
C27   C     C_R   0.819667 0.377449 0.548184 0.513952
C28   C     C_R   0.719444 0.471763 0.374552 0.303271
C29   C     C_R   0.669379 0.477445 0.375783 -0.306179
C30   C     C_R   0.671147 0.486723 0.627895 -0.239704
C31   C     C_R   0.721070 0.481540 0.627596 -0.163013
C32   C     C_R   0.745510 0.475621 0.501594 0.342809
O10   O     O_2   0.793255 0.277556 0.593493 -0.546406
C33   C     C_R   0.022832 0.374573 0.522936 0.042637
C34   C     C_R   0.049942 0.483650 0.482893 0.069134
C35   C     C_R   0.026590 0.591724 0.446850 0.041786
C36   C     C_R   0.047831 0.267811 0.550845 -0.205786
H4    H     H_    0.649709 0.474654 0.277573 0.164961
H5    H     H_    0.873529 0.193441 0.629174 0.187783
H6    H     H_    0.958437 0.191336 0.622928 0.140090
H7    H     H_    0.029964 0.179898 0.575198 0.138129
O11   O     O_2   0.205779 0.697234 0.413322 -0.538466
C37   C     C_R   0.105435 0.699483 0.411723 -0.144342
H8    H     H_    0.255945 0.467715 0.705181 0.156106
H9    H     H_    0.125829 0.784348 0.385570 0.189310
C38   C     C_R   0.949990 0.690876 0.401813 -0.205039
C39   C     C_R   0.900077 0.688326 0.405533 -0.149055
O12   O     O_2   0.799717 0.680559 0.417101 -0.541412
C40   C     C_R   0.055534 0.699161 0.413145 -0.205410
H10   H     H_    0.967388 0.773780 0.360705 0.139083
H11   H     H_    0.653196 0.491239 0.726632 0.176297
H12   H     H_    0.882451 0.768568 0.369943 0.185915
H13   H     H_    0.740963 0.484057 0.725486 0.153882
H14   H     H_    0.040968 0.786106 0.389645 0.138588
H15   H     H_    0.474199 0.104421 0.295258 0.163931
C41   C     C_R   0.558267 0.140777 0.713997 -0.149704
H16   H     H_    0.571825 0.235100 0.697284 0.154251
C42   C     C_R   0.570999 0.086738 0.838402 -0.131570
H17   H     H_    0.592418 0.139800 0.916101 0.137792
C43   C     C_R   0.554252 0.966307 0.865031 -0.157118
H18   H     H_    0.561393 0.926425 0.965361 0.141461
C44   C     C_R   0.528299 0.896590 0.762670 -0.198534
H19   H     H_    0.513357 0.808784 0.796267 0.171665
C45   C     C_R   0.519355 0.945151 0.628853 0.101635
C46   C     C_R   0.529119 0.073494 0.613022 0.094898
C47   C     C_R   0.508829 0.131377 0.497627 -0.111935
C48   C     C_R   0.488861 0.060975 0.385813 -0.197806
H20   H     H_    0.471716 0.881909 0.300462 0.155042
C49   C     C_R   0.486508 0.933680 0.390310 -0.222325
C50   C     C_R   0.500897 0.873655 0.510463 -0.112918
C51   C     C_R   0.578699 0.632787 0.141723 0.329993
C52   C     C_R   0.621196 0.652355 0.065585 -0.242579
H21   H     H_    0.654517 0.688731 0.114628 0.167260
C53   C     C_R   0.617724 0.661775 0.923350 -0.278346
H22   H     H_    0.647738 0.702323 0.865528 0.174823
C54   C     C_R   0.574031 0.631428 0.857582 -0.137337
H23   H     H_    0.570510 0.663584 0.753832 0.203141
C55   C     C_R   0.536772 0.564574 0.926602 0.137334
C56   C     C_R   0.537693 0.565058 0.075843 0.022849
N3    N     N_R   0.500460 0.501210 0.147910 -0.229882
C57   C     C_R   0.465546 0.433347 0.072123 0.562938
H24   H     H_    0.436915 0.386485 0.863421 0.191263
C58   C     C_R   0.465380 0.436181 0.922989 -0.158549
N4    N     N_R   0.500480 0.501290 0.852040 -0.216361
O13   O     O_3   0.429359 0.368783 0.144194 -0.551881
C59   C     C_3   0.419082 0.248873 0.087685 -0.346121
H25   H     H_    0.452208 0.203643 0.056708 0.145176
H26   H     H_    0.393269 0.251253 0.998588 0.184131
H27   H     H_    0.401307 0.190803 0.168562 0.196918
N5    N     N_2   0.571639 0.722789 0.247041 -0.370226
H28   H     H_    0.548587 0.787188 0.212898 0.241818
C60   C     C_3   0.612340 0.780658 0.325350 -0.679804
H29   H     H_    0.599146 0.828022 0.419006 0.223083
H30   H     H_    0.632112 0.851045 0.261173 0.216847
H31   H     H_    0.637087 0.711100 0.360215 0.233749
N6    N     N_2   0.743609 0.465855 0.245474 -0.419406
H32   H     H_    0.726627 0.509327 0.165452 0.250761
C61   C     C_3   0.756119 0.343186 0.205215 -0.659656
H33   H     H_    0.776389 0.347847 0.106631 0.232053
H34   H     H_    0.722971 0.281371 0.188702 0.221587
H35   H     H_    0.779304 0.303919 0.286061 0.251277
O14   O     O_3   0.349544 0.467684 0.746980 -0.572807
C62   C     C_3   0.348939 0.577323 0.827532 -0.294441
H36   H     H_    0.311602 0.597435 0.855661 0.157068
H37   H     H_    0.366916 0.657337 0.773068 0.162152
H38   H     H_    0.369326 0.564960 0.925957 0.188717

loop_
_geom_bond_atom_site_label_1
_geom_bond_atom_site_label_2
_geom_bond_distance
_ccdc_geom_bond_type
C51   C52   1.406289 A    
O13   C59   1.411756 S    
C17   C29   1.405250 A    
C20   C24   1.422596 A    
C56   N3    1.405110 A    
Cu2   N3    2.032378 S    
C12   C15   1.408196 A    
C8    O14   1.383294 S    
C61   H33   1.110400 S    
Cu1   Cu2   2.703579 S    
C49   C50   1.399438 A    
Cu1   O7    1.954879 S    
N1    C11   1.435028 S    
C25   C39   1.395305 A    
C42   C43   1.386042 A    
C21   C22   1.388801 A    
C43   C44   1.394484 A    
C23   C24   1.408442 A    
O7    C4    1.306075 A    
C44   C45   1.421110 A    
C5    C13   1.403985 A    
N5    H28   1.032322 S    
C40   H14   1.075973 S    
C19   C38   1.416119 A    
C18   C21   1.416283 A    
C60   H29   1.109439 S    
C59   H27   1.109260 S    
Cu1   O5    1.969915 S    
C19   C20   1.421710 A    
C26   N2    1.367870 A    
O5    C3    1.287725 A    
O14   C62   1.410544 S    
C31   H13   1.082947 S    
C45   C50   1.436233 A    
C39   H12   1.083550 S    
C6    O11   1.349830 S    
C2    C16   1.480112 S    
C38   C39   1.388278 A    
C31   C32   1.400994 A    
C51   C56   1.447409 A    
C3    C50   1.468118 S    
C41   C46   1.417104 A    
C41   H16   1.081650 S    
C12   C34   1.422647 A    
C14   H3    1.083627 S    
C9    C10   1.393425 A    
C59   H25   1.114870 S    
O3    Cu1   1.948506 S    
N6    C61   1.445970 S    
N6    H32   1.032009 S    
C57   C58   1.433932 A    
C46   C47   1.410392 A    
H15   C48   1.082350 S    
C43   H18   1.083213 S    
C62   H37   1.114048 S    
C37   H9    1.083646 S    
C33   C36   1.416031 A    
Cu1   N4    2.031102 S    
C38   H10   1.075847 S    
C34   C35   1.421419 A    
C12   C13   1.408000 A    
C41   C42   1.390029 A    
C42   H17   1.082596 S    
C24   C25   1.407809 A    
C36   H7    1.076227 S    
C44   H19   1.069819 S    
C27   O10   1.349698 S    
C8    C16   1.417467 A    
C33   C34   1.421489 A    
C18   C33   1.421960 A    
C9    H1    1.083085 S    
O1    C1    1.299999 A    
C7    C11   1.398203 A    
C22   C23   1.395375 A    
C21   H6    1.076097 S    
C53   C54   1.379290 A    
C58   N4    1.364294 A    
C55   N4    1.369437 A    
Cu2   O8    1.948501 S    
N3    C57   1.372364 A    
C1    C47   1.452993 S    
C54   C55   1.406027 A    
N1    C6    1.367823 A    
N2    C32   1.435607 S    
H20   C49   1.083684 S    
C59   H26   1.110449 S    
C28   N6    1.423048 S    
O3    C2    1.304115 A    
C25   C26   1.403340 A    
C48   C49   1.378887 A    
C9    C16   1.408105 A    
C52   C53   1.374525 A    
C29   H4    1.082478 S    
C47   C48   1.395564 A    
N2    C27   1.367506 A    
C14   C36   1.388557 A    
C28   C29   1.398657 A    
C62   H38   1.109492 S    
C5    N1    1.368103 A    
C30   C31   1.393937 A    
C10   H2    1.082953 S    
O1    Cu1   1.963869 S    
C17   C30   1.403378 A    
O2    Cu2   1.969916 S    
C6    C15   1.404300 A    
C4    C17   1.474192 S    
C45   C46   1.411122 A    
O6    C3    1.317517 A    
O4    Cu2   1.954882 S    
C61   H34   1.111684 S    
C62   H36   1.112226 S    
C7    H8    1.083230 S    
C19   C35   1.422213 A    
C60   H31   1.106198 S    
C7    C8    1.401240 A    
O2    C1    1.297673 A    
C13   C14   1.395588 A    
C30   H11   1.081348 S    
C15   C37   1.395381 A    
C37   C40   1.388520 A    
C53   H22   1.083031 S    
O4    C2    1.307965 A    
C51   N5    1.420836 S    
N5    C60   1.451898 S    
C54   H23   1.066148 S    
C18   C20   1.421177 A    
C60   H30   1.111107 S    
C55   C56   1.434000 A    
C61   H35   1.109428 S    
C22   H5    1.083534 S    
C28   C32   1.408766 A    
O8    C4    1.303751 A    
C23   C27   1.404387 A    
C52   H21   1.081548 S    
Cu2   O6    1.963870 S    
H24   C58   1.079692 S    
C10   C11   1.397827 A    
C26   O12   1.349932 S    
C57   O13   1.388122 S    
C35   C40   1.416360 A    
C5    O9    1.349881 S    
