data_mof_unit_18659.cif
_audit_creation_date              2012-12-11T16:56:15-0500
_audit_creation_method            fapswitch 2.2
_symmetry_space_group_name_H-M    P1
_symmetry_Int_Tables_number       1
_space_group_crystal_system       triclinic
_cell_length_a                    6.965196
_cell_length_b                    14.527341
_cell_length_c                    16.196293
_cell_angle_alpha                 90.470514
_cell_angle_beta                  89.991902
_cell_angle_gamma                 90.077551
_cell_volume                      1638.77772462

loop_
_atom_site_label
_atom_site_type_symbol
_atom_type_description
_atom_site_fract_x
_atom_site_fract_y
_atom_site_fract_z
_atom_type_partial_charge
O1    O     O_R   0.505830 0.583360 0.413880 -0.520765
O2    O     O_R   0.175830 0.595460 0.585520 -0.553574
O3    O     O_R   0.005520 0.416640 0.586120 -0.537058
C1    C     C_R   0.344690 0.617389 0.614432 0.678052
O4    O     O_R   0.176120 0.594390 0.414490 -0.551968
O5    O     O_R   0.005810 0.415570 0.413870 -0.511212
C2    C     C_R   0.344963 0.616048 0.385768 0.693774
O6    O     O_R   0.505540 0.584430 0.586130 -0.547065
O7    O     O_3   0.339200 0.441330 0.500000 -0.339908
V1    V     V_3+5 0.064350 0.510880 0.500000 1.499898
O8    O     O_R   0.676100 0.404540 0.414480 -0.541126
C3    C     C_R   0.845165 0.381775 0.386397 0.795470
O9    O     O_R   0.675810 0.405610 0.585510 -0.499805
C4    C     C_R   0.844598 0.383769 0.613769 0.789825
V2    V     V_3+5 0.564340 0.489120 0.500000 1.563831
O10   O     O_3   0.839360 0.558670 0.500000 -0.393365
C5    C     C_2   0.721193 0.208918 0.786772 -0.210816
C6    C     C_2   0.886015 0.182081 0.822976 -0.398370
H1    H     H_    0.586409 0.179685 0.807895 0.175332
H2    H     H_    0.022804 0.210662 0.804405 0.154598
C7    C     C_2   0.706293 0.277909 0.719398 0.630772
C8    C     C_2   0.859347 0.315151 0.680586 -0.395354
H3    H     H_    0.003777 0.295459 0.697537 0.126861
C9    C     C_R   0.736505 0.250620 0.187918 0.096977
C10   C     C_R   0.883384 0.184976 0.183808 -0.181609
C11   C     C_R   0.028158 0.189943 0.244491 -0.259286
H4    H     H_    0.145545 0.141207 0.243349 0.148206
C12   C     C_R   0.014868 0.252942 0.311014 0.590514
C13   C     C_R   0.858400 0.314398 0.317383 -0.220860
C14   C     C_R   0.725195 0.314172 0.252598 0.038241
C15   C     C_3   0.511787 0.307628 0.255552 -0.351093
C16   C     C_3   0.524074 0.238445 0.184835 -0.384176
H5    H     H_    0.441141 0.373223 0.238113 0.182599
H6    H     H_    0.461619 0.277038 0.314228 0.238835
H7    H     H_    0.478652 0.167866 0.202331 0.176245
C17   C     C_R   0.507735 0.681703 0.741277 0.122418
C18   C     C_R   0.353110 0.682120 0.685854 -0.109690
C19   C     C_R   0.201422 0.743333 0.703170 -0.180069
H8    H     H_    0.078690 0.746087 0.662518 0.132285
C20   C     C_R   0.212663 0.806196 0.769840 -0.169491
H9    H     H_    0.097686 0.855251 0.778523 0.130004
C21   C     C_R   0.376253 0.810075 0.821154 -0.113156
C22   C     C_R   0.519354 0.744185 0.806991 0.106506
C23   C     C_3   0.729692 0.757204 0.795222 -0.410023
C24   C     C_3   0.717198 0.688788 0.723964 -0.405549
H10   H     H_    0.814277 0.731340 0.848378 0.180198
H11   H     H_    0.765178 0.828247 0.775304 0.168164
H12   H     H_    0.746207 0.719915 0.662737 0.165061
C25   C     C_R   0.513213 0.743585 0.309715 -0.002228
C26   C     C_R   0.353674 0.685945 0.319418 -0.055751
C27   C     C_R   0.200999 0.696927 0.263560 -0.177735
C28   C     C_R   0.212139 0.760614 0.198494 -0.171108
H13   H     H_    0.095507 0.764075 0.154625 0.134972
C29   C     C_R   0.377809 0.814625 0.186652 -0.065470
C30   C     C_R   0.524948 0.806629 0.245108 0.007476
C31   C     C_3   0.731795 0.786279 0.230806 -0.444368
C32   C     C_3   0.718399 0.717234 0.300355 0.492839
H14   H     H_    0.824627 0.846370 0.245986 0.126693
H15   H     H_    0.757571 0.754273 0.169202 0.198774
H16   H     H_    0.807309 0.734465 0.355339 0.031294
O11   O     O_R   0.229930 0.912420 0.917160 -0.540926
O12   O     O_R   0.559420 0.902500 0.088780 -0.538252
O13   O     O_R   0.729660 0.081330 0.089380 -0.538121
C33   C     C_R   0.390360 0.880437 0.117169 0.694740
O14   O     O_R   0.559650 0.901420 0.917750 -0.540288
O15   O     O_R   0.729880 0.080250 0.917130 -0.538260
C34   C     C_R   0.390530 0.879594 0.888725 0.699687
O16   O     O_R   0.229700 0.913500 0.089410 -0.543252
O17   O     O_3   0.396250 0.055540 0.003280 -0.370011
V3    V     V_3+5 0.671130 0.986010 0.003260 1.408539
O18   O     O_R   0.059600 0.091310 0.917720 -0.541859
C35   C     C_R   0.891065 0.113235 0.889648 0.780965
O19   O     O_R   0.059370 0.092380 0.088750 -0.543961
C36   C     C_R   0.890743 0.114548 0.117282 0.730959
V4    V     V_3+5 0.171120 0.007820 0.003230 1.405613
O20   O     O_3   0.896130 0.938240 0.003240 -0.374751
H17   H     H_    0.793863 0.623201 0.736066 0.172501
H18   H     H_    0.078296 0.652027 0.267234 0.195504
F1    F     F_    0.736636 0.627198 0.272475 -0.689766
F2    F     F_    0.525501 0.302517 0.696765 -0.678341
F3    F     F_    0.146174 0.248434 0.372674 -0.700188
H19   H     H_    0.461444 0.264302 0.126340 0.174809

loop_
_geom_bond_atom_site_label_1
_geom_bond_atom_site_label_2
_ccdc_geom_bond_type
C19   C20   A    
C30   C31   S    
C3    C13   S    
O19   C36   A    
C32   F1    S    
C1    O6    A    
O11   V4    S    
O16   V4    S    
C11   H4    S    
C13   C14   A    
C33   O16   A    
C12   C13   A    
O5    C3    A    
C19   H8    S    
V2    O10   S    
C25   C32   S    
C31   C32   S    
O12   V3    S    
C10   C36   S    
O12   C33   A    
O8    V2    S    
O15   C35   A    
C28   C29   A    
O14   C34   A    
C15   H5    S    
O1    V2    S    
O7    V1    S    
C23   H11   S    
C20   C21   A    
O9    C4    A    
O19   V4    S    
C23   H10   S    
C5    C6    D    
C6    C35   S    
C27   C28   A    
C16   H7    S    
C9    C10   A    
O4    C2    A    
C32   H16   S    
C10   C11   A    
C25   C30   A    
C5    C7    S    
O2    C1    A    
V4    O20   S    
C9    C16   S    
C18   C19   A    
O11   C34   A    
C15   C16   S    
O13   V3    S    
C14   C15   S    
C26   C27   A    
C15   H6    S    
C17   C24   S    
O3    C4    A    
C20   H9    S    
O6    V2    S    
O9    V2    S    
C22   C23   S    
V3    O20   S    
C21   C34   S    
C21   C22   A    
O2    V1    S    
C28   H13   S    
C24   H12   S    
C29   C30   A    
C17   C18   A    
C12   F3    S    
O1    C2    A    
C23   C24   S    
C2    C26   S    
O5    V1    S    
O8    C3    A    
O13   C36   A    
C16   H19   S    
C11   C12   A    
C31   H15   S    
C4    C8    S    
O7    V2    S    
C27   H18   S    
O18   C35   A    
O3    V1    S    
V1    O10   S    
O18   V4    S    
O15   V3    S    
C29   C33   S    
C7    F2    S    
C5    H1    S    
C31   H14   S    
O17   V4    S    
C6    H2    S    
O17   V3    S    
C9    C14   A    
O4    V1    S    
C1    C18   S    
C25   C26   A    
C8    H3    S    
C17   C22   A    
C24   H17   S    
C7    C8    D    
O14   V3    S    
