data_mof_unit_38337.cif
_audit_creation_date              2012-10-26T21:10:39-0400
_audit_creation_method            fapswitch 2.2
_symmetry_space_group_name_H-M    P1
_symmetry_Int_Tables_number       1
_space_group_crystal_system       triclinic
_cell_length_a                    10.871277
_cell_length_b                    14.744285
_cell_length_c                    14.756479
_cell_angle_alpha                 64.690666
_cell_angle_beta                  102.037191
_cell_angle_gamma                 102.278813
_cell_volume                      2070.74314793

loop_
_atom_site_label
_atom_site_type_symbol
_atom_type_description
_atom_site_fract_x
_atom_site_fract_y
_atom_site_fract_z
_atom_type_partial_charge
Br1   Br    Br    0.278219 0.223326 0.870864 -0.414479
Br2   Br    Br    0.736487 0.769412 0.136042 -0.418749
Br3   Br    Br    0.606897 0.176982 0.959128 -0.461188
Br4   Br    Br    0.412648 0.825824 0.045025 -0.434339
Br5   Br    Br    0.112406 0.292861 0.459077 -0.529797
Br6   Br    Br    0.903388 0.708128 0.545064 -0.508820
C1    C     C_R   0.483196 0.119871 0.312817 0.542171
C2    C     C_R   0.459204 0.774622 0.958713 0.206617
C3    C     C_R   0.530814 0.157040 0.141200 -0.081901
C4    C     C_R   0.476602 0.843401 0.860244 -0.074651
C5    C     C_R   0.480844 0.290140 0.175861 -0.067527
C6    C     C_R   0.525011 0.710529 0.824484 -0.138546
C7    C     C_R   0.512118 0.362898 0.081606 0.038622
C8    C     C_R   0.496831 0.637760 0.919617 -0.007395
C9    C     C_R   0.535491 0.328666 0.011360 0.051412
C10   C     C_R   0.475259 0.672107 0.990499 0.083469
C11   C     C_R   0.511481 0.468058 0.053051 0.051969
C12   C     C_R   0.517736 0.880166 0.687186 0.543183
C13   C     C_R   0.499022 0.532697 0.948259 -0.011679
C14   C     C_R   0.489136 0.489454 0.876572 -0.014134
C15   C     C_R   0.520842 0.511092 0.124811 -0.010187
C16   C     C_R   0.263356 0.999723 0.502692 0.541767
C17   C     C_R   0.736738 0.000136 0.497688 0.546137
C18   C     C_R   0.527256 0.394212 0.909079 -0.053123
C19   C     C_R   0.484052 0.606423 0.092734 -0.081745
C20   C     C_R   0.700143 0.281220 0.673620 -0.061922
C21   C     C_R   0.282481 0.709226 0.340119 -0.045665
C22   C     C_R   0.669695 0.199391 0.645627 0.148998
C23   C     C_R   0.870083 0.998882 0.496946 0.008698
C24   C     C_R   0.311569 0.790844 0.368610 0.157801
C25   C     C_R   0.526084 0.288503 0.505780 0.056450
C26   C     C_R   0.487355 0.718392 0.483860 0.046000
C27   C     C_R   0.554310 0.374452 0.531751 -0.005518
C28   C     C_R   0.458544 0.631915 0.458695 0.004640
C29   C     C_R   0.647456 0.370475 0.616011 0.028525
C30   C     C_R   0.357706 0.631835 0.380382 0.033211
C31   C     C_R   0.491464 0.462463 0.478776 0.013703
C32   C     C_R   0.524502 0.545465 0.509401 0.044034
C33   C     C_R   0.619488 0.538252 0.592019 -0.078098
C34   C     C_R   0.130177 0.001192 0.503787 0.005517
C35   C     C_R   0.395483 0.469257 0.396841 -0.147357
C36   C     C_R   0.682275 0.453939 0.643923 0.031283
C37   C     C_R   0.330631 0.552485 0.346444 0.019683
C38   C     C_R   0.264902 0.076024 0.788951 -0.069118
C39   C     C_R   0.736380 0.916124 0.215926 -0.057257
C40   C     C_R   0.224115 0.037126 0.714722 -0.143356
C41   C     C_R   0.773697 0.956541 0.289181 -0.134362
C42   C     C_R   0.174769 0.099401 0.616798 0.049422
C43   C     C_R   0.826502 0.896943 0.387043 0.050439
C44   C     C_R   0.178208 0.203595 0.591419 0.137844
C45   C     C_R   0.910725 0.948517 0.448395 0.013204
C46   C     C_R   0.829764 0.793346 0.413486 0.142017
C47   C     C_R   0.219996 0.241994 0.665972 -0.042480
C48   C     C_R   0.791278 0.753406 0.339975 -0.041581
C49   C     C_R   0.257303 0.177265 0.765462 0.191167
C50   C     C_R   0.750872 0.815989 0.240382 0.194369
C51   C     C_R   0.960305 0.048974 0.548825 -0.093271
C52   C     C_R   0.040047 0.951646 0.451740 -0.095756
C53   C     C_2   0.416480 0.531594 0.773500 0.235335
C54   C     C_2   0.590088 0.470006 0.228962 0.225469
C55   C     C_2   0.784392 0.458347 0.727055 0.271969
C56   C     C_R   0.089757 0.051004 0.552987 0.018285
C57   C     C_2   0.236694 0.551935 0.257301 0.236370
C58   C     C_2   0.226781 0.870596 0.317438 0.273202
C59   C     C_2   0.732973 0.108982 0.711686 0.285726
C60   C     C_R   0.492698 0.188405 0.206866 -0.018465
C61   C     C_R   0.511333 0.811827 0.793453 -0.017428
C62   C     C_R   0.552326 0.226325 0.043629 0.190286
Cu1   Cu    Cu3+1 0.466270 0.918260 0.475690 0.956449
Cu2   Cu    Cu3+1 0.533730 0.081740 0.524310 0.982425
H1    H     H_    0.567050 0.727468 0.537678 0.140715
H2    H     H_    0.772831 0.036596 0.267059 0.133943
H3    H     H_    0.215422 0.320607 0.647993 0.203704
H4    H     H_    0.801586 0.675713 0.358637 0.176606
H5    H     H_    0.930292 0.085639 0.588823 0.147207
H6    H     H_    0.070039 0.915205 0.411781 0.181573
H7    H     H_    0.531643 0.366099 0.853197 0.206082
H8    H     H_    0.481206 0.634270 0.149186 0.178837
H9    H     H_    0.560207 0.689571 0.773748 0.124889
H10   H     H_    0.445414 0.311742 0.226024 0.130828
H11   H     H_    0.462201 0.921340 0.835767 0.162208
H12   H     H_    0.457040 0.285046 0.443299 0.138825
H13   H     H_    0.545215 0.079063 0.166002 0.153477
H14   H     H_    0.362871 0.593496 0.752059 0.146085
H15   H     H_    0.577078 0.495296 0.284812 0.106047
H16   H     H_    0.772855 0.495098 0.774145 0.124425
H17   H     H_    0.186554 0.480367 0.256086 0.163760
H18   H     H_    0.255663 0.946771 0.311382 0.166996
H19   H     H_    0.757694 0.060901 0.682466 0.148375
H20   H     H_    0.764679 0.273259 0.742143 0.217700
H21   H     H_    0.198704 0.706427 0.286727 0.224292
H22   H     H_    0.646793 0.597397 0.619596 0.115366
H23   H     H_    0.369428 0.410983 0.368121 0.097093
H24   H     H_    0.294215 0.025914 0.866020 0.199960
H25   H     H_    0.704815 0.964610 0.138718 0.205114
H26   H     H_    0.220384 0.956691 0.735866 0.132140
N1    N     N_R   0.584450 0.204570 0.560790 -0.261480
N2    N     N_R   0.415550 0.795430 0.439210 -0.268379
O1    O     O_R   0.455540 0.022090 0.338120 -0.537264
O2    O     O_2   0.669830 0.414144 0.251256 -0.450910
O3    O     O_2   0.885151 0.427978 0.739202 -0.438721
O4    O     O_2   0.220526 0.629399 0.182008 -0.456688
O5    O     O_2   0.119236 0.851725 0.278385 -0.498456
O6    O     O_2   0.761005 0.087421 0.802396 -0.456314
O7    O     O_R   0.544460 0.977910 0.661880 -0.520731
O8    O     O_R   0.512510 0.160150 0.379180 -0.484005
O9    O     O_R   0.487490 0.839850 0.620820 -0.501981
O10   O     O_R   0.291160 0.930970 0.479480 -0.526080
O11   O     O_R   0.708840 0.069030 0.520520 -0.522719
O12   O     O_R   0.348130 0.069020 0.520540 -0.493092
O13   O     O_R   0.651870 0.930980 0.479460 -0.499453
O14   O     O_2   0.409355 0.493970 0.712917 -0.507955

loop_
_geom_bond_atom_site_label_1
_geom_bond_atom_site_label_2
_ccdc_geom_bond_type
C22   N1    A    
C58   O5    D    
C24   C58   S    
C5    C7    A    
C13   C14   A    
Br4   C2    S    
Cu1   O9    S    
C37   C57   S    
C51   C56   A    
C41   C43   A    
C4    C61   A    
C59   H19   S    
C25   H12   S    
C1    O1    A    
C17   C23   S    
Br3   C62   S    
C32   C33   A    
C6    H9    S    
C34   C56   A    
C29   C36   A    
C12   O9    A    
Cu2   O12   S    
C27   C29   A    
C48   H4    S    
C35   H23   S    
C14   C18   A    
C39   C50   A    
C38   C40   A    
C43   C45   S    
C25   C27   A    
C21   H21   S    
C26   H1    S    
Cu2   N1    S    
Cu1   N2    S    
C47   C49   A    
C2    C10   A    
C21   C24   A    
C35   C37   A    
C57   O4    D    
Cu1   O10   S    
C46   C48   A    
C33   C36   A    
C48   C50   A    
C39   C41   A    
C17   O11   A    
C6    C61   A    
C40   C42   A    
C44   C47   A    
C34   C52   A    
C52   H6    S    
C19   H8    S    
C53   H14   S    
C15   C54   S    
Cu2   O8    S    
C16   O12   A    
C12   C61   S    
C11   C15   A    
C26   C28   A    
C55   O3    D    
C31   C32   A    
Cu2   O11   S    
C20   C29   A    
C42   C56   S    
C5    H10   S    
C43   C46   A    
C16   C34   S    
C53   O14   D    
C1    O8    A    
C45   C52   A    
C14   C53   S    
C36   C55   S    
C3    H13   S    
Cu1   O1    S    
C9    C18   A    
C6    C8    A    
C7    C9    A    
C8    C10   A    
Br5   C44   S    
C39   H25   S    
C33   H22   S    
C23   C45   A    
C10   C19   A    
C15   C19   A    
C57   H17   S    
C28   C32   A    
C8    C13   A    
C47   H3    S    
C23   C51   A    
C54   O2    D    
Cu2   O7    S    
C54   H15   S    
C5    C60   A    
C21   C30   A    
C20   H20   S    
C17   O13   A    
C24   N2    A    
C4    H11   S    
C20   C22   A    
C7    C11   A    
C51   H5    S    
C22   C59   S    
Br1   C49   S    
C12   O7    A    
Br2   C50   S    
C3    C60   A    
C1    C60   S    
Cu1   O13   S    
C38   C49   A    
C16   O10   A    
C9    C62   A    
C42   C44   A    
C11   C13   A    
C26   N2    A    
C28   C30   A    
C25   N1    A    
C31   C35   A    
Cu1   Cu2   S    
C27   C31   A    
C41   H2    S    
C3    C62   A    
C38   H24   S    
C55   H16   S    
C18   H7    S    
C40   H26   S    
C2    C4    A    
C30   C37   A    
C59   O6    D    
Br6   C46   S    
C58   H18   S    
