data_mof_unit_61683.cif
_audit_creation_date              2012-12-10T17:06:28-0500
_audit_creation_method            fapswitch 2.2
_symmetry_space_group_name_H-M    P1
_symmetry_Int_Tables_number       1
_space_group_crystal_system       triclinic
_cell_length_a                    21.950875
_cell_length_b                    21.962671
_cell_length_c                    47.134582
_cell_angle_alpha                 90.635672
_cell_angle_beta                  89.304581
_cell_angle_gamma                 88.697093
_cell_volume                      22714.5569459

loop_
_atom_site_label
_atom_site_type_symbol
_atom_type_description
_atom_site_fract_x
_atom_site_fract_y
_atom_site_fract_z
_atom_type_partial_charge
C1    C     C_R   0.881227 0.000123 0.500166 0.770764
C2    C     C_R   0.215499 0.051035 0.512744 0.017657
C3    C     C_R   0.499830 0.000342 0.554376 0.832012
C4    C     C_R   0.500160 0.002274 0.945655 0.830024
C5    C     C_R   0.001292 0.499854 0.945558 0.824210
C6    C     C_R   0.499769 0.000164 0.054416 0.821712
C7    C     C_R   0.001706 0.500163 0.054352 0.810267
C8    C     C_R   0.999401 0.618798 0.500029 0.785721
C9    C     C_R   0.381218 0.000544 0.499879 0.786142
C10   C     C_R   0.000532 0.381205 0.500141 0.785324
C11   C     C_R   0.618786 0.999384 0.499999 0.786153
C12   C     C_R   0.499317 0.118535 0.003851 0.790906
C13   C     C_R   0.950396 0.218564 0.513030 0.019465
C14   C     C_R   0.881252 0.500668 0.000085 0.792862
C15   C     C_R   0.500565 0.881296 0.999842 0.789753
C16   C     C_R   0.118946 0.498223 0.000201 0.773690
C17   C     C_R   0.462670 0.045957 0.720382 -0.016405
C18   C     C_R   0.953513 0.471886 0.720140 -0.015948
C19   C     C_R   0.541226 0.965603 0.719779 -0.016473
C20   C     C_R   0.046343 0.530823 0.719515 -0.015997
C21   C     C_R   0.464780 0.956292 0.280058 -0.016459
C22   C     C_R   0.965624 0.541048 0.280233 -0.016460
C23   C     C_R   0.537495 0.038625 0.280001 -0.016234
C24   C     C_R   0.783953 0.949939 0.513202 0.016982
C25   C     C_R   0.045521 0.462026 0.279561 -0.016593
C26   C     C_R   0.966416 0.541160 0.220327 -0.017165
C27   C     C_R   0.465470 0.955473 0.220167 -0.016574
C28   C     C_R   0.047791 0.463659 0.219661 -0.014702
C29   C     C_R   0.536125 0.039591 0.220140 -0.016140
C30   C     C_R   0.953957 0.473120 0.780004 -0.017135
C31   C     C_R   0.464431 0.048568 0.780272 -0.015236
C32   C     C_R   0.048792 0.528858 0.779339 -0.013773
C33   C     C_R   0.541429 0.966727 0.779686 -0.016870
C34   C     C_R   0.424468 0.086839 0.735813 -0.143938
C35   C     C_R   0.051085 0.215547 0.487281 0.017608
C36   C     C_R   0.907144 0.443547 0.735587 -0.143589
C37   C     C_R   0.580064 0.925800 0.734624 -0.143667
C38   C     C_R   0.093392 0.559059 0.734312 -0.144055
C39   C     C_R   0.429262 0.914859 0.264946 -0.143515
C40   C     C_R   0.925965 0.580100 0.265424 -0.143526
C41   C     C_R   0.572916 0.080031 0.264851 -0.143709
C42   C     C_R   0.086090 0.423554 0.264090 -0.143664
C43   C     C_R   0.926154 0.579947 0.235798 -0.143571
C44   C     C_R   0.429888 0.914208 0.235321 -0.143010
C45   C     C_R   0.087418 0.424575 0.234472 -0.143088
C46   C     C_R   0.218620 0.950537 0.486902 0.019316
C47   C     C_R   0.571954 0.080755 0.235247 -0.143669
C48   C     C_R   0.907089 0.444597 0.765204 -0.143621
C49   C     C_R   0.425557 0.088338 0.765427 -0.143717
C50   C     C_R   0.094880 0.557646 0.763898 -0.144112
C51   C     C_R   0.579952 0.926151 0.764251 -0.143700
C52   C     C_R   0.540295 0.965841 0.689982 0.552571
C53   C     C_R   0.044138 0.531238 0.689763 0.552130
C54   C     C_R   0.462329 0.043580 0.690587 0.552571
C55   C     C_R   0.954512 0.471476 0.690349 0.552076
C56   C     C_R   0.537445 0.037294 0.309781 0.552421
C57   C     C_R   0.949902 0.783939 0.486858 0.017047
C58   C     C_R   0.043307 0.461752 0.309362 0.552701
C59   C     C_R   0.464893 0.957804 0.309853 0.552544
C60   C     C_R   0.966009 0.540155 0.310028 0.552573
C61   C     C_R   0.047881 0.465059 0.189866 0.551409
C62   C     C_R   0.534466 0.039433 0.190366 0.552091
C63   C     C_R   0.967209 0.539984 0.190519 0.553905
C64   C     C_R   0.466593 0.955890 0.190371 0.552598
C65   C     C_R   0.049199 0.527015 0.809103 0.550315
C66   C     C_R   0.540268 0.967669 0.809495 0.553557
C67   C     C_R   0.955052 0.474474 0.809777 0.553936
C68   C     C_R   0.781803 0.049496 0.487579 0.020089
C69   C     C_R   0.465862 0.048809 0.810064 0.551348
C70   C     C_R   0.103682 0.808837 0.523900 -0.114946
C71   C     C_R   0.185134 0.104149 0.525285 -0.117863
C72   C     C_R   0.896114 0.191676 0.524755 -0.114616
C73   C     C_R   0.813822 0.897390 0.525644 -0.116696
C74   C     C_R   0.104271 0.185231 0.474758 -0.117777
C75   C     C_R   0.191836 0.896305 0.475121 -0.114540
C76   C     C_R   0.897298 0.813767 0.474438 -0.116635
C77   C     C_R   0.808771 0.103615 0.476000 -0.114923
C78   C     C_R   0.609930 0.310543 0.021889 -0.118254
C79   C     C_R   0.555481 0.281271 0.012824 0.020665
C80   C     C_R   0.684763 0.604357 0.024507 -0.120763
C81   C     C_R   0.418615 0.688184 0.033366 -0.074828
C82   C     C_R   0.302333 0.485264 0.055083 -0.033021
C83   C     C_R   0.607271 0.687692 0.972687 -0.117486
C84   C     C_R   0.693584 0.397699 0.972881 -0.111492
C85   C     C_R   0.394082 0.308311 0.985392 -0.094826
C86   C     C_R   0.302934 0.572687 0.957539 -0.033370
C87   C     C_R   0.155753 0.771897 0.528756 -0.026743
C88   C     C_R   0.218130 0.157529 0.529834 -0.030395
C89   C     C_R   0.843297 0.228201 0.529421 -0.027764
C90   C     C_R   0.715388 0.550947 0.012508 0.021117
C91   C     C_R   0.781004 0.843790 0.529734 -0.032244
C92   C     C_R   0.157704 0.218211 0.470236 -0.030296
C93   C     C_R   0.228531 0.843658 0.470326 -0.027552
C94   C     C_R   0.843733 0.780896 0.470327 -0.032053
C95   C     C_R   0.771683 0.155506 0.470988 -0.026370
C96   C     C_R   0.664328 0.276063 0.024621 -0.022959
C97   C     C_R   0.717640 0.657939 0.028636 -0.027418
C98   C     C_R   0.359783 0.713676 0.035810 -0.029999
C99   C     C_R   0.276417 0.444756 0.074447 -0.039266
C100  C     C_R   0.659010 0.722155 0.966721 -0.023813
C101  C     C_R   0.460845 0.717852 0.015564 0.027242
C102  C     C_R   0.731781 0.346975 0.966034 -0.028116
C103  C     C_R   0.336792 0.284287 0.992052 -0.020069
C104  C     C_R   0.273734 0.577473 0.931144 -0.027046
C105  C     C_R   0.148198 0.710403 0.533053 -0.190699
C106  C     C_R   0.280631 0.152511 0.532599 -0.195618
C107  C     C_R   0.849555 0.290254 0.532929 -0.189485
C108  C     C_R   0.718219 0.848107 0.531831 -0.195424
C109  C     C_R   0.152719 0.280694 0.467505 -0.195764
C110  C     C_R   0.290585 0.850139 0.466744 -0.189404
C111  C     C_R   0.848166 0.718161 0.468175 -0.195588
C112  C     C_R   0.000068 0.881226 0.499846 0.770549
C113  C     C_R   0.279269 0.490170 0.026850 0.025829
C114  C     C_R   0.710235 0.147702 0.466590 -0.190790
C115  C     C_R   0.661196 0.213649 0.027759 -0.196588
C116  C     C_R   0.779946 0.652776 0.032356 -0.195830
C117  C     C_R   0.353695 0.776605 0.034312 -0.211570
C118  C     C_R   0.226003 0.412168 0.066850 -0.224029
C119  C     C_R   0.651838 0.784488 0.963736 -0.196362
C120  C     C_R   0.793375 0.355908 0.962057 -0.187481
C121  C     C_R   0.333195 0.233012 0.008939 -0.217951
C122  C     C_R   0.221754 0.544160 0.926003 -0.202810
C123  C     C_R   0.090593 0.686638 0.530407 0.015563
C124  C     C_R   0.554668 0.716859 0.985938 0.011192
C125  C     C_R   0.308938 0.095731 0.529368 0.013194
C126  C     C_R   0.906964 0.314683 0.530236 0.016340
C127  C     C_R   0.689655 0.904605 0.528904 0.014640
C128  C     C_R   0.095903 0.308991 0.470716 0.013206
C129  C     C_R   0.314846 0.907561 0.469545 0.016257
C130  C     C_R   0.904724 0.689687 0.471105 0.014502
C131  C     C_R   0.686626 0.090081 0.469363 0.015506
C132  C     C_R   0.604714 0.186453 0.028098 0.012255
C133  C     C_R   0.808390 0.595918 0.029546 0.008148
C134  C     C_R   0.405780 0.810324 0.029203 0.001052
C135  C     C_R   0.719238 0.451420 0.985824 0.018639
C136  C     C_R   0.196831 0.423582 0.041391 -0.052562
C137  C     C_R   0.594650 0.811430 0.968239 0.012226
C138  C     C_R   0.815955 0.413422 0.966754 0.016805
C139  C     C_R   0.385957 0.201084 0.016639 0.009314
C140  C     C_R   0.194396 0.512134 0.947898 -0.035769
C141  C     C_R   0.045938 0.717693 0.514078 0.033155
C142  C     C_R   0.280048 0.049178 0.513626 0.033948
C143  C     C_R   0.953208 0.282882 0.514322 0.032301
C144  C     C_R   0.719332 0.951226 0.513725 0.032876
C145  C     C_R   0.049238 0.280077 0.486424 0.034123
C146  C     C_R   0.448070 0.281425 0.997097 0.014696
C147  C     C_R   0.282945 0.953444 0.485605 0.032768
C148  C     C_R   0.951266 0.719345 0.486319 0.033184
C149  C     C_R   0.717690 0.045755 0.485861 0.033712
C150  C     C_R   0.553232 0.216854 0.016243 0.043353
C151  C     C_R   0.779887 0.549200 0.013764 0.030940
C152  C     C_R   0.456558 0.781893 0.014577 0.014422
C153  C     C_R   0.219596 0.468452 0.022404 0.022351
C154  C     C_R   0.550473 0.781492 0.985007 0.041052
C155  C     C_R   0.783435 0.455479 0.984547 0.038121
C156  C     C_R   0.444055 0.221490 0.007752 0.034119
C157  C     C_R   0.278971 0.534071 0.978827 0.022276
C158  C     C_R   0.218672 0.514268 0.975534 0.036084
C159  C     C_1   0.787098 0.810572 0.462111 0.256125
C160  C     C_1   0.202687 0.785695 0.462655 0.252495
C161  C     C_1   0.214885 0.188310 0.462064 0.255883
C162  C     C_1   0.797291 0.213592 0.463648 0.252340
C163  C     C_1   0.785323 0.202217 0.537044 0.252281
C164  C     C_1   0.188197 0.214658 0.538016 0.255978
C165  C     C_1   0.213820 0.797619 0.536044 0.252204
C166  C     C_1   0.810743 0.787219 0.537976 0.256176
C167  C     C_1   0.280776 0.312785 0.982419 0.248678
C168  C     C_R   0.998460 0.686306 0.500266 -0.167852
C169  C     C_1   0.707549 0.289018 0.957195 0.254881
C170  C     C_1   0.716550 0.693583 0.958178 0.257967
C171  C     C_1   0.297811 0.614373 0.908596 0.276021
C172  C     C_1   0.309499 0.679195 0.046503 0.262866
C173  C     C_1   0.687364 0.715410 0.035891 0.252926
C174  C     C_1   0.721623 0.304558 0.030832 0.251748
C175  C     C_1   0.301320 0.435321 0.102407 0.272103
C176  C     C_1   0.101644 0.553660 0.355385 0.300580
C177  C     C_1   0.559480 0.900093 0.354628 0.302560
C178  C     C_1   0.904945 0.446661 0.354375 0.300582
C179  C     C_R   0.313722 0.001389 0.499590 -0.167784
C180  C     C_1   0.442109 0.096052 0.355402 0.301533
C181  C     C_1   0.907489 0.569477 0.645422 0.305915
C182  C     C_1   0.446483 0.905193 0.645722 0.300827
C183  C     C_1   0.090235 0.431709 0.644129 0.304090
C184  C     C_1   0.554542 0.101225 0.644480 0.300364
C185  C     C_1   0.602382 0.057419 0.855707 0.301031
C186  C     C_1   0.024538 0.388950 0.853819 0.304632
C187  C     C_1   0.401558 0.958173 0.854224 0.297775
C188  C     C_1   0.981085 0.611840 0.855553 0.302781
C189  C     C_1   0.394677 0.041621 0.146330 0.306233
C190  C     C_R   0.001332 0.313711 0.500424 -0.168090
C191  C     C_1   0.956355 0.401711 0.145736 0.297794
C192  C     C_1   0.605060 0.953776 0.144021 0.302819
C193  C     C_1   0.057785 0.601325 0.144289 0.299458
C194  C     C_1   0.102146 0.863043 0.541487 0.287775
C195  C     C_1   0.132710 0.100512 0.543936 0.297321
C196  C     C_1   0.897412 0.138136 0.542229 0.285718
C197  C     C_1   0.865276 0.901751 0.544301 0.299093
C198  C     C_1   0.100709 0.132832 0.456132 0.296802
C199  C     C_1   0.138200 0.897570 0.457720 0.286086
C200  C     C_1   0.901604 0.865294 0.455813 0.298800
C201  C     C_R   0.686299 0.998382 0.499755 -0.167566
C202  C     C_1   0.863133 0.102156 0.458476 0.287950
C203  C     C_1   0.606938 0.363519 0.040287 0.273623
C204  C     C_1   0.633173 0.600686 0.043636 0.290063
C205  C     C_1   0.443759 0.667265 0.059863 0.338112
C206  C     C_1   0.342051 0.529629 0.067184 0.314816
C207  C     C_1   0.603946 0.632801 0.955747 0.280575
C208  C     C_1   0.638110 0.398328 0.956815 0.283347
C209  C     C_1   0.396340 0.352216 0.962765 0.284213
C210  C     C_1   0.349788 0.615617 0.963972 0.251471
C211  C     C_1   0.073076 0.645880 0.552590 0.266151
C212  C     C_R   0.498361 0.185941 0.010502 -0.200899
C213  C     C_1   0.352478 0.081091 0.550982 0.266827
C214  C     C_1   0.922320 0.356765 0.552469 0.265631
C215  C     C_1   0.645549 0.919363 0.550870 0.267230
C216  C     C_1   0.081366 0.352554 0.449091 0.267158
C217  C     C_1   0.356565 0.923527 0.447238 0.266028
C218  C     C_1   0.919655 0.645687 0.449137 0.267497
C219  C     C_1   0.646226 0.072055 0.447149 0.266067
C220  C     C_1   0.598155 0.139139 0.048812 0.265120
C221  C     C_1   0.852747 0.581836 0.050910 0.269495
C222  C     C_1   0.413619 0.858320 0.049723 0.278701
C223  C     C_R   0.118750 0.000358 0.499892 0.769775
C224  C     C_R   0.813806 0.501937 0.999595 -0.167742
C225  C     C_1   0.153020 0.378521 0.033664 0.314977
C226  C     C_1   0.576460 0.854356 0.946957 0.265597
C227  C     C_1   0.854305 0.435705 0.944461 0.258607
C228  C     C_1   0.379138 0.154978 0.037957 0.276835
C229  C     C_1   0.153874 0.464263 0.940078 0.255868
C230  C     C_R   0.502122 0.814067 0.999599 -0.164786
C231  C     C_R   0.186547 0.491486 0.999027 -0.141906
C232  C     C_R   0.000046 0.814925 0.499518 -0.137204
C233  C     C_R   0.185027 0.000729 0.499752 -0.136362
C234  C     C_R   0.000701 0.185029 0.500224 -0.136323
C235  C     C_R   0.814926 0.000092 0.500518 -0.137150
C236  C     C_R   0.503608 0.313157 0.001121 -0.143785
C237  C     C_R   0.685163 0.500476 0.999477 -0.133858
C238  C     C_R   0.507859 0.685221 0.000558 -0.126587
C239  C     C_R   0.000365 0.118751 0.500098 0.769480
C240  C     C_R   0.312246 0.514902 0.003036 -0.189256
C241  C     C_R   0.051442 0.525626 0.369868 0.004855
C242  C     C_R   0.528787 0.949856 0.369555 0.005972
C243  C     C_R   0.954253 0.474356 0.369388 0.005276
C244  C     C_R   0.472600 0.046796 0.369927 0.006002
C245  C     C_R   0.953494 0.533400 0.630418 0.006980
C246  C     C_R   0.474406 0.954324 0.630652 0.005257
C247  C     C_R   0.044327 0.467481 0.629787 0.006975
C248  C     C_R   0.526187 0.051197 0.630059 0.004998
C249  C     C_R   0.551102 0.031040 0.870073 0.007093
C250  C     C_R   0.380501 0.506381 0.000664 0.793982
C251  C     C_R   0.012799 0.445561 0.868949 -0.002650
C252  C     C_R   0.451935 0.983615 0.869352 0.006424
C253  C     C_R   0.993296 0.555114 0.869796 0.005700
C254  C     C_R   0.447987 0.019018 0.131019 -0.000714
C255  C     C_R   0.982200 0.451919 0.130617 0.004348
C256  C     C_R   0.551690 0.977293 0.129893 0.003439
C257  C     C_R   0.030711 0.550504 0.129917 0.006514
C258  C     C_R   0.050541 0.524738 0.399532 -0.211644
C259  C     C_R   0.527758 0.950247 0.399226 -0.206978
C260  C     C_R   0.953250 0.474785 0.399074 -0.210481
C261  C     C_R   0.502384 0.380659 0.000019 0.782273
C262  C     C_R   0.473170 0.047430 0.399584 -0.210896
C263  C     C_R   0.953251 0.532037 0.600754 -0.208372
C264  C     C_R   0.474738 0.953323 0.600965 -0.210266
C265  C     C_R   0.044797 0.468202 0.600146 -0.211765
C266  C     C_R   0.525184 0.050311 0.600400 -0.211915
C267  C     C_R   0.550388 0.029013 0.899743 -0.221345
C268  C     C_R   0.011445 0.445439 0.898598 -0.190272
C269  C     C_R   0.451162 0.982920 0.899013 -0.223880
C270  C     C_R   0.994054 0.554735 0.899443 -0.237218
C271  C     C_R   0.447790 0.018813 0.101356 -0.209784
C272  C     C_R   0.618819 0.499723 0.999839 0.764057
C273  C     C_R   0.981386 0.451350 0.100956 -0.228888
C274  C     C_R   0.551458 0.978653 0.100246 -0.209899
C275  C     C_R   0.028570 0.550003 0.100255 -0.224042
C276  C     C_R   0.001396 0.499697 0.414307 -0.009245
C277  C     C_R   0.500354 0.999108 0.414377 -0.004267
C278  C     C_R   0.999155 0.500042 0.585524 -0.002269
C279  C     C_R   0.499831 0.001330 0.585682 -0.008888
C280  C     C_R   0.500473 0.005092 0.914388 -0.034420
C281  C     C_R   0.002939 0.499998 0.914125 -0.038282
C282  C     C_R   0.499631 0.999425 0.085754 -0.025761
C283  C     C_R   0.505595 0.618461 0.000120 0.790012
C284  C     C_R   0.004045 0.500485 0.085605 -0.035944
C285  C     C_R   0.003317 0.500145 0.354546 0.264292
C286  C     C_R   0.500829 0.998081 0.354661 0.263229
C287  C     C_R   0.998925 0.500690 0.645198 0.260578
C288  C     C_R   0.500490 0.003236 0.645436 0.264257
C289  C     C_R   0.501946 0.007891 0.854634 0.264880
C290  C     C_R   0.003143 0.500461 0.854286 0.261759
C291  C     C_R   0.500007 0.998012 0.145533 0.263395
C292  C     C_R   0.007066 0.501545 0.145343 0.264879
C293  C     C_R   0.502242 0.006294 0.735036 -0.013116
C294  C     C_R   0.049550 0.781814 0.512389 0.020223
C295  C     C_R   0.000274 0.501288 0.734770 -0.013896
C296  C     C_R   0.501077 0.997454 0.265079 -0.013367
C297  C     C_R   0.006001 0.501800 0.264940 -0.013104
C298  C     C_R   0.006775 0.502245 0.234952 -0.013385
C299  C     C_R   0.500905 0.997493 0.235104 -0.013468
C300  C     C_R   0.001003 0.501099 0.764730 -0.014194
C301  C     C_R   0.502743 0.007237 0.765022 -0.013223
C302  C     C_R   0.000368 0.499801 0.445617 0.832557
C303  C     C_R   0.500105 0.999718 0.445647 0.829617
C304  C     C_R   0.999702 0.500021 0.554323 0.828639
Cu1   Cu    Cu3+1 0.000000 1.000000 0.471880 1.058038
Cu2   Cu    Cu3+1 0.000000 0.438170 0.000000 1.023134
Cu3   Cu    Cu3+1 0.561830 0.000000 0.000000 0.997661
Cu4   Cu    Cu3+1 0.000000 0.561830 0.000000 0.997486
Cu5   Cu    Cu3+1 0.000000 0.000000 0.528120 1.057891
Cu6   Cu    Cu3+1 0.500000 0.500000 0.971880 1.055166
Cu7   Cu    Cu3+1 0.500000 0.500000 0.028120 1.039651
Cu8   Cu    Cu3+1 0.938170 0.500000 0.500000 0.997649
Cu9   Cu    Cu3+1 0.500000 0.938170 0.500000 0.996919
Cu10  Cu    Cu3+1 0.061830 0.500000 0.500000 0.997459
Cu11  Cu    Cu3+1 0.500000 0.061830 0.500000 0.996759
Cu12  Cu    Cu3+1 0.438170 0.000000 0.000000 1.001117
H1    H     H_    0.184216 0.683870 0.543005 0.153337
H2    H     H_    0.803999 0.690401 0.041834 0.153621
H3    H     H_    0.312416 0.798905 0.042549 0.158012
H4    H     H_    0.208790 0.377901 0.081135 0.162796
H5    H     H_    0.687605 0.809781 0.953407 0.153401
H6    H     H_    0.820968 0.321620 0.950791 0.152627
H7    H     H_    0.288931 0.217325 0.015835 0.155272
H8    H     H_    0.202916 0.542543 0.904830 0.167097
H9    H     H_    0.087696 0.544592 0.411129 0.164671
H10   H     H_    0.549361 0.913011 0.410533 0.162707
H11   H     H_    0.915335 0.454868 0.410315 0.164251
H12   H     H_    0.305053 0.189912 0.542065 0.153327
H13   H     H_    0.451365 0.085061 0.411168 0.163371
H14   H     H_    0.918217 0.557222 0.589494 0.160786
H15   H     H_    0.454592 0.915535 0.589763 0.164134
H16   H     H_    0.079976 0.442801 0.588419 0.161436
H17   H     H_    0.545196 0.087346 0.588761 0.164619
H18   H     H_    0.588518 0.046661 0.911436 0.166393
H19   H     H_    0.017152 0.402592 0.909546 0.181928
H20   H     H_    0.412631 0.963753 0.910094 0.166246
H21   H     H_    0.986391 0.597177 0.911035 0.173228
H22   H     H_    0.407226 0.034133 0.090487 0.188691
H23   H     H_    0.812505 0.317133 0.542554 0.153044
H24   H     H_    0.961879 0.413077 0.089854 0.169931
H25   H     H_    0.591525 0.962635 0.088460 0.171141
H26   H     H_    0.046723 0.587926 0.088570 0.165803
H27   H     H_    0.393723 0.117922 0.725068 0.195049
H28   H     H_    0.870560 0.420787 0.724858 0.195091
H29   H     H_    0.610438 0.894022 0.723412 0.195040
H30   H     H_    0.129461 0.581930 0.723085 0.195157
H31   H     H_    0.401065 0.882637 0.275946 0.195267
H32   H     H_    0.894428 0.610678 0.276664 0.195120
H33   H     H_    0.601220 0.112242 0.275811 0.195117
H34   H     H_    0.693368 0.810606 0.540847 0.153219
H35   H     H_    0.117056 0.392646 0.274808 0.195224
H36   H     H_    0.894746 0.610401 0.225078 0.195177
H37   H     H_    0.402145 0.881512 0.224354 0.195543
H38   H     H_    0.119338 0.394394 0.223233 0.195199
H39   H     H_    0.599563 0.113487 0.224254 0.195155
H40   H     H_    0.870465 0.422610 0.776442 0.195163
H41   H     H_    0.395582 0.120497 0.776635 0.194995
H42   H     H_    0.132028 0.579502 0.774616 0.195066
H43   H     H_    0.610227 0.894618 0.775001 0.194989
H44   H     H_    0.190190 0.305129 0.458067 0.153287
H45   H     H_    0.317554 0.813322 0.456992 0.152850
H46   H     H_    0.810718 0.693309 0.459131 0.153214
H47   H     H_    0.683671 0.183501 0.456494 0.153061
H48   H     H_    0.701129 0.188363 0.034907 0.152376
N1    N     N_R   0.500991 0.004182 0.676032 -0.471664
N2    N     N_1   0.181966 0.739433 0.456559 -0.254782
N3    N     N_1   0.260530 0.164341 0.455577 -0.257883
N4    N     N_1   0.817819 0.259951 0.457811 -0.254814
N5    N     N_1   0.739052 0.181385 0.543102 -0.255015
N6    N     N_1   0.164204 0.260259 0.544512 -0.258550
N7    N     N_1   0.260162 0.818237 0.541840 -0.254897
N8    N     N_1   0.834580 0.742067 0.544521 -0.258003
N9    N     N_1   0.236060 0.335669 0.974683 -0.250292
N10   N     N_1   0.688127 0.242746 0.950184 -0.253056
N11   N     N_1   0.762524 0.670634 0.951423 -0.252377
N12   N     N_R   0.999096 0.501271 0.675795 -0.471588
N13   N     N_1   0.317089 0.643910 0.890552 -0.233478
N14   N     N_1   0.268690 0.651990 0.054957 -0.270692
N15   N     N_1   0.663087 0.761298 0.041654 -0.259083
N16   N     N_1   0.767351 0.327360 0.035820 -0.254651
N17   N     N_1   0.321219 0.427773 0.124752 -0.229563
N18   N     N_1   0.141887 0.576132 0.343742 -0.240015
N19   N     N_1   0.584086 0.860201 0.342631 -0.240120
N20   N     N_1   0.865419 0.424461 0.342307 -0.240311
N21   N     N_1   0.417668 0.135533 0.343727 -0.240488
N22   N     N_1   0.870611 0.598402 0.657477 -0.239987
N23   N     N_R   0.501130 0.997644 0.324069 -0.471788
N24   N     N_1   0.424101 0.865809 0.657837 -0.240252
N25   N     N_1   0.127031 0.403031 0.655652 -0.240645
N26   N     N_1   0.577271 0.141327 0.656073 -0.240630
N27   N     N_1   0.643493 0.078563 0.844157 -0.239832
N28   N     N_1   0.033950 0.343573 0.841666 -0.239876
N29   N     N_1   0.361184 0.937781 0.842065 -0.239958
N30   N     N_1   0.971296 0.657303 0.844109 -0.241568
N31   N     N_1   0.351944 0.059740 0.158631 -0.240164
N32   N     N_1   0.935643 0.361469 0.157889 -0.241131
N33   N     N_1   0.647840 0.934927 0.155377 -0.240376
N34   N     N_R   0.004193 0.500649 0.323948 -0.471684
N35   N     N_1   0.079492 0.642066 0.155843 -0.239737
N36   N     N_1   0.102508 0.904342 0.556939 -0.209300
N37   N     N_1   0.092581 0.099041 0.560061 -0.209801
N38   N     N_1   0.896824 0.097309 0.557533 -0.209927
N39   N     N_1   0.904690 0.903841 0.560358 -0.209816
N40   N     N_1   0.099307 0.092726 0.440025 -0.209580
N41   N     N_1   0.097309 0.896958 0.442460 -0.209700
N42   N     N_1   0.903643 0.904757 0.439772 -0.209542
N43   N     N_1   0.904541 0.102580 0.443057 -0.209131
N44   N     N_1   0.605970 0.403837 0.056307 -0.211316
N45   N     N_R   0.007631 0.502442 0.175938 -0.471297
N46   N     N_1   0.593703 0.599032 0.060095 -0.203706
N47   N     N_1   0.464759 0.651982 0.081117 -0.211451
N48   N     N_1   0.373520 0.564102 0.077915 -0.254167
N49   N     N_1   0.602688 0.590819 0.940736 -0.211511
N50   N     N_1   0.595831 0.397150 0.942417 -0.209511
N51   N     N_1   0.396925 0.386418 0.944254 -0.215500
N52   N     N_1   0.386210 0.651401 0.968613 -0.269631
N53   N     N_1   0.059872 0.615129 0.571287 -0.277920
N54   N     N_1   0.385547 0.070324 0.569216 -0.274894
N55   N     N_1   0.933524 0.388545 0.571270 -0.276147
N56   N     N_R   0.500368 0.997752 0.176119 -0.471485
N57   N     N_1   0.612143 0.930078 0.569458 -0.273750
N58   N     N_1   0.070688 0.385650 0.430852 -0.274903
N59   N     N_1   0.387998 0.935317 0.428371 -0.275599
N60   N     N_1   0.930537 0.612357 0.430555 -0.273838
N61   N     N_1   0.615809 0.058357 0.428426 -0.277340
N62   N     N_1   0.594052 0.102809 0.066237 -0.263689
N63   N     N_1   0.886609 0.571356 0.068878 -0.264336
N64   N     N_1   0.418473 0.894840 0.067303 -0.267513
N65   N     N_1   0.118554 0.341368 0.027860 -0.241371
N66   N     N_1   0.562661 0.886727 0.928883 -0.271364
N67   N     N_R   0.002500 0.500598 0.823696 -0.470580
N68   N     N_1   0.882566 0.453454 0.925621 -0.273641
N69   N     N_1   0.373125 0.118384 0.055149 -0.290069
N70   N     N_1   0.123289 0.424219 0.933894 -0.263410
N71   N     N_R   0.502985 0.008392 0.824036 -0.471655
N72   N     N_1   0.741895 0.834358 0.455586 -0.257433
O1    O     O_R   0.909810 1.000000 0.476260 -0.570303
O2    O     O_R   0.500000 0.409810 0.976260 -0.557615
O3    O     O_R   0.590190 0.500000 0.976260 -0.573061
O4    O     O_R   0.500000 0.590190 0.976260 -0.564440
O5    O     O_R   0.409810 0.500000 0.023740 -0.591544
O6    O     O_R   0.500000 0.590190 0.023740 -0.585143
O7    O     O_R   0.590190 0.500000 0.023740 -0.569391
O8    O     O_R   0.500000 0.409810 0.023740 -0.575935
O9    O     O_R   0.947780 0.500010 0.458980 -0.579103
O10   O     O_R   0.499990 0.947780 0.458980 -0.581141
O11   O     O_R   0.052220 0.499990 0.458980 -0.579702
O12   O     O_R   0.000000 0.909810 0.476260 -0.569257
O13   O     O_R   0.500010 0.052220 0.458980 -0.581072
O14   O     O_R   0.947780 0.499990 0.541020 -0.579421
O15   O     O_R   0.499990 0.052220 0.541020 -0.579634
O16   O     O_R   0.052220 0.500010 0.541020 -0.579510
O17   O     O_R   0.500010 0.947780 0.541020 -0.578926
O18   O     O_R   0.447780 0.000010 0.958980 -0.585509
O19   O     O_R   0.999990 0.447780 0.958980 -0.570845
O20   O     O_R   0.552220 0.999990 0.958980 -0.574698
O21   O     O_R   0.000010 0.552220 0.958980 -0.590838
O22   O     O_R   0.447780 0.999990 0.041020 -0.568818
O23   O     O_R   0.090190 1.000000 0.476260 -0.570586
O24   O     O_R   0.999990 0.552220 0.041020 -0.575065
O25   O     O_R   0.552220 0.000010 0.041020 -0.580849
O26   O     O_R   0.000010 0.447780 0.041020 -0.584071
O27   O     O_R   0.947780 0.590160 0.500040 -0.581148
O28   O     O_R   0.409840 0.947780 0.500040 -0.580219
O29   O     O_R   0.052220 0.409840 0.500040 -0.581066
O30   O     O_R   0.590160 0.052220 0.500040 -0.580131
O31   O     O_R   0.947780 0.409840 0.499960 -0.580285
O32   O     O_R   0.409840 0.052220 0.499960 -0.580608
O33   O     O_R   0.052220 0.590160 0.499960 -0.580145
O34   O     O_R   0.000000 0.090190 0.476260 -0.568786
O35   O     O_R   0.590160 0.947780 0.499960 -0.580883
O36   O     O_R   0.447780 0.090160 0.000040 -0.579234
O37   O     O_R   0.909840 0.447780 0.000040 -0.575439
O38   O     O_R   0.552220 0.909840 0.000040 -0.579384
O39   O     O_R   0.090160 0.552220 0.000040 -0.573360
O40   O     O_R   0.447780 0.909840 0.999960 -0.581808
O41   O     O_R   0.909840 0.552220 0.999960 -0.578599
O42   O     O_R   0.552220 0.090160 0.999960 -0.580146
O43   O     O_R   0.090160 0.447780 0.999960 -0.569569
O44   O     O_2   0.578392 0.928180 0.675043 -0.520197
O45   O     O_R   0.909810 0.000000 0.523740 -0.569394
O46   O     O_2   0.086630 0.561311 0.674877 -0.521156
O47   O     O_2   0.423647 0.080232 0.676248 -0.520347
O48   O     O_2   0.911437 0.441401 0.676014 -0.521134
O49   O     O_2   0.573380 0.075256 0.324375 -0.520407
O50   O     O_2   0.079824 0.422895 0.323674 -0.520211
O51   O     O_2   0.428992 0.919932 0.324530 -0.520210
O52   O     O_2   0.928637 0.578482 0.324996 -0.520139
O53   O     O_2   0.087744 0.429317 0.174905 -0.527457
O54   O     O_2   0.566535 0.080638 0.175739 -0.521137
O55   O     O_2   0.927727 0.575801 0.176195 -0.519271
O56   O     O_R   0.000000 0.090190 0.523740 -0.570629
O57   O     O_2   0.434289 0.914796 0.175731 -0.519788
O58   O     O_2   0.095872 0.551332 0.823374 -0.531398
O59   O     O_2   0.575819 0.928020 0.823860 -0.519656
O60   O     O_2   0.909053 0.449997 0.824730 -0.519036
O61   O     O_2   0.430381 0.088971 0.824980 -0.523851
O62   O     O_R   0.090190 0.000000 0.523740 -0.568905
O63   O     O_R   0.000000 0.909810 0.523740 -0.570362
O64   O     O_R   0.409810 0.500000 0.976260 -0.560332

loop_
_geom_bond_atom_site_label_1
_geom_bond_atom_site_label_2
_ccdc_geom_bond_type
C55   O48   S    
C18   C295  A    
C94   C159  S    
C53   O46   S    
C289  N71   S    
C132  C150  A    
C58   N34   A    
C91   C166  S    
C274  C282  A    
C77   C202  S    
C12   O42   A    
C128  C145  A    
C157  C158  A    
C57   C76   A    
C79   C236  A    
C50   H42   S    
Cu12  O40   S    
C22   C60   A    
C181  C245  S    
C92   C109  A    
C219  N61   T    
C126  C143  A    
C151  C224  A    
C105  C123  A    
C252  C289  A    
C82   C99   A    
C1    O45   A    
C250  O5    A    
C290  N67   S    
C223  C233  S    
C76   C94   A    
C60   O52   S    
C125  C213  S    
C40   C43   A    
C120  H6    S    
C78   C96   A    
C192  C256  S    
C9    O28   A    
C133  C151  A    
C56   O49   S    
Cu6   O2    S    
C265  H16   S    
Cu7   O7    S    
C85   C103  A    
C93   C110  A    
C164  N6    T    
C28   C61   A    
C236  C261  S    
C21   C59   A    
C173  N15   T    
C184  C248  S    
C256  C274  A    
C6    C282  S    
C21   C296  A    
C52   N1    A    
C216  N58   T    
C211  N53   T    
C54   O47   S    
C62   N56   A    
C170  N11   T    
C257  C275  A    
C97   C173  S    
C100  C170  S    
C27   C299  A    
C10   O31   A    
C4    O20   A    
C288  N1    S    
C192  N33   T    
C221  N63   T    
C271  C282  A    
C116  C133  A    
C117  H3    S    
C218  N60   T    
C118  H4    S    
C135  C237  A    
C269  C280  A    
C139  C228  S    
Cu4   O24   S    
C42   C45   A    
Cu6   O64   S    
C161  N3    T    
C169  N10   T    
C2    C233  A    
C3    C279  S    
C253  C270  A    
C249  C289  A    
C123  C141  A    
C5    O19   A    
C35   C234  A    
C78   C203  S    
C12   C212  S    
C186  C251  S    
C104  C171  S    
C206  N48   T    
C83   C100  A    
C15   C230  S    
C49   H41   S    
C4    C280  S    
C131  C149  A    
C22   C297  A    
C120  C138  A    
C17   C34   A    
C223  O62   A    
C2    C71   A    
C103  C121  A    
C118  C136  A    
C75   C93   A    
C178  C243  S    
C68   C77   A    
Cu8   O9    S    
C141  C168  A    
C41   H33   S    
C272  O7    A    
C85   C209  S    
C158  C231  A    
C72   C196  S    
C163  N5    T    
C13   C72   A    
C291  N56   S    
C23   C41   A    
C239  O34   A    
C268  C281  A    
Cu9   O10   S    
C29   C299  A    
C136  C153  A    
C127  C215  S    
C141  C294  A    
C87   C165  S    
C1    C235  S    
C285  N34   S    
C55   N12   A    
Cu7   O5    S    
C193  N35   T    
C129  C147  A    
C194  N36   T    
C27   C64   A    
C187  N29   T    
C185  C249  S    
C71   C88   A    
Cu10  O33   S    
C147  C179  A    
C106  H12   S    
Cu10  O11   S    
C20   C295  A    
C217  N59   T    
C241  C285  A    
C17   C54   A    
C32   C65   A    
C92   C161  S    
C84   C135  A    
C103  C167  S    
C7    O24   A    
C80   C97   A    
C112  O12   A    
C84   C102  A    
C44   H37   S    
C94   C111  A    
C10   O29   A    
C246  C288  A    
C275  H26   S    
C86   C104  A    
C272  O3    A    
C81   C101  A    
C106  C125  A    
C64   O57   S    
C137  C226  S    
C29   C47   A    
C228  N69   T    
C172  N14   T    
C68   C235  A    
C35   C145  A    
C252  C269  A    
Cu9   Cu11  S    
C225  N65   T    
Cu3   O42   S    
C74   C92   A    
C286  N23   S    
C267  C280  A    
C182  N24   T    
C110  C129  A    
C130  C218  S    
C283  O4    A    
C189  N31   T    
C83   C207  S    
C140  C158  A    
C183  N25   T    
C27   C44   A    
C296  C299  A    
C74   C198  S    
C134  C222  S    
C61   N45   A    
C68   C149  A    
C83   C124  A    
C8    C168  S    
C125  C142  A    
C30   C67   A    
C9    C179  S    
C37   H29   S    
C203  N44   T    
C243  C260  A    
C98   C172  S    
C48   H40   S    
C70   C87   A    
C28   C298  A    
C46   C75   A    
C3    O17   A    
C266  H17   S    
C33   C66   A    
C152  C230  A    
C115  C132  A    
C241  C258  A    
C63   O55   S    
Cu5   O62   S    
C31   C301  A    
C57   C232  A    
C116  H2    S    
C88   C164  S    
C262  C277  A    
C232  C294  A    
C264  H15   S    
C132  C220  S    
C283  O6    A    
C26   C63   A    
C114  C131  A    
C267  H18   S    
C66   O59   S    
C33   C301  A    
C84   C208  S    
C157  C240  A    
C71   C195  S    
C87   C105  A    
C32   C50   A    
C41   C47   A    
C100  C119  A    
C59   N23   A    
C215  N57   T    
C18   C55   A    
C128  C216  S    
C6    O22   A    
C2    C142  A    
C259  C277  A    
C244  C262  A    
C293  C301  A    
C245  C263  A    
C261  O2    A    
C82   C206  S    
C246  C264  A    
Cu11  O32   S    
C16   O39   A    
C34   C49   A    
C181  N22   T    
C19   C293  A    
Cu9   O17   S    
C273  C284  A    
C202  N43   T    
C303  O13   A    
C112  O63   A    
C82   C113  A    
C14   O37   A    
C39   C44   A    
C75   C199  S    
C266  C279  A    
C263  C278  A    
C16   C231  S    
C30   C300  A    
C121  C139  A    
C122  C140  A    
Cu8   O27   S    
Cu1   Cu5   S    
C36   C48   A    
C237  C272  S    
Cu4   O41   S    
C138  C227  S    
C226  N66   T    
C86   C157  A    
C287  N12   S    
C7    C284  S    
C144  C201  A    
C247  C265  A    
C140  C229  S    
C111  H46   S    
C99   C175  S    
C256  C291  A    
C25   C297  A    
C1    O1    A    
Cu6   O3    S    
C153  C231  A    
C261  O8    A    
C222  N64   T    
C260  H11   S    
C304  O16   A    
C54   N1    A    
C220  N62   T    
C138  C155  A    
C136  C225  S    
C35   C74   A    
C240  C250  S    
C165  N7    T    
C105  H1    S    
C242  C259  A    
C67   O60   S    
C253  C290  A    
C302  O11   A    
C43   H36   S    
C32   C300  A    
C47   H39   S    
C40   H32   S    
C244  C286  A    
C213  N54   T    
C114  H47   S    
C96   C174  S    
C262  H13   S    
C115  H48   S    
C52   O44   S    
C182  C246  S    
C145  C190  A    
C24   C73   A    
C245  C287  A    
C81   C98   A    
C95   C114  A    
C176  N18   T    
C264  C279  A    
Cu4   O21   S    
C242  C286  A    
C129  C217  S    
C238  C283  S    
C126  C214  S    
Cu5   O45   S    
C19   C52   A    
C121  H7    S    
C113  C240  A    
C119  H5    S    
C133  C221  S    
C208  N50   T    
Cu11  O30   S    
Cu12  O18   S    
C60   N34   A    
C239  O56   A    
C160  N2    T    
C31   C49   A    
C197  N39   T    
C117  C134  A    
C292  N45   S    
C271  H22   S    
C200  N42   T    
C34   H27   S    
Cu3   O38   S    
Cu2   O43   S    
Cu6   O4    S    
C274  H25   S    
C198  N40   T    
C196  N38   T    
Cu8   O31   S    
C113  C153  A    
C17   C293  A    
Cu11  O15   S    
C15   O40   A    
C258  C276  A    
C191  C255  S    
C93   C160  S    
C62   O54   S    
C61   O53   S    
C171  N13   T    
C109  C128  A    
C46   C147  A    
C64   N56   A    
C134  C152  A    
C89   C107  A    
C183  C247  S    
Cu7   O8    S    
C36   H28   S    
C97   C116  A    
C243  C285  A    
C79   C150  A    
Cu8   O14   S    
Cu12  O22   S    
C193  C257  S    
C175  N17   T    
C148  C168  A    
C19   C37   A    
C302  O9    A    
C254  C291  A    
C102  C120  A    
C30   C48   A    
Cu6   Cu7   S    
C6    O25   A    
C214  N55   T    
C90   C237  A    
C167  N9    T    
C91   C108  A    
C86   C210  S    
C188  N30   T    
C20   C53   A    
C16   O43   A    
C25   C42   A    
C295  C300  A    
C33   C51   A    
C166  N8    T    
C101  C152  A    
C112  C232  S    
C303  O10   A    
C65   N67   A    
C14   O41   A    
C249  C267  A    
C80   C204  S    
C24   C144  A    
C7    O26   A    
C39   H31   S    
Cu8   Cu10  S    
C137  C154  A    
C20   C38   A    
C127  C144  A    
C13   C143  A    
C265  C278  A    
C178  N20   T    
C223  O23   A    
C104  C122  A    
C63   N45   A    
C122  H8    S    
C57   C148  A    
C251  C290  A    
C229  N70   T    
C18   C36   A    
C251  C268  A    
C89   C163  S    
C276  C302  S    
C227  N68   T    
C150  C212  A    
C277  C303  S    
C195  N37   T    
C8    O27   A    
C278  C304  S    
Cu1   O23   S    
C58   O50   S    
C124  C154  A    
C156  C212  A    
C297  C298  A    
C254  C271  A    
C124  C238  A    
C23   C56   A    
Cu1   O12   S    
Cu11  O13   S    
C15   O38   A    
Cu9   O28   S    
C10   C190  S    
C255  C273  A    
C5    C281  S    
C14   C224  S    
C188  C253  S    
C37   C51   A    
C248  C266  A    
C12   O36   A    
C268  H19   S    
C135  C155  A    
C26   C298  A    
C131  C219  S    
C11   C201  S    
Cu7   O6    S    
C187  C252  S    
C250  O64   A    
C111  C130  A    
Cu9   O35   S    
C123  C211  S    
C96   C115  A    
C189  C254  S    
C258  H9    S    
C210  N52   T    
C66   N71   A    
C38   H30   S    
C70   C194  S    
C186  N28   T    
C102  C169  S    
C177  C242  S    
C269  H20   S    
C59   O51   S    
C270  C281  A    
C154  C230  A    
C69   O61   S    
C155  C224  A    
C26   C43   A    
C263  H14   S    
C180  C244  S    
C109  H44   S    
C146  C236  A    
C28   C45   A    
C56   N23   A    
C130  C148  A    
C119  C137  A    
C46   C233  A    
C259  H10   S    
C85   C146  A    
C73   C91   A    
C247  C287  A    
C76   C200  S    
C95   C162  S    
C248  C288  A    
C78   C79   A    
Cu1   O34   S    
C77   C95   A    
C90   C151  A    
C11   O35   A    
C260  C276  A    
C207  N49   T    
C184  N26   T    
C255  C292  A    
C88   C106  A    
C142  C179  A    
C21   C39   A    
C110  H45   S    
C31   C69   A    
C159  N72   T    
C22   C40   A    
C108  H34   S    
C53   N12   A    
C205  N47   T    
C275  C284  A    
Cu5   O56   S    
C174  N16   T    
C199  N41   T    
Cu2   O26   S    
C204  N46   T    
C42   H35   S    
C45   H38   S    
C73   C197  S    
C11   O30   A    
C5    O21   A    
C177  N19   T    
Cu1   O1    S    
C25   C58   A    
C9    O32   A    
C51   H43   S    
C149  C201  A    
Cu2   Cu4   S    
C162  N4    T    
C98   C117  A    
C81   C205  S    
Cu10  O29   S    
C29   C62   A    
C185  N27   T    
Cu4   O39   S    
C304  O14   A    
C101  C238  A    
Cu5   O63   S    
C107  C126  A    
C67   N67   A    
Cu2   O19   S    
Cu3   O25   S    
C209  N51   T    
C191  N32   T    
Cu2   O37   S    
C270  H21   S    
C38   C50   A    
C273  H24   S    
C4    O18   A    
Cu12  O36   S    
C24   C235  A    
C99   C118  A    
C72   C89   A    
C65   O58   S    
C139  C156  A    
C180  N21   T    
Cu10  O16   S    
C143  C190  A    
C234  C239  S    
C70   C294  A    
C108  C127  A    
C80   C90   A    
C3    O15   A    
C107  H23   S    
Cu3   O20   S    
C69   N71   A    
C146  C156  A    
C8    O33   A    
C13   C234  A    
Cu3   Cu12  S    
C23   C296  A    
C257  C292  A    
C176  C241  S    
