data_mof_unit_37582.cif
_audit_creation_date              2013-03-05T15:57:55-0500
_audit_creation_method            fapswitch 2.2
_symmetry_space_group_name_H-M    P1
_symmetry_Int_Tables_number       1
_space_group_crystal_system       triclinic
_cell_length_a                    15.101196
_cell_length_b                    15.194382
_cell_length_c                    17.352525
_cell_angle_alpha                 109.798945
_cell_angle_beta                  105.524218
_cell_angle_gamma                 109.525688
_cell_volume                      3188.56964734

loop_
_atom_site_label
_atom_site_type_symbol
_atom_site_description
_atom_site_fract_x
_atom_site_fract_y
_atom_site_fract_z
_atom_type_partial_charge
C1    C     C_R   0.081792 0.286052 0.074181 0.786637
C2    C     C_R   0.909494 0.722151 0.978246 0.744786
N1    N     N_R   0.055660 0.348550 0.045620 -0.124791
N2    N     N_R   0.944340 0.651450 0.954380 -0.120382
C3    C     C_R   0.936404 0.508442 0.744441 0.728480
C4    C     C_R   0.061606 0.483479 0.252230 0.734182
N3    N     N_R   0.960830 0.507850 0.823700 -0.103701
N4    N     N_R   0.039170 0.492150 0.176300 -0.110472
C5    C     C_R   0.779250 0.202964 0.812757 -0.137359
C6    C     C_R   0.279248 0.787245 0.181097 -0.191246
H1    H     H_    0.768219 0.138982 0.828726 0.112527
H2    H     H_    0.313302 0.841561 0.157551 0.103510
N5    N     N_R   0.811290 0.303410 0.871650 -0.048808
N6    N     N_R   0.188710 0.696590 0.128350 -0.042170
C7    C     C_R   0.275495 0.547546 0.964496 0.236536
C8    C     C_R   0.711055 0.428703 0.018506 0.178474
N7    N     N_R   0.205200 0.552990 0.997670 -0.069810
N8    N     N_R   0.794800 0.447010 0.002330 -0.071396
C9    C     C_R   0.782785 0.296023 0.736734 -0.111730
C10   C     C_R   0.265745 0.694555 0.257028 -0.043316
H3    H     H_    0.773466 0.318196 0.683790 0.215717
H4    H     H_    0.280310 0.663228 0.303255 0.241382
N9    N     N_R   0.814800 0.361830 0.823700 -0.054909
N10   N     N_R   0.185200 0.638170 0.176300 -0.060701
C11   C     C_R   0.249332 0.437414 0.025695 -0.181487
C12   C     C_R   0.702752 0.494827 0.920306 -0.043787
H5    H     H_    0.248436 0.377565 0.045904 0.186613
H6    H     H_    0.675659 0.513629 0.866946 0.172921
N11   N     N_R   0.201680 0.494570 0.045620 -0.056544
N12   N     N_R   0.798320 0.505430 0.954380 -0.064416
C13   C     C_R   0.107788 0.594021 0.820499 -0.287158
C14   C     C_R   0.890590 0.392952 0.171794 -0.315175
H7    H     H_    0.185550 0.651878 0.842088 0.130113
H8    H     H_    0.809382 0.336968 0.144538 0.152166
N13   N     N_R   0.068420 0.560530 0.871650 -0.066749
N14   N     N_R   0.931580 0.439470 0.128350 -0.076863
C15   C     C_R   0.912038 0.198679 0.988836 -0.301851
C16   C     C_R   0.078904 0.800241 0.064361 -0.279516
H9    H     H_    0.831483 0.145358 0.957053 0.173591
H10   H     H_    0.154830 0.852400 0.118997 0.149582
N15   N     N_R   0.948070 0.295860 0.997670 -0.075615
N16   N     N_R   0.051930 0.704140 0.002330 -0.078809
C17   C     C_R   0.993756 0.188039 0.035680 0.002006
C18   C     C_R   0.993838 0.818951 0.047576 0.009362
C19   C     C_R   0.027740 0.558360 0.739097 -0.095802
C20   C     C_R   0.969228 0.422972 0.251902 -0.096604
C21   C     C_R   0.764452 0.196513 0.728491 0.084293
C22   C     C_R   0.328905 0.788677 0.262492 0.092826
C23   C     C_R   0.299270 0.469909 0.976937 0.003391
C24   C     C_R   0.644146 0.440887 0.954312 -0.003717
C25   C     C_R   0.910947 0.936530 0.062537 0.746480
C26   C     C_R   0.084045 0.091855 0.072761 0.746021
C27   C     C_R   0.001231 0.925375 0.073594 -0.250448
C28   C     C_R   0.990687 0.096816 0.050118 -0.213989
C29   C     C_R   0.089932 0.008319 0.084274 -0.196126
C30   C     C_R   0.900360 0.012703 0.037951 -0.187898
C31   C     C_R   0.751680 0.898892 0.882105 0.007064
C32   C     C_R   0.270477 0.053998 0.180925 0.063723
Ni1   Ni    Ni4+2 0.119340 0.493420 0.109960 0.294718
Ni2   Ni    Ni4+2 0.880660 0.506580 0.890040 0.267947
Ni3   Ni    Ni4+2 0.872590 0.372590 0.000000 0.175547
Ni4   Ni    Ni4+2 0.127410 0.627410 0.000000 0.184636
C33   C     C_R   0.593934 0.918669 0.848270 -0.015831
C34   C     C_R   0.384685 0.029013 0.108593 -0.005749
H11   H     H_    0.451035 0.456344 0.339907 0.168606
H12   H     H_    0.509763 0.400340 0.560919 0.166618
C35   C     C_R   0.468268 0.535172 0.258939 -0.181792
C36   C     C_R   0.501355 0.320817 0.642277 -0.271269
H13   H     H_    0.486136 0.608760 0.312502 0.238912
H14   H     H_    0.510751 0.258406 0.597442 0.143892
C37   C     C_R   0.469039 0.528041 0.176303 0.218264
C38   C     C_R   0.488351 0.319493 0.719342 0.246998
C39   C     C_R   0.439360 0.427008 0.105032 -0.074610
C40   C     C_R   0.476972 0.403684 0.777108 -0.029639
C41   C     C_R   0.419084 0.340393 0.122614 -0.307405
C42   C     C_R   0.476003 0.483700 0.753787 -0.380674
H15   H     H_    0.398356 0.263221 0.070536 0.169034
H16   H     H_    0.467284 0.548289 0.796416 0.179436
C43   C     C_R   0.425707 0.352239 0.207253 0.898334
C44   C     C_R   0.487358 0.482099 0.676202 0.871616
C45   C     C_R   0.447994 0.448446 0.274738 -0.262290
C46   C     C_R   0.500686 0.401264 0.620963 -0.272756
C47   C     C_R   0.495610 0.371189 0.985733 -0.233790
C48   C     C_R   0.381535 0.424083 0.874106 -0.247555
H17   H     H_    0.533103 0.340453 0.023610 0.135004
H18   H     H_    0.328518 0.432653 0.824631 0.146680
C49   C     C_R   0.531788 0.400830 0.928286 0.039463
C50   C     C_R   0.372222 0.434988 0.954930 0.064156
C51   C     C_R   0.464624 0.410205 0.860917 0.108691
C52   C     C_R   0.431538 0.408233 0.012599 0.077627
C53   C     C_R   0.648875 0.864110 0.823682 0.664645
C54   C     C_R   0.368670 0.068354 0.186515 0.730045
C55   C     C_R   0.953852 0.416866 0.329011 0.139655
C56   C     C_R   0.039701 0.551459 0.657593 0.143812
C57   C     C_R   0.128580 0.510628 0.564375 -0.194870
C58   C     C_R   0.862611 0.449979 0.421349 -0.226992
C59   C     C_R   0.128640 0.547839 0.649058 -0.174653
C60   C     C_R   0.863341 0.415871 0.337078 -0.168933
C61   C     C_R   0.954226 0.525630 0.582400 -0.217417
C62   C     C_R   0.038179 0.438553 0.403072 -0.215952
C63   C     C_R   0.951841 0.484330 0.497364 0.168694
C64   C     C_R   0.039461 0.476279 0.488090 0.154064
H19   H     H_    0.105878 0.434093 0.396077 0.197333
H20   H     H_    0.887461 0.532932 0.588874 0.194154
H21   H     H_    0.796555 0.398497 0.280328 0.125302
H22   H     H_    0.195741 0.567027 0.706529 0.130906
H23   H     H_    0.196780 0.506201 0.558338 0.161700
H24   H     H_    0.794476 0.454340 0.427596 0.141156
C65   C     C_R   0.726048 0.100403 0.644063 -0.043008
C66   C     C_R   0.433744 0.868374 0.336203 -0.073207
C67   C     C_R   0.569520 0.052023 0.421802 0.209017
C68   C     C_R   0.618803 0.910185 0.554755 0.189215
C69   C     C_R   0.476106 0.971176 0.347579 -0.338543
C70   C     C_R   0.686350 0.000345 0.638819 -0.352161
C71   C     C_R   0.487208 0.844855 0.399774 0.645946
C72   C     C_R   0.710570 0.107470 0.564487 0.677980
C73   C     C_R   0.576583 0.925322 0.478872 -0.136050
C74   C     C_R   0.621141 0.028152 0.486505 -0.188424
H25   H     H_    0.705574 0.992331 0.699865 0.147081
H26   H     H_    0.432531 0.989548 0.301030 0.197350
C75   C     C_R   0.641603 0.005948 0.936385 0.138579
C76   C     C_R   0.299699 0.975100 0.021796 0.133174
C77   C     C_R   0.735211 0.025886 0.000876 -0.284292
C78   C     C_R   0.203261 0.967204 0.016321 -0.206898
H27   H     H_    0.769555 0.088775 0.069833 0.162570
H28   H     H_    0.138543 0.930319 0.950464 0.155816
C79   C     C_R   0.794254 0.978874 0.973043 0.120738
C80   C     C_R   0.188743 0.006937 0.094640 0.099411
F1    F     F_    0.169716 0.325678 0.149723 -0.672522
F2    F     F_    0.811130 0.702929 0.933664 -0.698527
C81   C     C_3   0.814551 0.852603 0.843499 -0.168582
C82   C     C_3   0.856203 0.906387 0.791759 -0.973753
H29   H     H_    0.791249 0.891278 0.732332 0.276957
H30   H     H_    0.904478 0.993162 0.836700 0.269005
H31   H     H_    0.905127 0.874320 0.767220 0.264270
H32   H     H_    0.881874 0.861446 0.896144 0.173614
H33   H     H_    0.765801 0.766042 0.797589 0.264586
C83   C     C_3   0.253069 0.083728 0.266397 -0.388967
C84   C     C_3   0.283855 0.201022 0.315903 -0.617421
H34   H     H_    0.257617 0.215576 0.370856 0.195312
H35   H     H_    0.369683 0.249566 0.347558 0.288036
H36   H     H_    0.246803 0.225827 0.268575 0.288818
H37   H     H_    0.170289 0.036610 0.250294 0.187548
H38   H     H_    0.298258 0.063178 0.313034 0.189295
C85   C     C_3   0.498391 0.627549 0.165865 -0.354288
C86   C     C_3   0.596925 0.723885 0.245643 -0.900056
H39   H     H_    0.578890 0.761158 0.301989 0.268586
H40   H     H_    0.657092 0.701718 0.271024 0.261485
H41   H     H_    0.628867 0.783840 0.224175 0.270835
H42   H     H_    0.512683 0.614083 0.104932 0.201537
H43   H     H_    0.433055 0.647233 0.157902 0.215493
C87   C     C_3   0.485302 0.226641 0.735653 -0.377854
C88   C     C_3   0.377374 0.154836 0.721957 -0.861124
H44   H     H_    0.354514 0.196980 0.772528 0.266884
H45   H     H_    0.318827 0.125887 0.652664 0.260918
H46   H     H_    0.377818 0.085538 0.730104 0.245264
H47   H     H_    0.506670 0.177256 0.687907 0.185385
H48   H     H_    0.543964 0.254188 0.804023 0.191949
F3    F     F_    0.411681 0.270183 0.224331 -0.707474
F4    F     F_    0.485073 0.559088 0.654266 -0.661102
F5    F     F_    0.839495 0.484123 0.689746 -0.743465
F6    F     F_    0.159420 0.516701 0.311622 -0.714665
F7    F     F_    0.603057 0.778157 0.740984 -0.681127
F8    F     F_    0.451135 0.130325 0.268135 -0.732869
F9    F     F_    0.778395 0.193367 0.565175 -0.731996
F10   F     F_    0.451056 0.744008 0.384878 -0.768035
C89   C     C_3   0.599146 0.165162 0.439221 -0.256097
C90   C     C_3   0.665844 0.197759 0.391568 -0.621233
H49   H     H_    0.746491 0.213468 0.427699 0.271007
H50   H     H_    0.633130 0.134224 0.321216 0.244903
H51   H     H_    0.668433 0.270870 0.389819 0.233589
H52   H     H_    0.527929 0.173567 0.417087 0.219533
H53   H     H_    0.639181 0.222729 0.512457 0.194426
C91   C     C_3   0.589264 0.803539 0.552808 -0.211884
C92   C     C_3   0.641025 0.746659 0.506116 -0.790984
H54   H     H_    0.630250 0.746939 0.440568 0.257185
H55   H     H_    0.725920 0.787110 0.549944 0.237800
H56   H     H_    0.607490 0.663550 0.494160 0.258860
H57   H     H_    0.616754 0.813978 0.622463 0.221700
H58   H     H_    0.503926 0.754045 0.523152 0.252673
C93   C     C_3   0.486124 0.881632 0.778403 -0.288145
C94   C     C_3   0.406021 0.781786 0.770822 -0.822488
H59   H     H_    0.423886 0.715079 0.746369 0.316912
H60   H     H_    0.405364 0.796204 0.837732 0.228595
H61   H     H_    0.327397 0.758698 0.721977 0.240715
H62   H     H_    0.459679 0.942428 0.793591 0.182578
H63   H     H_    0.487193 0.864831 0.711200 0.208358
C95   C     C_3   0.493698 0.051432 0.120706 -0.293328
C96   C     C_3   0.513770 0.959542 0.120533 -0.960769
H64   H     H_    0.510129 0.949672 0.180330 0.275876
H65   H     H_    0.454791 0.885047 0.058142 0.264125
H66   H     H_    0.592148 0.975403 0.123227 0.274722
H67   H     H_    0.505901 0.068180 0.067035 0.172679
H68   H     H_    0.552455 0.125102 0.184071 0.231478
C97   C     C_3   0.599684 0.083319 0.961677 -0.345522
C98   C     C_3   0.620420 0.156522 0.919295 -0.969073
H69   H     H_    0.704558 0.213106 0.952525 0.271085
H70   H     H_    0.595051 0.111549 0.845260 0.263295
H71   H     H_    0.576951 0.202199 0.930207 0.255193
H72   H     H_    0.515354 0.039767 0.939518 0.206127
H73   H     H_    0.637307 0.134501 0.036345 0.182305
C99   C     C_3   0.308053 0.929234 0.933555 -0.357833
C100  C     C_3   0.307746 0.999065 0.887579 -0.867161
H74   H     H_    0.233096 0.002510 0.869470 0.268766
H75   H     H_    0.372669 0.080772 0.933341 0.254374
H76   H     H_    0.316955 0.965657 0.824390 0.245019
H77   H     H_    0.378301 0.918545 0.943342 0.192667
H78   H     H_    0.241055 0.848762 0.887359 0.186680
C101  C     C_3   0.330596 0.626943 0.937582 -0.436234
C102  C     C_3   0.449206 0.684020 0.986782 -0.891691
H79   H     H_    0.474992 0.729984 0.060710 0.268289
H80   H     H_    0.482916 0.629355 0.973222 0.275340
H81   H     H_    0.480552 0.740802 0.962243 0.265695
H82   H     H_    0.306248 0.587937 0.863298 0.193315
H83   H     H_    0.308952 0.691215 0.957650 0.196125
C103  C     C_3   0.729732 0.478507 0.117683 -0.404543
C104  C     C_3   0.720726 0.580582 0.148901 -0.814037
H84   H     H_    0.773509 0.638310 0.135249 0.275976
H85   H     H_    0.640680 0.565597 0.114165 0.271915
H86   H     H_    0.744108 0.615967 0.223022 0.236908
H87   H     H_    0.682282 0.421562 0.134918 0.173974
H88   H     H_    0.811238 0.506795 0.161679 0.221320
F11   F     F_    0.826469 0.861843 0.058402 -0.652768
F12   F     F_    0.166969 0.158624 0.068334 -0.679037

loop_
_geom_bond_atom_site_label_1
_geom_bond_atom_site_label_2
_geom_bond_distance
_ccdc_geom_bond_type
C68   C91   1.515758 S    
C100  H74   1.110527 S    
C32   C80   1.404299 A    
C63   C64   1.414376 A    
C33   C93   1.518526 S    
C38   C40   1.428705 A    
N7    N11   1.405541 A    
C61   C63   1.378993 A    
C2    N2    1.339990 A    
N15   Ni3   1.881796 S    
C56   C61   1.391232 A    
C68   C70   1.400256 A    
C85   C86   1.530295 S    
C93   H63   1.111969 S    
C92   H55   1.111057 S    
C93   C94   1.528084 S    
C104  H86   1.108847 S    
C100  H75   1.111232 S    
C101  H83   1.107120 S    
C60   H21   1.082077 S    
C40   C42   1.408610 A    
C67   C74   1.412875 A    
C14   N14   1.330165 A    
C40   C51   1.489788 S    
C78   H28   1.085054 S    
C9    H3    1.072161 S    
C48   H18   1.082804 S    
C39   C52   1.494666 S    
C16   N16   1.326519 A    
C1    F1    1.357589 S    
C83   H37   1.110209 S    
C12   C24   1.387620 A    
N4    Ni1   1.880616 S    
C43   F3    1.339600 S    
C68   C73   1.430754 A    
C84   H36   1.110974 S    
C9    C21   1.391292 A    
C77   H27   1.084342 S    
N6    Ni4   1.892671 S    
N5    N9    1.405544 A    
C96   H65   1.107408 S    
C25   C30   1.403150 A    
N4    N14   1.388753 A    
C30   C79   1.480354 S    
N6    N10   1.405545 A    
C8    C103  1.526176 S    
C5    N5    1.338989 A    
C103  H87   1.107742 S    
C65   C72   1.384679 A    
C91   C92   1.526631 S    
H11   C45   1.082547 S    
C18   C27   1.479493 S    
C1    C17   1.399540 A    
C90   H51   1.109468 S    
C10   N10   1.324429 A    
C25   F11   1.359604 S    
C82   H29   1.107196 S    
C38   C87   1.518780 S    
C58   C60   1.380630 A    
C1    N1    1.329567 A    
C13   H7    1.069330 S    
N8    N12   1.405543 A    
C88   H45   1.110689 S    
C31   C53   1.401195 A    
N16   Ni4   1.881797 S    
C85   H42   1.100685 S    
C57   C64   1.394521 A    
C89   H53   1.108065 S    
C54   F8    1.346099 S    
C90   H50   1.107390 S    
C61   H20   1.080925 S    
C58   H24   1.084086 S    
C95   H68   1.108753 S    
C99   H78   1.111854 S    
C58   C63   1.392849 A    
C57   H23   1.084191 S    
C39   C41   1.404104 A    
C23   C50   1.455925 S    
C53   F7    1.355924 S    
C55   C60   1.406441 A    
C14   C20   1.369430 A    
C98   H71   1.109272 S    
C19   C56   1.446645 S    
C12   H6    1.077448 S    
C33   C75   1.419073 A    
C26   C28   1.393634 A    
C97   H72   1.099865 S    
C92   H56   1.110380 S    
C86   H40   1.106264 S    
C27   C29   1.413279 A    
C11   N11   1.318747 A    
N9    Ni2   1.833408 S    
C15   H9    1.058168 S    
C100  H76   1.109528 S    
C87   H48   1.104821 S    
C5    C21   1.382397 A    
C99   C100  1.528737 S    
C42   H16   1.083683 S    
C4    F6    1.353913 S    
C93   H62   1.104659 S    
C103  C104  1.526014 S    
C44   C46   1.392405 A    
C81   H32   1.102065 S    
C6    N6    1.349662 A    
C2    C18   1.400609 A    
C89   C90   1.527548 S    
C37   C39   1.429766 A    
C4    N4    1.332906 A    
C56   C59   1.406842 A    
C71   C73   1.403156 A    
C104  H84   1.111451 S    
C21   C65   1.464562 S    
C3    C19   1.379543 A    
C62   H19   1.082417 S    
N12   Ni2   1.880087 S    
C95   C96   1.523772 S    
C25   C27   1.400319 A    
C94   H61   1.110231 S    
C3    F5    1.355160 S    
C15   C17   1.376652 A    
C96   H66   1.110522 S    
C9    N9    1.332275 A    
C16   C18   1.384119 A    
C81   H33   1.111531 S    
N7    Ni4   1.882187 S    
H12   C46   1.082779 S    
C86   H41   1.110712 S    
C41   H15   1.083944 S    
C70   H25   1.080566 S    
C17   C28   1.478059 S    
C77   C79   1.400374 A    
C92   H54   1.106751 S    
C66   C69   1.394156 A    
C36   C38   1.408353 A    
N2    Ni2   1.833583 S    
C62   C64   1.381969 A    
C101  C102  1.526670 S    
N5    Ni3   1.892673 S    
C67   C69   1.398244 A    
C10   C22   1.382704 A    
C29   C80   1.462592 S    
C71   F10   1.345284 S    
C94   H59   1.110350 S    
C5    H1    1.071717 S    
C55   C62   1.392271 A    
C85   H43   1.110994 S    
C6    H2    1.081542 S    
C65   C70   1.395300 A    
C48   C50   1.406401 A    
C59   H22   1.082110 S    
C24   C49   1.471955 S    
C82   H30   1.111143 S    
C90   H49   1.108535 S    
C37   C85   1.515188 S    
C50   C52   1.417125 A    
C95   H67   1.089576 S    
C35   C45   1.387570 A    
C102  H80   1.103966 S    
C99   H77   1.103628 S    
C49   C51   1.410797 A    
C6    C22   1.399643 A    
C13   N13   1.336589 A    
C72   F9    1.357186 S    
C104  H85   1.099716 S    
C48   C51   1.403249 A    
C34   C54   1.402940 A    
C76   C78   1.394891 A    
N14   Ni3   1.893733 S    
C91   H58   1.107310 S    
N3    Ni2   1.880613 S    
C3    N3    1.329182 A    
C86   H39   1.105173 S    
C7    N7    1.348564 A    
C47   C52   1.377701 A    
C87   H47   1.112395 S    
N1    N15   1.388749 A    
C4    C20   1.387879 A    
C94   H60   1.109706 S    
C47   H17   1.075251 S    
N3    N13   1.388751 A    
C98   H70   1.109493 S    
C31   C81   1.520703 S    
C42   C44   1.395242 A    
C10   H4    1.073594 S    
C98   H69   1.108066 S    
C47   C49   1.387872 A    
C31   C79   1.419806 A    
C84   H34   1.110482 S    
C26   C29   1.377169 A    
C28   C30   1.426990 A    
C26   F12   1.363221 S    
C89   H52   1.106509 S    
C97   H73   1.111022 S    
C11   H5    1.077246 S    
C102  H81   1.110636 S    
C43   C45   1.386355 A    
C101  H82   1.109552 S    
C78   C80   1.397017 A    
C36   C46   1.394106 A    
C76   C99   1.511773 S    
C88   H44   1.108397 S    
C7    C101  1.511472 S    
C83   H38   1.111801 S    
C73   C74   1.421561 A    
C16   H10   1.069234 S    
C84   H35   1.109521 S    
C32   C83   1.518912 S    
C20   C55   1.445293 S    
N2    N16   1.388750 A    
N8    Ni3   1.882187 S    
N10   Ni1   1.833409 S    
C34   C76   1.418919 A    
C91   H57   1.102714 S    
C88   H46   1.110754 S    
C82   H31   1.110413 S    
C2    F2    1.353533 S    
C72   C74   1.391543 A    
N13   Ni4   1.893735 S    
C35   C37   1.404492 A    
C7    C23   1.407546 A    
C15   N15   1.328487 A    
C96   H64   1.110230 S    
C8    C24   1.399374 A    
C11   C23   1.379845 A    
C34   C95   1.503889 S    
C75   C77   1.406995 A    
C103  H88   1.097095 S    
C44   F4    1.355025 S    
C83   C84   1.524990 S    
C97   C98   1.523382 S    
C67   C89   1.519295 S    
C87   C88   1.526950 S    
C8    N8    1.327875 A    
C102  H79   1.108582 S    
C13   C19   1.371035 A    
C33   C53   1.402595 A    
C36   H14   1.083468 S    
N11   Ni1   1.880086 S    
C32   C54   1.395805 A    
C69   H26   1.074429 S    
C35   H13   1.070954 S    
C22   C66   1.481258 S    
C41   C43   1.389155 A    
C66   C71   1.406978 A    
C75   C97   1.507322 S    
C81   C82   1.524899 S    
C57   C59   1.383878 A    
C14   H8    1.082067 S    
C12   N12   1.334781 A    
N1    Ni1   1.833584 S    
