data_mof_unit_53912.cif
_audit_creation_date              2012-12-11T14:01:10-0500
_audit_creation_method            fapswitch 2.2
_symmetry_space_group_name_H-M    P1
_symmetry_Int_Tables_number       1
_space_group_crystal_system       triclinic
_cell_length_a                    19.041091
_cell_length_b                    10.931393
_cell_length_c                    18.710259
_cell_angle_alpha                 89.864965
_cell_angle_beta                  90.343827
_cell_angle_gamma                 90.315545
_cell_volume                      3894.31930467

loop_
_atom_site_label
_atom_site_type_symbol
_atom_type_description
_atom_site_fract_x
_atom_site_fract_y
_atom_site_fract_z
_atom_type_partial_charge
C1    C     C_R   0.272571 0.042597 0.853488 0.559553
C2    C     C_R   0.941069 0.668097 0.989379 -0.148647
C3    C     C_R   0.443952 0.159404 0.063160 -0.126722
C4    C     C_R   0.441065 0.168093 0.989379 -0.148650
C5    C     C_2   0.247083 0.576308 0.919266 -0.105491
C6    C     C_2   0.750180 0.578590 0.079616 -0.117687
C7    C     C_2   0.747083 0.076309 0.919266 -0.105489
C8    C     C_2   0.250179 0.078591 0.079616 -0.117687
C9    C     C_2   0.249373 0.583364 0.075830 -0.105175
C10   C     C_2   0.750208 0.587412 0.922793 -0.103836
C11   C     C_2   0.749373 0.083363 0.075830 -0.105174
C12   C     C_R   0.727321 0.041918 0.146208 0.554588
C13   C     C_2   0.250207 0.087414 0.922792 -0.103838
C14   C     C_2   0.291324 0.512308 0.035999 -0.162076
C15   C     C_2   0.704301 0.522567 0.962023 -0.161428
C16   C     C_2   0.791323 0.012305 0.035998 -0.162075
C17   C     C_2   0.204299 0.022570 0.962022 -0.161428
C18   C     C_2   0.300000 0.533359 0.959313 -0.170213
C19   C     C_2   0.695240 0.547160 0.038166 -0.162079
C20   C     C_2   0.799998 0.033355 0.959313 -0.170214
C21   C     C_2   0.195239 0.047165 0.038165 -0.162079
C22   C     C_2   0.512500 0.840283 0.584804 -0.107971
C23   C     C_R   0.772572 0.542597 0.853489 0.559561
C24   C     C_2   0.513717 0.828745 0.428477 -0.089990
C25   C     C_2   0.012503 0.340274 0.584804 -0.107967
C26   C     C_2   0.013711 0.328746 0.428474 -0.089985
C27   C     C_2   0.546413 0.749318 0.472515 -0.146152
C28   C     C_2   0.532050 0.742160 0.548261 -0.160426
C29   C     C_2   0.046416 0.249330 0.472513 -0.146178
C30   C     C_2   0.032028 0.242152 0.548251 -0.160484
C31   C     C_2   0.254453 0.612459 0.569158 -0.091129
C32   C     C_2   0.757489 0.555845 0.413185 -0.111415
C33   C     C_2   0.754451 0.112451 0.569160 -0.091106
C34   C     C_R   0.227321 0.541919 0.146208 0.554589
C35   C     C_2   0.257462 0.055838 0.413193 -0.111461
C36   C     C_2   0.257076 0.605637 0.413641 -0.105486
C37   C     C_2   0.778086 0.520271 0.565545 -0.104047
C38   C     C_2   0.757073 0.105636 0.413642 -0.105484
C39   C     C_2   0.278076 0.020388 0.565552 -0.104117
C40   C     C_R   0.437933 0.818756 0.861328 0.563744
C41   C     C_R   0.525008 0.821494 0.149781 0.541579
C42   C     C_R   0.937933 0.318757 0.861328 0.563751
C43   C     C_R   0.025008 0.321494 0.149781 0.541577
C44   C     C_2   0.217253 0.682435 0.450246 -0.163097
C45   C     C_R   0.454636 0.046332 0.095198 -0.090054
C46   C     C_2   0.831366 0.524636 0.519340 -0.164346
C47   C     C_2   0.717244 0.182423 0.450248 -0.163113
C48   C     C_2   0.331323 0.024386 0.519309 -0.164419
C49   C     C_2   0.228155 0.700144 0.526006 -0.153121
C50   C     C_2   0.820428 0.564215 0.445396 -0.151809
C51   C     C_2   0.728140 0.200127 0.526009 -0.153122
C52   C     C_2   0.320412 0.064064 0.445380 -0.151823
C53   C     C_R   0.260566 0.634907 0.850880 0.550296
C54   C     C_R   0.738887 0.635633 0.148670 0.552460
C55   C     C_R   0.760566 0.134907 0.850879 0.550300
C56   C     C_R   0.445519 0.063193 0.947364 -0.098614
C57   C     C_R   0.238887 0.135634 0.148670 0.552464
C58   C     C_R   0.291445 0.996842 0.640160 0.568780
C59   C     C_R   0.729174 0.048789 0.350076 0.556790
C60   C     C_R   0.791450 0.496822 0.640165 0.568841
C61   C     C_R   0.229174 0.548789 0.350076 0.556786
C62   C     C_R   0.472452 0.824928 0.649503 0.559997
C63   C     C_R   0.531744 0.823154 0.353730 0.547999
C64   C     C_R   0.972450 0.324927 0.649501 0.560018
C65   C     C_R   0.031738 0.323156 0.353727 0.547981
C66   C     C_R   0.261536 0.641967 0.643902 0.549650
C67   C     C_R   0.954634 0.546332 0.095198 -0.090055
C68   C     C_R   0.740564 0.632804 0.352223 0.552187
C69   C     C_R   0.761536 0.141964 0.643903 0.549651
C70   C     C_R   0.240559 0.132808 0.352228 0.552183
C71   C     C_R   0.481216 0.827565 0.085277 0.000180
C72   C     C_R   0.450785 0.830843 0.938889 0.001303
C73   C     C_R   0.981215 0.327565 0.085278 0.000178
C74   C     C_R   0.950786 0.330845 0.938888 0.001304
C75   C     C_R   0.462421 0.939577 0.053526 0.022913
C76   C     C_R   0.452218 0.944598 0.978277 0.019427
C77   C     C_R   0.962420 0.439578 0.053526 0.022910
C78   C     C_R   0.945525 0.563198 0.947363 -0.098601
C79   C     C_R   0.952220 0.444601 0.978277 0.019429
C80   C     C_R   0.455816 0.720297 0.976139 -0.154265
C81   C     C_R   0.470827 0.718398 0.047823 -0.149384
C82   C     C_R   0.955814 0.220297 0.976139 -0.154265
C83   C     C_R   0.970825 0.218398 0.047824 -0.149384
C84   C     C_R   0.943951 0.659406 0.063161 -0.126723
Cr1   Cr    Cr6+3 0.230530 0.836340 0.748870 1.017938
Cr2   Cr    Cr6+3 0.614360 0.677860 0.250770 1.015348
Cr3   Cr    Cr6+3 0.885640 0.177860 0.749230 1.016822
Cr4   Cr    Cr6+3 0.114360 0.177860 0.250770 1.015345
Cr5   Cr    Cr6+3 0.769470 0.836340 0.251130 1.014829
Cr6   Cr    Cr6+3 0.730530 0.336340 0.748870 1.017938
Cr7   Cr    Cr6+3 0.269470 0.336340 0.251130 1.014841
Cr8   Cr    Cr6+3 0.387420 0.989430 0.750820 1.004961
Cr9   Cr    Cr6+3 0.612580 0.989430 0.249180 1.018664
Cr10  Cr    Cr6+3 0.887420 0.489430 0.750820 1.004931
Cr11  Cr    Cr6+3 0.112580 0.489430 0.249180 1.018662
Cr12  Cr    Cr6+3 0.385640 0.677860 0.749230 1.016831
H1    H     H_    0.452139 0.633128 0.949076 0.133001
H2    H     H_    0.724063 0.535904 0.549290 0.101290
H3    H     H_    0.805672 0.070054 0.436019 0.110417
H4    H     H_    0.224099 0.036496 0.549342 0.101447
H5    H     H_    0.274365 0.526156 0.549404 0.100240
H6    H     H_    0.715555 0.500006 0.435282 0.091517
H7    H     H_    0.774377 0.026156 0.549403 0.100241
H8    H     H_    0.215505 0.000078 0.435317 0.091566
H9    H     H_    0.454890 0.042814 0.152967 0.127663
H10   H     H_    0.445160 0.081808 0.891383 0.181210
H11   H     H_    0.954885 0.542812 0.152968 0.127660
H12   H     H_    0.480148 0.629997 0.072321 0.139484
H13   H     H_    0.945176 0.581817 0.891380 0.181193
H14   H     H_    0.351078 0.516040 0.936241 0.138192
H15   H     H_    0.642291 0.542943 0.059379 0.157884
H16   H     H_    0.851075 0.016029 0.936239 0.138191
H17   H     H_    0.142290 0.042951 0.059378 0.157885
H18   H     H_    0.194924 0.586248 0.941759 0.117951
H19   H     H_    0.802976 0.579170 0.058160 0.123503
H20   H     H_    0.694925 0.086255 0.941760 0.117953
H21   H     H_    0.302974 0.079167 0.058160 0.123503
H22   H     H_    0.581319 0.679710 0.451685 0.154880
H23   H     H_    0.952134 0.133128 0.949077 0.133001
H24   H     H_    0.531705 0.651593 0.572337 0.157157
H25   H     H_    0.081333 0.179736 0.451686 0.154865
H26   H     H_    0.031635 0.151580 0.572306 0.157179
H27   H     H_    0.478834 0.899611 0.447497 0.083317
H28   H     H_    0.516901 0.931522 0.561995 0.103159
H29   H     H_    0.978813 0.399592 0.447494 0.083366
H30   H     H_    0.016937 0.431513 0.562007 0.103160
H31   H     H_    0.208517 0.785526 0.547525 0.149413
H32   H     H_    0.863617 0.612799 0.420136 0.152529
H33   H     H_    0.708486 0.285498 0.547531 0.149358
H34   H     H_    0.980145 0.129996 0.072322 0.139483
H35   H     H_    0.363627 0.112553 0.420111 0.152523
H36   H     H_    0.938437 0.740583 0.095639 0.118382
H37   H     H_    0.934738 0.756825 0.964346 0.108662
H38   H     H_    0.438439 0.240582 0.095638 0.118382
H39   H     H_    0.434729 0.256819 0.964346 0.108665
H40   H     H_    0.318876 0.434918 0.059248 0.152585
H41   H     H_    0.673909 0.448063 0.938826 0.156481
H42   H     H_    0.818874 0.934914 0.059247 0.152586
H43   H     H_    0.173907 0.948067 0.938825 0.156481
H44   H     H_    0.223393 0.662588 0.052811 0.109119
H45   H     H_    0.170911 0.724128 0.426578 0.152635
H46   H     H_    0.778788 0.664163 0.945965 0.113780
H47   H     H_    0.723395 0.162589 0.052811 0.109117
H48   H     H_    0.278787 0.164165 0.945964 0.113780
H49   H     H_    0.885022 0.512526 0.538110 0.131128
H50   H     H_    0.670901 0.224112 0.426579 0.152636
H51   H     H_    0.384946 0.011861 0.538032 0.131044
H52   H     H_    0.305674 0.570051 0.436018 0.110427
O1    O     O_R   0.215090 0.709860 0.828130 -0.513765
O2    O     O_R   0.543740 0.718170 0.330000 -0.517390
O3    O     O_R   0.956260 0.218170 0.670000 -0.503964
O4    O     O_R   0.043740 0.218170 0.330000 -0.517386
O5    O     O_R   0.320940 0.626760 0.674370 -0.493409
O6    O     O_R   0.679060 0.626760 0.325630 -0.506874
O7    O     O_R   0.820940 0.126760 0.674370 -0.493416
O8    O     O_R   0.179060 0.126760 0.325630 -0.506881
O9    O     O_3   0.334530 0.834540 0.749640 -0.289902
O10   O     O_3   0.665470 0.834540 0.250360 -0.241551
O11   O     O_3   0.834530 0.334540 0.749640 -0.289913
O12   O     O_R   0.784910 0.709860 0.171870 -0.525733
O13   O     O_3   0.165470 0.334540 0.250360 -0.241554
O14   O     O_R   0.236990 0.958390 0.823710 -0.489761
O15   O     O_R   0.763010 0.958390 0.176290 -0.501425
O16   O     O_R   0.736990 0.458390 0.823710 -0.489761
O17   O     O_R   0.263010 0.458390 0.176290 -0.501424
O18   O     O_R   0.332380 0.074750 0.830850 -0.538980
O19   O     O_R   0.667620 0.074750 0.169150 -0.509822
O20   O     O_R   0.832380 0.574750 0.830850 -0.538968
O21   O     O_R   0.167620 0.574750 0.169150 -0.509821
O22   O     O_R   0.445800 0.917770 0.825070 -0.520282
O23   O     O_R   0.715090 0.209860 0.828130 -0.513763
O24   O     O_R   0.554200 0.917770 0.174930 -0.502498
O25   O     O_R   0.945800 0.417770 0.825070 -0.520282
O26   O     O_R   0.054200 0.417770 0.174930 -0.502496
O27   O     O_R   0.456410 0.716580 0.829970 -0.510633
O28   O     O_R   0.543590 0.716580 0.170030 -0.525698
O29   O     O_R   0.956410 0.216580 0.829970 -0.510634
O30   O     O_R   0.043590 0.216580 0.170030 -0.525699
O31   O     O_R   0.321080 0.625290 0.822650 -0.511647
O32   O     O_R   0.678920 0.625290 0.177350 -0.494901
O33   O     O_R   0.821080 0.125290 0.822650 -0.511645
O34   O     O_R   0.284910 0.209860 0.171870 -0.525731
O35   O     O_R   0.178920 0.125290 0.177350 -0.494899
O36   O     O_R   0.214930 0.711450 0.668160 -0.518800
O37   O     O_R   0.785070 0.711450 0.331840 -0.512204
O38   O     O_R   0.714930 0.211450 0.668160 -0.518808
O39   O     O_R   0.285070 0.211450 0.331840 -0.512170
O40   O     O_R   0.236850 0.959870 0.675420 -0.500330
O41   O     O_R   0.763150 0.959870 0.324580 -0.497555
O42   O     O_R   0.736850 0.459870 0.675420 -0.500341
O43   O     O_R   0.263150 0.459870 0.324580 -0.497554
O44   O     O_R   0.332230 0.076350 0.670880 -0.495482
O45   O     O_R   0.445660 0.919250 0.676780 -0.514748
O46   O     O_R   0.667770 0.076350 0.329120 -0.514233
O47   O     O_R   0.832230 0.576350 0.670880 -0.495526
O48   O     O_R   0.167770 0.576350 0.329120 -0.514232
O49   O     O_R   0.554340 0.919250 0.323220 -0.499278
O50   O     O_R   0.945660 0.419250 0.676780 -0.514772
O51   O     O_R   0.054340 0.419250 0.323220 -0.499277
O52   O     O_R   0.456260 0.718170 0.670000 -0.503954

loop_
_geom_bond_atom_site_label_1
_geom_bond_atom_site_label_2
_ccdc_geom_bond_type
C44   C49   S    
C43   C73   S    
C31   C66   S    
Cr9   O24   S    
Cr10  O11   S    
C56   C76   A    
Cr12  O27   S    
C64   O50   A    
C5    H18   S    
C7    C20   D    
C14   C18   S    
C2    C84   A    
Cr9   O46   S    
C67   C77   A    
C24   C27   D    
C7    C55   S    
C9    C14   D    
C12   O19   A    
C40   O22   A    
C51   H33   S    
Cr8   O44   S    
Cr5   O10   S    
C43   O30   A    
C20   H16   S    
C32   C68   S    
C15   C19   S    
C6    C19   D    
C69   O7    A    
C70   O8    A    
Cr4   O8    S    
C5    C53   S    
Cr11  O26   S    
C31   C49   D    
C68   O6    A    
C10   C15   D    
Cr2   O2    S    
C80   H1    S    
C9    H44   S    
C73   C83   A    
C46   H49   S    
C22   C62   S    
C42   O29   A    
Cr4   O13   S    
C48   H51   S    
C10   H46   S    
C13   H48   S    
Cr6   O11   S    
C57   O34   A    
C75   C76   A    
C65   O51   A    
C36   H52   S    
C30   H26   S    
C35   C70   S    
Cr8   O22   S    
C44   H45   S    
C29   H25   S    
Cr6   O23   S    
C34   O17   A    
C33   C69   S    
C41   C71   S    
Cr1   O40   S    
Cr12  O9    S    
C47   H50   S    
C67   C84   A    
Cr3   O3    S    
C4    C56   A    
C53   O1    A    
Cr1   O14   S    
Cr4   O4    S    
C54   O12   A    
Cr1   O9    S    
C82   H23   S    
C6    C54   S    
C53   O31   A    
C55   O23   A    
C37   H2    S    
C45   H9    S    
C8    H21   S    
C77   C79   A    
C59   O46   A    
C49   H31   S    
C41   O24   A    
C42   C74   S    
C2    H37   S    
C64   O3    A    
C58   O40   A    
Cr10  O47   S    
C83   H34   S    
C21   H17   S    
C35   H8    S    
C28   H24   S    
Cr10  O20   S    
C78   C79   A    
C38   H3    S    
Cr4   O35   S    
C47   C51   S    
C5    C18   D    
Cr6   O38   S    
C39   C58   S    
Cr7   O43   S    
C84   H36   S    
C24   H27   S    
C17   C21   S    
C33   C51   D    
C63   O49   A    
Cr6   O16   S    
Cr8   O9    S    
Cr10  O50   S    
C25   C64   S    
C7    H20   S    
Cr9   O49   S    
C25   H30   S    
C63   O2    A    
C29   C30   S    
C2    C78   A    
C8    C57   S    
Cr3   O29   S    
C23   O20   A    
Cr11  O21   S    
C11   C16   D    
C66   O36   A    
Cr12  O5    S    
C16   C20   S    
C56   H10   S    
Cr2   O32   S    
C8    C21   D    
C55   O33   A    
C72   C76   A    
C17   H43   S    
Cr4   O30   S    
Cr2   O10   S    
C61   O48   A    
C32   C50   D    
C38   C47   D    
C34   O21   A    
C70   O39   A    
C4    H39   S    
Cr11  O51   S    
C41   O28   A    
C68   O37   A    
Cr8   O45   S    
C24   C63   S    
C74   C79   A    
C58   O44   A    
C9    C34   S    
C32   H6    S    
C36   C44   D    
Cr11  O48   S    
C50   H32   S    
C3    C4    A    
C31   H5    S    
C57   O35   A    
Cr5   O12   S    
C23   O16   A    
Cr6   O42   S    
C27   H22   S    
C25   C30   D    
Cr12  O52   S    
Cr7   O39   S    
Cr5   O41   S    
C40   C72   S    
C33   H7    S    
C26   C65   S    
Cr5   O37   S    
Cr7   O17   S    
C16   H42   S    
C18   H14   S    
C80   C81   A    
C42   O25   A    
Cr3   O33   S    
C40   O27   A    
C11   C12   S    
C22   H28   S    
Cr3   O7    S    
C19   H15   S    
C10   C23   S    
Cr1   O36   S    
C66   O5    A    
C46   C50   S    
C13   C17   D    
C45   C75   A    
C3    H38   S    
C65   O4    A    
Cr11  O13   S    
Cr2   O6    S    
C3    C45   A    
C72   C80   A    
C12   O15   A    
C71   C75   A    
C35   C52   D    
C67   H11   S    
C39   H4    S    
C14   H40   S    
C1    O18   A    
Cr3   O11   S    
C43   O26   A    
C54   O32   A    
Cr5   O15   S    
C78   H13   S    
Cr2   O28   S    
Cr12  O31   S    
Cr9   O10   S    
Cr1   O1    S    
C6    H19   S    
C81   H12   S    
C37   C60   S    
C59   O41   A    
C1    O14   A    
Cr10  O25   S    
C62   O52   A    
C38   C59   S    
Cr8   O18   S    
C48   C52   S    
C1    C13   S    
Cr9   O19   S    
C26   C29   D    
C60   O42   A    
C82   C83   A    
Cr7   O34   S    
C27   C28   S    
C61   O43   A    
C73   C77   A    
Cr7   O13   S    
C22   C28   D    
C62   O45   A    
C71   C81   A    
C37   C46   D    
C52   H35   S    
C11   H47   S    
C69   O38   A    
C26   H29   S    
C74   C82   A    
C36   C61   S    
C60   O47   A    
C39   C48   D    
C15   H41   S    
