data_mof_unit_42810.cif
_audit_creation_date              2012-12-10T17:32:17-0500
_audit_creation_method            fapswitch 2.2
_symmetry_space_group_name_H-M    P1
_symmetry_Int_Tables_number       1
_space_group_crystal_system       triclinic
_cell_length_a                    12.316638
_cell_length_b                    13.158742
_cell_length_c                    15.060113
_cell_angle_alpha                 77.463258
_cell_angle_beta                  101.39056
_cell_angle_gamma                 116.675169
_cell_volume                      2114.97553985

loop_
_atom_site_label
_atom_site_type_symbol
_atom_type_description
_atom_site_fract_x
_atom_site_fract_y
_atom_site_fract_z
_atom_type_partial_charge
C1    C     C_R   0.854830 0.286533 0.506459 0.791365
C2    C     C_R   0.094045 0.485704 0.110783 0.108014
C3    C     C_R   0.805358 0.515433 0.012086 -0.215535
C4    C     C_R   0.804948 0.515107 0.919502 -0.212630
C5    C     C_R   0.900519 0.505587 0.889898 0.109972
C6    C     C_R   0.997020 0.495400 0.953841 0.062716
C7    C     C_R   0.093462 0.485478 0.924772 0.107100
C8    C     C_R   0.188861 0.475223 0.988708 -0.214206
C9    C     C_R   0.189135 0.475303 0.081279 -0.212668
C10   C     C_R   0.901566 0.506513 0.797377 -0.249282
C11   C     C_R   0.997863 0.497483 0.768259 -0.074895
C12   C     C_R   0.999196 0.499177 0.671248 0.813117
C13   C     C_R   0.093128 0.486462 0.832125 -0.246485
C14   C     C_R   0.269374 0.026858 0.383954 0.185302
C15   C     C_R   0.227799 0.835588 0.467240 -0.099420
C16   C     C_R   0.816761 0.081959 0.551612 -0.190061
C17   C     C_R   0.738882 0.964962 0.561770 0.227344
C18   C     C_R   0.614384 0.929462 0.531866 -0.197649
C19   C     C_R   0.566394 0.009832 0.487773 0.050383
C20   C     C_R   0.649295 0.125880 0.465677 0.084122
C21   C     C_R   0.438868 0.978187 0.463415 0.048498
C22   C     C_R   0.396737 0.058547 0.407538 0.151220
C23   C     C_R   0.145187 0.713718 0.486473 0.817110
C24   C     C_R   0.482949 0.167716 0.375284 -0.238716
C25   C     C_R   0.606645 0.200100 0.402775 -0.189363
C26   C     C_R   0.352073 0.869248 0.495249 -0.263333
C27   C     C_R   0.186241 0.914734 0.413423 -0.191573
C28   C     C_R   0.772900 0.163475 0.505732 -0.151340
C29   C     C_R   0.345224 0.327555 0.646957 -0.297427
C30   C     C_R   0.759216 0.645972 0.376236 0.074106
C31   C     C_R   0.662766 0.678029 0.350295 -0.262175
C32   C     C_R   0.559674 0.622825 0.397270 -0.186265
C33   C     C_R   0.551632 0.534218 0.471479 -0.011864
C34   C     C_R   0.000012 0.499653 0.328829 0.807050
C35   C     C_R   0.653165 0.504991 0.495794 0.241499
C36   C     C_R   0.447467 0.474196 0.522405 -0.080141
C37   C     C_R   0.447115 0.386459 0.596972 0.156359
C38   C     C_R   0.548342 0.359262 0.620450 0.105421
C39   C     C_R   0.648096 0.418289 0.570206 -0.198448
C40   C     C_R   0.342529 0.497418 0.502538 0.029258
C41   C     C_R   0.245942 0.354915 0.623834 0.059681
C42   C     C_R   0.094186 0.486816 0.203077 -0.244962
C43   C     C_R   0.999149 0.497981 0.232081 -0.071516
C44   C     C_R   0.902867 0.507296 0.168442 -0.251656
C45   C     C_R   0.901245 0.506071 0.075960 0.108942
C46   C     C_R   0.997352 0.495577 0.046908 0.062819
Cu1   Cu    Cu3+1 0.098270 0.475420 0.521130 0.932125
Cu2   Cu    Cu3+1 0.901730 0.524580 0.478870 0.919216
H1    H     H_    0.168712 0.479670 0.252104 0.154224
H2    H     H_    0.456063 0.229766 0.328739 0.157776
H3    H     H_    0.378831 0.808115 0.542562 0.158483
H4    H     H_    0.911734 0.109407 0.580316 0.156049
H5    H     H_    0.558242 0.838032 0.541205 0.138714
H6    H     H_    0.668072 0.283130 0.371299 0.176043
H7    H     H_    0.167890 0.309510 0.662294 0.123510
H8    H     H_    0.340869 0.260321 0.703994 0.150778
H9    H     H_    0.828906 0.515317 0.190721 0.154196
H10   H     H_    0.334902 0.561992 0.447216 0.121309
H11   H     H_    0.838935 0.689392 0.339518 0.123592
H12   H     H_    0.488157 0.651559 0.374085 0.133866
H13   H     H_    0.667933 0.745987 0.293586 0.145434
H14   H     H_    0.721108 0.393603 0.592229 0.215125
H15   H     H_    0.730943 0.523285 0.033717 0.141212
H16   H     H_    0.730232 0.522673 0.871049 0.145125
H17   H     H_    0.827398 0.514223 0.748232 0.163520
H18   H     H_    0.167638 0.479339 0.809854 0.156311
H19   H     H_    0.263318 0.467440 0.967074 0.141217
H20   H     H_    0.263766 0.467555 0.129730 0.142717
H21   H     H_    0.089222 0.888134 0.392228 0.152554
N1    N     N_R   0.246280 0.438190 0.553160 -0.179082
N2    N     N_R   0.754320 0.561190 0.447410 -0.200910
O1    O     O_R   0.972510 0.318130 0.526570 -0.580386
O2    O     O_R   0.806530 0.359650 0.490890 -0.605789
O3    O     O_R   0.082980 0.479210 0.647590 -0.586722
O4    O     O_R   0.917000 0.520730 0.611900 -0.602775
O5    O     O_R   0.193470 0.640350 0.509110 -0.586711
O6    O     O_R   0.027490 0.681870 0.473430 -0.586154
O7    O     O_R   0.083000 0.479270 0.388100 -0.587213
O8    O     O_R   0.917020 0.520790 0.352410 -0.599676
C47   C     C_3   0.220235 0.109800 0.326714 -0.898165
H22   H     H_    0.251818 0.186606 0.360997 0.239184
H23   H     H_    0.252476 0.136561 0.257953 0.230082
H24   H     H_    0.118641 0.070673 0.317010 0.235260
C48   C     C_3   0.786736 0.877057 0.606673 -0.871943
H25   H     H_    0.887015 0.917735 0.627012 0.229703
H26   H     H_    0.740878 0.827964 0.668893 0.231208
H27   H     H_    0.767535 0.816509 0.558374 0.243002
C49   C     C_3   0.552903 0.267312 0.699414 -0.879166
H28   H     H_    0.639492 0.257308 0.708388 0.229639
H29   H     H_    0.545951 0.290073 0.764239 0.231533
H30   H     H_    0.476503 0.183052 0.687062 0.242195

loop_
_geom_bond_atom_site_label_1
_geom_bond_atom_site_label_2
_ccdc_geom_bond_type
C16   C28   A    
C21   C26   A    
C12   O3    A    
C31   H13   S    
C19   C20   A    
C48   H27   S    
C23   O5    A    
C30   N2    A    
C7    C8    A    
C45   C46   A    
C2    C46   A    
C40   N1    A    
C5    C6    A    
Cu2   O8    S    
C36   C37   A    
C19   C21   A    
C48   H26   S    
Cu1   O5    S    
C38   C39   A    
C20   C25   A    
C33   C36   A    
C18   C19   A    
C41   H7    S    
C18   H5    S    
C48   H25   S    
Cu1   Cu2   S    
C16   C17   A    
C1    C28   S    
C14   C47   S    
C14   C27   A    
C27   H21   S    
C15   C23   S    
C35   N2    A    
C21   C22   A    
Cu2   O4    S    
C47   H24   S    
C13   H18   S    
C24   H2    S    
C1    O1    A    
C40   H10   S    
C36   C40   A    
C25   H6    S    
C47   H23   S    
C8    C9    A    
C15   C26   A    
C20   C28   A    
C3    C45   A    
C23   O6    A    
C38   C49   S    
Cu2   O6    S    
C35   C39   A    
C43   C44   A    
Cu1   N1    S    
C37   C38   A    
C34   O8    A    
C15   C27   A    
C31   C32   A    
C49   H30   S    
C7    C13   A    
C44   H9    S    
C30   H11   S    
C17   C18   A    
C24   C25   A    
C49   H29   S    
C22   C24   A    
C42   C43   A    
C32   H12   S    
Cu2   N2    S    
C3    C4    A    
C44   C45   A    
C10   H17   S    
C39   H14   S    
C6    C46   A    
C29   C41   A    
Cu2   O2    S    
C34   C43   S    
C16   H4    S    
Cu1   O3    S    
C47   H22   S    
C11   C12   S    
C6    C7    A    
C29   H8    S    
C3    H15   S    
C4    H16   S    
C17   C48   S    
C1    O2    A    
C32   C33   A    
C14   C22   A    
C9    H20   S    
C5    C10   A    
C26   H3    S    
C34   O7    A    
C11   C13   A    
C30   C31   A    
C2    C42   A    
C33   C35   A    
Cu1   O1    S    
C10   C11   A    
C42   H1    S    
C4    C5    A    
C49   H28   S    
C8    H19   S    
C12   O4    A    
C29   C37   A    
Cu1   O7    S    
C2    C9    A    
C41   N1    A    
