data_mof_unit_8607.cif
_audit_creation_date              2012-12-10T18:44:23-0500
_audit_creation_method            fapswitch 2.2
_symmetry_space_group_name_H-M    P1
_symmetry_Int_Tables_number       1
_space_group_crystal_system       triclinic
_cell_length_a                    12.893651
_cell_length_b                    10.647245
_cell_length_c                    9.841488
_cell_angle_alpha                 90.289879
_cell_angle_beta                  96.948141
_cell_angle_gamma                 90.244316
_cell_volume                      1341.10234311

loop_
_atom_site_label
_atom_site_type_symbol
_atom_type_description
_atom_site_fract_x
_atom_site_fract_y
_atom_site_fract_z
_atom_type_partial_charge
C1    C     C_R   0.502180 0.260261 0.499842 0.894001
C2    C     C_R   0.701869 0.499543 0.526533 0.877562
C3    C     C_R   0.813910 0.499872 0.542185 -0.053601
C4    C     C_R   0.186089 0.500129 0.457815 -0.053603
C5    C     C_R   0.020942 0.476605 0.317675 -0.224463
C6    C     C_R   0.979058 0.523397 0.682325 -0.224464
C7    C     C_R   0.128853 0.481650 0.328954 -0.202247
C8    C     C_R   0.871147 0.518351 0.671046 -0.202246
C9    C     C_R   0.136141 0.515504 0.574915 -0.287996
C10   C     C_R   0.863858 0.484497 0.425085 -0.287999
C11   C     C_R   0.028986 0.509924 0.564779 0.189176
C12   C     C_R   0.497823 0.739739 0.500158 0.894001
C13   C     C_R   0.971014 0.490077 0.435220 0.189176
C14   C     C_R   0.576330 0.061857 0.432077 0.190329
C15   C     C_R   0.423669 0.938142 0.567913 0.190331
C16   C     C_R   0.572094 0.932522 0.433573 -0.233409
C17   C     C_R   0.427909 0.067477 0.566425 -0.233406
C18   C     C_3   0.660535 0.126723 0.363780 -0.879332
C19   C     C_3   0.339450 0.873276 0.636181 -0.879340
C20   C     C_R   0.497089 0.872143 0.501032 -0.072595
C21   C     C_R   0.502915 0.127856 0.498966 -0.072599
C22   C     C_R   0.566395 0.576643 0.082832 -0.068109
C23   C     C_R   0.433605 0.423357 0.917168 -0.068109
C24   C     C_R   0.566364 0.576606 0.938929 -0.079576
C25   C     C_R   0.433636 0.423393 0.061071 -0.079579
C26   C     C_R   0.298131 0.500457 0.473467 0.877567
H1    H     H_    0.819586 0.469001 0.325404 0.162487
H2    H     H_    0.380585 0.362173 0.106926 0.126856
H3    H     H_    0.832707 0.530361 0.762192 0.159501
H4    H     H_    0.167293 0.469640 0.237808 0.159501
H5    H     H_    0.705065 0.192792 0.436902 0.230817
H6    H     H_    0.716792 0.058523 0.328824 0.229119
H7    H     H_    0.625105 0.179079 0.272684 0.258730
H8    H     H_    0.294932 0.807209 0.563046 0.230813
H9    H     H_    0.374864 0.820917 0.727284 0.258729
H10   H     H_    0.283185 0.941475 0.671118 0.229122
H11   H     H_    0.180414 0.531000 0.674596 0.162487
H12   H     H_    0.976788 0.461645 0.217945 0.137534
H13   H     H_    0.023212 0.538357 0.782055 0.137534
H14   H     H_    0.628001 0.878210 0.383968 0.149172
H15   H     H_    0.372002 0.121789 0.616030 0.149173
H16   H     H_    0.619466 0.637934 0.146064 0.126571
H17   H     H_    0.380534 0.362066 0.853936 0.126571
H18   H     H_    0.619415 0.637827 0.893074 0.126855
N1    N     N_R   0.499970 0.499970 0.857200 -0.080538
N2    N     N_R   0.500030 0.500030 0.142800 -0.080538
O1    O     O_R   0.499990 0.316750 0.614620 -0.621371
O2    O     O_R   0.500010 0.683250 0.385380 -0.621371
O3    O     O_R   0.499990 0.316780 0.385290 -0.617089
O4    O     O_R   0.500010 0.683220 0.614710 -0.617087
O5    O     O_R   0.346360 0.499970 0.595710 -0.629010
O6    O     O_R   0.653640 0.500030 0.404290 -0.629012
O7    O     O_R   0.346360 0.499990 0.366380 -0.624948
O8    O     O_R   0.653640 0.500010 0.633620 -0.624950
Zn1   Zn    Zn3+2 0.500000 0.499980 0.653120 0.942435
Zn2   Zn    Zn3+2 0.500000 0.500020 0.346880 0.942434

loop_
_geom_bond_atom_site_label_1
_geom_bond_atom_site_label_2
_ccdc_geom_bond_type
C10   H1    S    
C4    C26   S    
C5    C7    A    
C1    C21   S    
C23   N1    A    
O3    Zn2   S    
C11   C13   A    
C14   C18   S    
C5    C13   A    
O4    Zn1   S    
C16   C20   A    
C12   O2    A    
C12   C20   S    
C22   C24   A    
C9    H11   S    
C2    C3    S    
C7    H4    S    
C19   H9    S    
C26   O5    A    
C25   H2    S    
C15   C19   S    
C9    C11   A    
C22   H16   S    
C2    O6    A    
C16   H14   S    
C4    C7    A    
C3    C10   A    
C8    H3    S    
C14   C21   A    
O1    Zn1   S    
C22   N2    A    
C5    H12   S    
C17   H15   S    
C19   H10   S    
C23   C25   A    
C15   C20   A    
C24   H18   S    
C18   H7    S    
C14   C16   A    
C18   H6    S    
C24   N1    A    
C26   O7    A    
C23   H17   S    
N1    Zn1   S    
C15   C17   A    
C3    C8    A    
C2    O8    A    
O7    Zn2   S    
N2    Zn2   S    
C6    C11   A    
O2    Zn2   S    
O8    Zn1   S    
C1    O1    A    
C6    C8    A    
C18   H5    S    
O5    Zn1   S    
C4    C9    A    
C6    H13   S    
C1    O3    A    
C25   N2    A    
C10   C13   A    
C17   C21   A    
O6    Zn2   S    
C12   O4    A    
C19   H8    S    
