data_mof_unit_31183.cif
_audit_creation_date              2012-12-11T14:58:42-0500
_audit_creation_method            fapswitch 2.2
_symmetry_space_group_name_H-M    P1
_symmetry_Int_Tables_number       1
_space_group_crystal_system       triclinic
_cell_length_a                    10.960113
_cell_length_b                    10.993657
_cell_length_c                    18.813139
_cell_angle_alpha                 90.348008
_cell_angle_beta                  90.515135
_cell_angle_gamma                 59.610046
_cell_volume                      1955.28874066

loop_
_atom_site_label
_atom_site_type_symbol
_atom_type_description
_atom_site_fract_x
_atom_site_fract_y
_atom_site_fract_z
_atom_type_partial_charge
Br1   Br    Br    0.737318 0.733187 0.050361 -0.413288
C1    C     C_R   0.359193 0.772190 0.397701 0.545456
C2    C     C_R   0.242774 0.430420 0.202642 -0.153693
C3    C     C_R   0.239214 0.441388 0.276419 -0.035809
C4    C     C_R   0.382575 0.352180 0.389299 0.535389
C5    C     C_R   0.886124 0.807804 0.369457 -0.104543
C6    C     C_R   0.924179 0.673522 0.394027 -0.097036
C7    C     C_R   0.038861 0.554183 0.364005 -0.042271
C8    C     C_R   0.117161 0.568055 0.309032 0.062800
C9    C     C_R   0.351202 0.332065 0.316088 -0.006415
C10   C     C_R   0.954889 0.304013 0.308217 -0.155177
C11   C     C_R   0.984109 0.296952 0.236232 -0.131619
C12   C     C_R   0.604477 0.091267 0.178124 -0.001052
C13   C     C_R   0.875348 0.335670 0.185980 0.047736
C14   C     C_R   0.735428 0.394961 0.207101 -0.087488
C15   C     C_R   0.705924 0.402610 0.279120 -0.126387
C16   C     C_R   0.777402 0.378648 0.403112 0.534351
C17   C     C_R   0.815903 0.355743 0.329396 0.033815
C18   C     C_R   0.473587 0.760411 0.284502 -0.102882
C19   C     C_R   0.461747 0.782257 0.211572 0.324235
C20   C     C_R   0.330438 0.878003 0.182577 0.028134
C21   C     C_R   0.213378 0.953589 0.227312 -0.206524
C22   C     C_R   0.223110 0.926738 0.299171 -0.172594
C23   C     C_R   0.353821 0.314682 0.167724 0.006626
C24   C     C_R   0.352300 0.826868 0.327491 -0.022209
C25   C     C_R   0.464854 0.275619 0.716950 -0.122583
C26   C     C_R   0.447326 0.273098 0.788911 -0.132069
C27   C     C_R   0.311278 0.333653 0.816510 0.030150
C28   C     C_R   0.344615 0.768207 0.604895 0.547152
C29   C     C_R   0.192046 0.408490 0.772352 -0.132942
C30   C     C_R   0.209962 0.413957 0.699589 -0.140660
C31   C     C_R   0.346594 0.342376 0.671660 0.036973
C32   C     C_R   0.739395 0.475488 0.732044 -0.128993
C33   C     C_R   0.751586 0.461784 0.804901 -0.133722
C34   C     C_R   0.459437 0.213993 0.281123 -0.148837
C35   C     C_R   0.815429 0.327886 0.835563 0.025414
C36   C     C_R   0.851995 0.209015 0.792673 -0.141057
C37   C     C_R   0.835682 0.223580 0.719017 -0.152726
C38   C     C_R   0.784652 0.356561 0.688319 0.030926
C39   C     C_R   0.205924 0.821355 0.714366 -0.130525
C40   C     C_R   0.373065 0.352581 0.597615 0.543160
C41   C     C_R   0.198784 0.832643 0.787467 -0.138278
C42   C     C_R   0.303556 0.842846 0.825303 0.032078
C43   C     C_R   0.417870 0.837625 0.789146 -0.133540
C44   C     C_R   0.424814 0.826616 0.715847 -0.144033
C45   C     C_R   0.468297 0.207032 0.208080 -0.030076
C46   C     C_R   0.320112 0.816204 0.678114 0.033395
C47   C     C_R   0.912106 0.316227 0.112042 0.558113
C48   C     C_R   0.328310 0.290937 0.093950 0.537073
C49   C     C_R   0.305101 0.903799 0.106823 0.592433
C50   C     C_R   0.879412 0.310281 0.905703 0.552857
C51   C     C_R   0.296162 0.290956 0.886553 0.546248
C52   C     C_R   0.756870 0.380287 0.612315 0.544564
C53   C     C_R   0.276097 0.893647 0.897991 0.556787
C54   C     C_R   0.857328 0.886101 0.114056 -0.095287
C55   C     C_R   0.854102 0.994780 0.153803 -0.143659
C56   C     C_R   0.077326 0.703993 0.284485 -0.068617
C57   C     C_R   0.728910 0.095865 0.186093 -0.135182
C58   C     C_R   0.963047 0.822993 0.315024 -0.089620
C59   C     C_R   0.615102 0.970483 0.147135 0.006050
C60   C     C_R   0.737173 0.873634 0.110513 0.197217
Cr1   Cr    Cr6+3 0.601770 0.606860 0.505860 0.998074
Cr2   Cr    Cr6+3 0.291380 0.601660 0.495070 1.021986
Cr3   Cr    Cr6+3 0.606880 0.291510 0.499120 1.005683
Cr4   Cr    Cr6+3 0.062440 0.063090 0.008210 1.009646
Cr5   Cr    Cr6+3 0.062880 0.375170 0.998920 1.067629
Cr6   Cr    Cr6+3 0.374700 0.061720 0.992470 1.060452
F1    F     F_    0.575031 0.704801 0.169681 -0.629689
H1    H     H_    0.546212 0.129763 0.310721 0.147266
H2    H     H_    0.112303 0.030423 0.205938 0.134372
H3    H     H_    0.129534 0.979617 0.331952 0.133393
H4    H     H_    0.571822 0.225693 0.696877 0.143614
H5    H     H_    0.540214 0.216728 0.822542 0.133604
H6    H     H_    0.085896 0.455118 0.793293 0.137969
H7    H     H_    0.118363 0.470219 0.665217 0.120024
H8    H     H_    0.694744 0.580122 0.709956 0.135211
H9    H     H_    0.721352 0.555052 0.836866 0.140553
H10   H     H_    0.902076 0.104247 0.815363 0.133261
H11   H     H_    0.866399 0.131384 0.686175 0.117457
H12   H     H_    0.797726 0.900165 0.392957 0.109337
H13   H     H_    0.124013 0.811927 0.686658 0.134225
H14   H     H_    0.934675 0.927273 0.296983 0.107376
H15   H     H_    0.108400 0.838816 0.813892 0.129735
H16   H     H_    0.499326 0.847366 0.817151 0.138082
H17   H     H_    0.513859 0.822407 0.688977 0.122009
H18   H     H_    0.953191 0.811128 0.086945 0.132633
H19   H     H_    0.948400 0.000528 0.159405 0.149679
H20   H     H_    0.729631 0.174502 0.219302 0.123498
H21   H     H_    0.136061 0.717994 0.242491 0.111334
H22   H     H_    0.525864 0.957346 0.149372 0.182477
H23   H     H_    0.865612 0.662078 0.436879 0.127104
H24   H     H_    0.154455 0.511035 0.172298 0.147978
H25   H     H_    0.068644 0.451379 0.384784 0.096150
H26   H     H_    0.039676 0.268801 0.346914 0.097004
H27   H     H_    0.092093 0.257728 0.219456 0.116512
H28   H     H_    0.650859 0.428633 0.168265 0.159643
H29   H     H_    0.597302 0.445239 0.295803 0.118112
H30   H     H_    0.575264 0.683927 0.306596 0.164493
O1    O     O_R   0.748800 0.497470 0.428000 -0.527956
O2    O     O_R   0.417600 0.174890 0.067840 -0.523437
O3    O     O_R   0.375320 0.946260 0.070860 -0.475457
O4    O     O_R   0.476420 0.724060 0.429470 -0.512095
O5    O     O_R   0.160600 0.919630 0.926660 -0.523537
O6    O     O_R   0.933060 0.190520 0.936020 -0.505432
O7    O     O_R   0.908880 0.403460 0.925020 -0.498033
O8    O     O_R   0.179600 0.361450 0.918490 -0.503330
O9    O     O_R   0.391510 0.170860 0.907530 -0.517546
O10   O     O_R   0.351130 0.942530 0.922260 -0.490580
O11   O     O_3   0.166667 0.166667 0.999870 -0.270046
O12   O     O_R   0.300070 0.471040 0.567100 -0.504088
O13   O     O_R   0.264580 0.744340 0.416750 -0.503283
O14   O     O_R   0.309380 0.472470 0.418200 -0.494571
O15   O     O_R   0.501710 0.260430 0.414300 -0.530679
O16   O     O_R   0.728090 0.305600 0.428960 -0.502777
O17   O     O_R   0.738760 0.495930 0.588610 -0.530501
O18   O     O_R   0.467110 0.722640 0.578360 -0.508965
O19   O     O_R   0.254530 0.742800 0.577360 -0.526181
O20   O     O_R   0.491670 0.258900 0.574910 -0.527446
O21   O     O_R   0.718780 0.304180 0.577850 -0.507493
O22   O     O_3   0.500010 0.500010 0.500020 -0.249564
O23   O     O_R   0.186690 0.923650 0.086970 -0.546798
O24   O     O_R   0.957250 0.194250 0.084630 -0.532741
O25   O     O_R   0.934970 0.407490 0.085330 -0.445903
O26   O     O_R   0.203780 0.365190 0.067090 -0.507187

loop_
_geom_bond_atom_site_label_1
_geom_bond_atom_site_label_2
_ccdc_geom_bond_type
C39   C46   A    
C54   C55   A    
C10   C17   A    
C25   C31   A    
C25   H4    S    
C18   C19   A    
C58   H14   S    
C47   O25   A    
C6    C7    A    
C12   C59   A    
C38   C52   S    
C25   C26   A    
C32   C38   A    
Cr3   O21   S    
C56   H21   S    
C28   C46   S    
C35   C36   A    
C33   H9    S    
C47   O24   A    
C29   C30   A    
C29   H6    S    
C15   H29   S    
C56   C58   A    
C37   H11   S    
C1    O4    A    
C14   C15   A    
Cr3   O20   S    
Cr2   O14   S    
C42   C53   S    
C30   H7    S    
Cr6   O11   S    
C51   O9    A    
C7    C8    A    
C31   C40   S    
C11   H27   S    
C9    C34   A    
Cr4   O23   S    
C40   O20   A    
Cr1   O22   S    
C39   C41   A    
C51   O8    A    
C20   C21   A    
C2    C23   A    
C49   O23   A    
Cr5   O8    S    
C39   H13   S    
C20   C49   S    
C18   H30   S    
C16   O16   A    
C16   C17   S    
C44   C46   A    
C37   C38   A    
C1    O13   A    
Cr3   O16   S    
C7    H25   S    
C22   H3    S    
C53   O5    A    
C8    C56   A    
C14   H28   S    
C55   H19   S    
C13   C47   S    
C12   C57   A    
C50   O6    A    
C48   O26   A    
C28   O19   A    
Br1   C60   S    
C59   C60   A    
C44   H17   S    
C42   C43   A    
Cr1   O18   S    
C36   C37   A    
C32   H8    S    
C5    H12   S    
C30   C31   A    
C50   O7    A    
C6    H23   S    
C32   C33   A    
Cr4   O24   S    
C16   O1    A    
Cr4   O11   S    
C35   C50   S    
Cr6   O2    S    
C10   H26   S    
C28   O18   A    
C11   C13   A    
C40   O12   A    
Cr5   O26   S    
C41   C42   A    
Cr4   O5    S    
Cr5   O7    S    
C3    C9    A    
C2    C3    A    
C43   C44   A    
Cr6   O3    S    
C23   C48   S    
Cr3   O15   S    
C4    O15   A    
C21   C22   A    
C5    C58   A    
C19   F1    S    
C41   H15   S    
C43   H16   S    
C57   H20   S    
C10   C11   A    
C52   O21   A    
C5    C6    A    
C4    O14   A    
C59   H22   S    
C36   H10   S    
Cr3   O22   S    
C53   O10   A    
Cr6   O10   S    
C23   C45   A    
Cr2   O12   S    
C27   C29   A    
Cr1   O17   S    
C48   O2    A    
Cr2   O22   S    
C27   C51   S    
Cr6   O9    S    
C12   C45   S    
C54   H18   S    
Cr2   O19   S    
C54   C60   A    
C55   C57   A    
C1    C24   S    
C33   C35   A    
C22   C24   A    
Cr5   O11   S    
Cr2   O13   S    
C18   C24   A    
Cr1   O1    S    
Cr5   O25   S    
C4    C9    S    
C19   C20   A    
C34   H1    S    
C49   O3    A    
C15   C17   A    
C26   C27   A    
C13   C14   A    
C2    H24   S    
Cr4   O6    S    
C3    C8    S    
C26   H5    S    
C34   C45   A    
C21   H2    S    
C52   O17   A    
Cr1   O4    S    
