data_mof_unit_33688.cif
_audit_creation_date              2012-12-10T18:46:15-0500
_audit_creation_method            fapswitch 2.2
_symmetry_space_group_name_H-M    P1
_symmetry_Int_Tables_number       1
_space_group_crystal_system       triclinic
_cell_length_a                    9.896177
_cell_length_b                    10.725449
_cell_length_c                    13.233136
_cell_angle_alpha                 91.04985
_cell_angle_beta                  72.273629
_cell_angle_gamma                 89.943578
_cell_volume                      1337.63385182

loop_
_atom_site_label
_atom_site_type_symbol
_atom_type_description
_atom_site_fract_x
_atom_site_fract_y
_atom_site_fract_z
_atom_type_partial_charge
C1    C     C_R   0.500055 0.739970 0.499998 0.872322
C2    C     C_R   0.450469 0.583999 0.976954 0.058197
C3    C     C_R   0.491560 0.578489 0.865673 0.074306
C4    C     C_R   0.554481 0.554293 0.026979 0.064512
C5    C     C_R   0.695429 0.522891 0.964468 0.089975
C6    C     C_R   0.737982 0.550909 0.857459 -0.157246
C7    C     C_R   0.637264 0.587606 0.811176 -0.159310
C8    C     C_R   0.521062 0.547562 0.136282 -0.212266
C9    C     C_R   0.752964 0.460788 0.121029 -0.165811
C10   C     C_R   0.386427 0.564411 0.813302 -0.182771
C11   C     C_R   0.620574 0.936140 0.506540 -0.165302
C12   C     C_R   0.424577 0.518347 0.701822 0.916102
C13   C     C_R   0.620559 0.063889 0.506602 -0.166264
C14   C     C_R   0.499784 0.127466 0.500992 -0.036587
C15   C     C_R   0.378990 0.063746 0.495686 -0.135965
C16   C     C_R   0.379535 0.936129 0.494505 -0.140237
C17   C     C_R   0.500094 0.872505 0.500271 -0.025457
C18   C     C_R   0.950978 0.413133 0.442232 -0.100415
C19   C     C_R   0.095145 0.414911 0.439609 0.286452
C20   C     C_R   0.046939 0.587231 0.557795 0.281371
C21   C     C_R   0.906195 0.590196 0.553287 -0.132980
C22   C     C_R   0.499888 0.260029 0.500353 0.902796
C23   C     C_R   0.576792 0.498796 0.297270 0.914887
C24   C     C_R   0.790776 0.468490 0.011247 0.308496
C25   C     C_R   0.619803 0.503610 0.183019 -0.106843
C26   C     C_R   0.245550 0.595316 0.869321 -0.150118
C27   C     C_R   0.208802 0.628768 0.976723 0.358698
C28   C     C_R   0.307841 0.616268 0.031729 -0.208338
H1    H     H_    0.826268 0.419956 0.157640 0.192787
H2    H     H_    0.714603 0.112335 0.511204 0.172298
H3    H     H_    0.284416 0.111858 0.492106 0.198729
H4    H     H_    0.285952 0.887896 0.488871 0.195943
H5    H     H_    0.915074 0.344250 0.395564 0.168335
H6    H     H_    0.837275 0.666308 0.591322 0.150397
H7    H     H_    0.848284 0.546817 0.809737 0.204870
H8    H     H_    0.417945 0.575640 0.186967 0.174663
H9    H     H_    0.164938 0.595994 0.829620 0.229084
H10   H     H_    0.270793 0.635909 0.115828 0.164653
H11   H     H_    0.674048 0.624227 0.733138 0.172989
H12   H     H_    0.714528 0.887745 0.511346 0.170082
N1    N     N_R   0.142790 0.500030 0.500030 -0.123285
N2    N     N_R   0.857180 0.499940 0.500010 -0.113167
O1    O     O_R   0.385370 0.683250 0.500010 -0.594192
O2    O     O_R   0.614700 0.683220 0.500010 -0.639082
O3    O     O_R   0.328400 0.499990 0.653620 -0.570643
O4    O     O_R   0.557730 0.499960 0.653620 -0.627714
O5    O     O_R   0.385300 0.316780 0.499990 -0.584207
O6    O     O_R   0.614630 0.316750 0.499990 -0.630332
O7    O     O_R   0.442270 0.500040 0.346380 -0.590088
O8    O     O_R   0.671600 0.500010 0.346380 -0.611049
Zn1   Zn    Zn3+2 0.346870 0.500020 0.500000 1.036066
Zn2   Zn    Zn3+2 0.653130 0.499980 0.500000 0.969055
Br1   Br    Br    0.220348 0.299125 0.344541 -0.495360
Br2   Br    Br    0.095736 0.707937 0.648416 -0.532421
Br3   Br    Br    0.965089 0.390094 0.928828 -0.495758
Br4   Br    Br    0.023224 0.691469 0.049588 -0.474855

loop_
_geom_bond_atom_site_label_1
_geom_bond_atom_site_label_2
_ccdc_geom_bond_type
C22   O6    A    
C26   H9    S    
C15   H3    S    
C6    C7    A    
C9    H1    S    
C16   H4    S    
C1    O2    A    
O8    Zn2   S    
C28   H10   S    
C4    C8    A    
O1    Zn1   S    
O2    Zn2   S    
C11   H12   S    
C18   N2    A    
C2    C3    A    
C9    C25   A    
C9    C24   A    
C3    C10   A    
C13   C14   A    
C6    H7    S    
C24   Br3   S    
C8    C25   A    
C11   C13   A    
C19   Br1   S    
C26   C27   A    
C5    C6    A    
C5    C24   A    
C10   C12   S    
C2    C4    A    
C20   Br2   S    
N1    Zn1   S    
C20   N1    A    
C3    C7    A    
C23   C25   S    
C14   C22   S    
C18   H5    S    
C22   O5    A    
C23   O7    A    
O3    Zn1   S    
O5    Zn1   S    
C15   C16   A    
O4    Zn2   S    
C13   H2    S    
O6    Zn2   S    
C20   C21   A    
C12   O4    A    
C18   C19   A    
C8    H8    S    
C19   N1    A    
C27   C28   A    
C7    H11   S    
C27   Br4   S    
C16   C17   A    
C23   O8    A    
C2    C28   A    
C21   H6    S    
C14   C15   A    
C4    C5    A    
C1    C17   S    
C1    O1    A    
C10   C26   A    
C11   C17   A    
C21   N2    A    
N2    Zn2   S    
C12   O3    A    
O7    Zn1   S    
