data_mof_unit_43508.cif
_audit_creation_date              2012-12-11T14:40:23-0500
_audit_creation_method            fapswitch 2.2
_symmetry_space_group_name_H-M    P1
_symmetry_Int_Tables_number       1
_space_group_crystal_system       triclinic
_cell_length_a                    19.491164
_cell_length_b                    11.037208
_cell_length_c                    19.427379
_cell_angle_alpha                 90.334345
_cell_angle_beta                  97.492874
_cell_angle_gamma                 90.019691
_cell_volume                      4143.61336688

loop_
_atom_site_label
_atom_site_type_symbol
_atom_type_description
_atom_site_fract_x
_atom_site_fract_y
_atom_site_fract_z
_atom_type_partial_charge
C1    C     C_R   0.727088 0.949396 0.359013 0.544480
C2    C     C_3   0.269163 0.335931 0.557792 -0.019076
C3    C     C_3   0.726960 0.674896 0.348008 -0.100242
C4    C     C_3   0.230547 0.833485 0.441178 -0.026628
C5    C     C_3   0.769166 0.835894 0.557785 -0.019071
C6    C     C_3   0.757526 0.458500 0.466710 -0.074214
C7    C     C_3   0.290006 0.460499 0.532112 -0.099349
C8    C     C_3   0.257494 0.958562 0.466704 -0.074168
C9    C     C_3   0.789945 0.960524 0.532138 -0.099357
C10   C     C_3   0.808452 0.396157 0.522264 -0.187032
C11   C     C_3   0.218404 0.467378 0.487197 -0.165834
C12   C     C_3   0.308451 0.896262 0.522248 -0.187027
C13   C     C_R   0.273264 0.948122 0.640872 0.573911
C14   C     C_3   0.718353 0.967299 0.487197 -0.165905
C15   C     C_3   0.782457 0.270278 0.496329 -0.106907
C16   C     C_3   0.197562 0.342436 0.512784 -0.051776
C17   C     C_3   0.282495 0.770358 0.496316 -0.106835
C18   C     C_3   0.697573 0.842291 0.512745 -0.051863
C19   C     C_3   0.727437 0.275288 0.546586 0.231808
C20   C     C_3   0.229686 0.280946 0.453277 0.282225
C21   C     C_3   0.227485 0.775296 0.546582 0.231801
C22   C     C_3   0.729770 0.780925 0.453243 0.282199
C23   C     C_3   0.752981 0.400085 0.571804 0.091692
C24   C     C_R   0.227088 0.449378 0.359005 0.544492
C25   C     C_3   0.249307 0.404295 0.427691 0.071302
C26   C     C_3   0.252990 0.900112 0.571800 0.091614
C27   C     C_3   0.749326 0.904330 0.427698 0.071506
C28   C     C_3   0.529085 0.267033 0.977350 0.257715
C29   C     C_3   0.471397 0.266696 0.023495 0.258290
C30   C     C_3   0.029081 0.767031 0.977356 0.257717
C31   C     C_3   0.971391 0.766699 0.023497 0.258265
C32   C     C_3   0.566677 0.166901 0.020701 0.202881
C33   C     C_3   0.433652 0.167105 0.979143 0.202750
C34   C     C_3   0.066668 0.666895 0.020707 0.202881
C35   C     C_R   0.773260 0.448113 0.640875 0.573987
C36   C     C_3   0.933644 0.667113 0.979143 0.202758
C37   C     C_3   0.509132 0.167992 0.068230 0.021997
C38   C     C_3   0.491178 0.168925 0.931611 0.023012
C39   C     C_3   0.009121 0.667991 0.068233 0.022124
C40   C     C_3   0.991173 0.668927 0.931614 0.023031
C41   C     C_R   0.534125 0.180224 0.336940 0.533602
C42   C     C_R   0.462523 0.180178 0.660662 0.525215
C43   C     C_R   0.034127 0.680224 0.336941 0.533584
C44   C     C_R   0.962532 0.680177 0.660667 0.525217
C45   C     C_3   0.471105 0.066175 0.023760 -0.187737
C46   C     C_3   0.673928 0.333894 0.490128 -0.154879
C47   C     C_3   0.529026 0.066510 0.975015 -0.187210
C48   C     C_3   0.971093 0.566178 0.023761 -0.187733
C49   C     C_3   0.029015 0.566507 0.975018 -0.187397
C50   C     C_1   0.757486 0.412304 0.899580 0.014030
C51   C     C_1   0.242439 0.411165 0.100482 0.012587
C52   C     C_1   0.257485 0.912301 0.899580 0.014010
C53   C     C_1   0.742433 0.911179 0.100478 0.012701
C54   C     C_1   0.737493 0.370974 0.027169 0.022859
C55   C     C_1   0.262927 0.370223 0.972939 0.023553
C56   C     C_1   0.237491 0.870966 0.027168 0.022816
C57   C     C_3   0.300826 0.269376 0.498839 -0.131458
C58   C     C_1   0.762920 0.870244 0.972935 0.023590
C59   C     C_1   0.746387 0.390947 0.957616 0.010551
C60   C     C_1   0.253754 0.389786 0.042460 0.009909
C61   C     C_1   0.246385 0.890942 0.957615 0.010519
C62   C     C_1   0.753746 0.889807 0.042455 0.010042
C63   C     C_1   0.731115 0.350405 0.086629 0.062316
C64   C     C_1   0.269397 0.349961 0.913411 0.063264
C65   C     C_1   0.231113 0.850398 0.086627 0.062351
C66   C     C_1   0.769393 0.849976 0.913408 0.063278
C67   C     C_R   0.723614 0.306507 0.366962 0.554240
C68   C     C_3   0.173947 0.833853 0.490136 -0.154961
C69   C     C_R   0.275952 0.307672 0.632274 0.577558
C70   C     C_R   0.223617 0.806518 0.366964 0.554244
C71   C     C_R   0.775953 0.807661 0.632274 0.577586
C72   C     C_R   0.723258 0.949729 0.165336 0.523474
C73   C     C_R   0.276724 0.950176 0.834717 0.532404
C74   C     C_R   0.223258 0.449729 0.165336 0.523658
C75   C     C_R   0.776724 0.450176 0.834717 0.532423
C76   C     C_R   0.529947 0.178263 0.141468 0.579110
C77   C     C_R   0.470131 0.178691 0.858452 0.577869
C78   C     C_R   0.029944 0.678263 0.141470 0.579252
C79   C     C_3   0.800902 0.769454 0.498836 -0.131661
C80   C     C_R   0.970129 0.678691 0.858454 0.577852
C81   C     C_R   0.723469 0.315455 0.155817 0.587038
C82   C     C_R   0.276777 0.315127 0.844049 0.588331
C83   C     C_R   0.223469 0.815452 0.155817 0.587224
C84   C     C_R   0.776775 0.815133 0.844049 0.588330
C85   C     C_1   0.478491 0.172336 0.591319 -0.036682
C86   C     C_1   0.508068 0.172355 0.401938 0.010788
C87   C     C_1   0.978514 0.672334 0.591329 -0.036635
C88   C     C_1   0.008080 0.672357 0.401944 0.010678
C89   C     C_1   0.494805 0.168779 0.460479 -0.043512
C90   C     C_3   0.730540 0.333451 0.441181 -0.026637
C91   C     C_1   0.485725 0.168890 0.530922 -0.081335
C92   C     C_1   0.994826 0.668780 0.460488 -0.043609
C93   C     C_1   0.985753 0.668889 0.530933 -0.081309
C94   C     C_3   0.702214 0.459172 0.516008 0.236015
C95   C     C_3   0.319438 0.395562 0.472351 0.181837
C96   C     C_3   0.202192 0.959157 0.516016 0.236056
C97   C     C_3   0.819447 0.895698 0.472383 0.181851
C98   C     C_3   0.653577 0.179843 0.612194 -0.108100
C99   C     C_3   0.226439 0.174974 0.347953 -0.099803
C100  C     C_3   0.153697 0.679904 0.612289 -0.108107
Cr1   Cr    Cr6+3 0.765830 0.160660 0.268180 1.059448
Cr2   Cr    Cr6+3 0.384070 0.324050 0.751550 1.063166
Cr3   Cr    Cr6+3 0.115930 0.824050 0.248450 1.056935
Cr4   Cr    Cr6+3 0.884070 0.824050 0.751550 1.063161
Cr5   Cr    Cr6+3 0.234170 0.160660 0.731820 1.062280
Cr6   Cr    Cr6+3 0.265830 0.660660 0.268180 1.059540
Cr7   Cr    Cr6+3 0.734170 0.660660 0.731820 1.062302
Cr8   Cr    Cr6+3 0.612110 0.009150 0.248770 1.026064
Cr9   Cr    Cr6+3 0.387890 0.009150 0.751230 1.030687
Cr10  Cr    Cr6+3 0.112110 0.509150 0.248770 1.025892
Cr11  Cr    Cr6+3 0.887890 0.509150 0.751230 1.030683
Cr12  Cr    Cr6+3 0.615930 0.324050 0.248450 1.057063
H1    H     H_    0.618713 0.310101 0.475791 0.109293
H2    H     H_    0.683732 0.047209 0.479827 0.135654
H3    H     H_    0.863668 0.422194 0.535700 0.139817
H4    H     H_    0.183819 0.547337 0.479827 0.135745
H5    H     H_    0.816046 0.193352 0.485490 0.153544
H6    H     H_    0.146616 0.319790 0.529142 0.171014
H7    H     H_    0.316102 0.693455 0.485478 0.153471
H8    H     H_    0.646631 0.819527 0.529076 0.171044
H9    H     H_    0.445448 0.986138 0.043551 0.144845
H10   H     H_    0.554568 0.986756 0.954354 0.144931
H11   H     H_    0.945431 0.486144 0.043551 0.144826
H12   H     H_    0.335327 0.189339 0.505243 0.101707
H13   H     H_    0.054555 0.486751 0.954357 0.144857
H14   H     H_    0.622741 0.558982 0.489317 0.353769
H15   H     H_    0.417791 0.415562 0.489201 0.330921
H16   H     H_    0.122624 0.058789 0.489414 0.353769
H17   H     H_    0.917796 0.915753 0.489262 0.330923
H18   H     H_    0.618111 0.139326 0.569124 0.123908
H19   H     H_    0.635838 0.271659 0.626171 0.127944
H20   H     H_    0.652926 0.120944 0.658168 0.166042
H21   H     H_    0.281712 0.203623 0.353034 0.098765
H22   H     H_    0.196008 0.220601 0.303530 0.166184
H23   H     H_    0.118740 0.809999 0.475807 0.109267
H24   H     H_    0.224968 0.078546 0.333162 0.166263
H25   H     H_    0.118142 0.639530 0.569243 0.123913
H26   H     H_    0.136048 0.771726 0.626354 0.127927
H27   H     H_    0.153081 0.620925 0.658232 0.166044
H28   H     H_    0.782418 0.702648 0.353560 0.098797
H29   H     H_    0.697079 0.721270 0.303508 0.165802
H30   H     H_    0.725039 0.578546 0.332989 0.166706
H31   H     H_    0.645475 0.087448 0.068130 0.324224
H32   H     H_    0.354610 0.088301 0.931161 0.323550
H33   H     H_    0.145498 0.587246 0.067925 0.324250
H34   H     H_    0.835431 0.689451 0.505225 0.101693
H35   H     H_    0.854602 0.588325 0.931150 0.323546
H36   H     H_    0.579094 0.415783 0.995005 0.341822
H37   H     H_    0.421487 0.415480 0.007339 0.342084
H38   H     H_    0.079093 0.915778 0.995014 0.341826
H39   H     H_    0.921484 0.915487 0.007342 0.342085
H40   H     H_    0.780296 0.528011 0.436681 0.147455
H41   H     H_    0.317253 0.531758 0.565704 0.181378
H42   H     H_    0.280211 0.028130 0.436663 0.147505
H43   H     H_    0.817139 0.031798 0.565759 0.181463
H44   H     H_    0.363659 0.922358 0.535677 0.139790
O1    O     O_R   0.783230 0.287800 0.346510 -0.502453
O2    O     O_R   0.454570 0.285140 0.836900 -0.469550
O3    O     O_R   0.045430 0.785140 0.163100 -0.467031
O4    O     O_R   0.954570 0.785140 0.836900 -0.469560
O5    O     O_R   0.677850 0.374730 0.185500 -0.493244
O6    O     O_R   0.322150 0.374730 0.814500 -0.480681
O7    O     O_R   0.177850 0.874730 0.185500 -0.493276
O8    O     O_R   0.822150 0.874730 0.814500 -0.480671
O9    O     O_3   0.664630 0.164620 0.255130 -0.309962
O10   O     O_3   0.335370 0.164620 0.744870 -0.314692
O11   O     O_3   0.164630 0.664620 0.255130 -0.309862
O12   O     O_R   0.216770 0.287800 0.653490 -0.486862
O13   O     O_3   0.835370 0.664620 0.744870 -0.314697
O14   O     O_R   0.760130 0.037060 0.338610 -0.493370
O15   O     O_R   0.239870 0.037060 0.661390 -0.482343
O16   O     O_R   0.260130 0.537060 0.338610 -0.493321
O17   O     O_R   0.739870 0.537060 0.661390 -0.482330
O18   O     O_R   0.666620 0.921370 0.332440 -0.509832
O19   O     O_R   0.333380 0.921370 0.667560 -0.511698
O20   O     O_R   0.166620 0.421370 0.332440 -0.510145
O21   O     O_R   0.833380 0.421370 0.667560 -0.511727
O22   O     O_R   0.557170 0.082420 0.312350 -0.496917
O23   O     O_R   0.283230 0.787800 0.346510 -0.502445
O24   O     O_R   0.442830 0.082420 0.687650 -0.497696
O25   O     O_R   0.057170 0.582420 0.312350 -0.496912
O26   O     O_R   0.942830 0.582420 0.687650 -0.497698
O27   O     O_R   0.548310 0.285980 0.316250 -0.501401
O28   O     O_R   0.451690 0.285980 0.683750 -0.514586
O29   O     O_R   0.048310 0.785980 0.316250 -0.501436
O30   O     O_R   0.951690 0.785980 0.683750 -0.514589
O31   O     O_R   0.680520 0.375500 0.327470 -0.500330
O32   O     O_R   0.319480 0.375500 0.672530 -0.487152
O33   O     O_R   0.180520 0.875500 0.327470 -0.500422
O34   O     O_R   0.716770 0.787800 0.653490 -0.486841
O35   O     O_R   0.819480 0.875500 0.672530 -0.487167
O36   O     O_R   0.780350 0.286970 0.193350 -0.507033
O37   O     O_R   0.219650 0.286970 0.806650 -0.508449
O38   O     O_R   0.280350 0.786970 0.193350 -0.507030
O39   O     O_R   0.719650 0.786970 0.806650 -0.508436
O40   O     O_R   0.757460 0.036290 0.196640 -0.495047
O41   O     O_R   0.242540 0.036290 0.803360 -0.504129
O42   O     O_R   0.257460 0.536290 0.196640 -0.494977
O43   O     O_R   0.742540 0.536290 0.803360 -0.504129
O44   O     O_R   0.663740 0.920540 0.179290 -0.521126
O45   O     O_R   0.554500 0.081650 0.170370 -0.512305
O46   O     O_R   0.336260 0.920540 0.820710 -0.507877
O47   O     O_R   0.163740 0.420540 0.179290 -0.521176
O48   O     O_R   0.836260 0.420540 0.820710 -0.507874
O49   O     O_3   0.660773 0.558162 0.528506 -0.667946
O50   O     O_3   0.381920 0.424947 0.448477 -0.681724
O51   O     O_3   0.160722 0.058095 0.528537 -0.667724
O52   O     O_3   0.881926 0.925233 0.448546 -0.681749
O53   O     O_3   0.720825 0.181038 0.593946 -0.575419
O54   O     O_3   0.194985 0.190869 0.409389 -0.554501
O55   O     O_3   0.220902 0.681013 0.593929 -0.575415
O56   O     O_R   0.445500 0.081650 0.829630 -0.513499
O57   O     O_3   0.695172 0.690904 0.409238 -0.554408
O58   O     O_3   0.637428 0.164557 0.042845 -0.713602
O59   O     O_3   0.362897 0.165241 0.957070 -0.715265
O60   O     O_3   0.137415 0.664552 0.042869 -0.713670
O61   O     O_3   0.862889 0.665255 0.957069 -0.715285
O62   O     O_3   0.560697 0.369016 0.952908 -0.662457
O63   O     O_3   0.439857 0.368333 0.048961 -0.660691
O64   O     O_3   0.060697 0.869012 0.952916 -0.662476
O65   O     O_3   0.939853 0.868339 0.048964 -0.660736
O66   O     O_R   0.054500 0.581650 0.170370 -0.512212
O67   O     O_R   0.945500 0.581650 0.829630 -0.513498
O68   O     O_R   0.545430 0.285140 0.163100 -0.467019

loop_
_geom_bond_atom_site_label_1
_geom_bond_atom_site_label_2
_ccdc_geom_bond_type
C35   O21   A    
C21   C26   S    
C58   C62   S    
C56   C61   S    
C18   H8    S    
C33   C45   S    
C14   C18   S    
C19   C23   S    
C2    C7    S    
C3    H29   S    
C51   C74   S    
C4    C8    S    
Cr1   O36   S    
H39   O65   S    
Cr2   O2    S    
Cr12  O31   S    
C4    C70   S    
C85   C91   T    
C19   C46   S    
Cr6   O38   S    
C76   O68   A    
C15   C19   S    
C41   C86   S    
C3    H30   S    
C68   C96   S    
C63   C81   S    
C45   H9    S    
C43   C88   S    
C28   C29   S    
H15   O50   S    
Cr4   O4    S    
C22   C79   S    
C52   C61   T    
H38   O64   S    
C30   C31   S    
C70   O23   A    
C80   O4    A    
C54   C63   T    
C11   C25   S    
H14   O49   S    
C40   C49   S    
C29   C33   S    
C1    O14   A    
Cr5   O10   S    
C99   H21   S    
H37   O63   S    
C74   O47   A    
C82   O37   A    
C8    C96   S    
C77   O56   A    
C31   O65   S    
C58   C66   T    
C27   C97   S    
C88   C92   T    
Cr10  O25   S    
C42   O24   A    
C6    C94   S    
Cr8   O18   S    
C12   C17   S    
C9    C97   S    
C40   C80   S    
C24   O20   A    
Cr3   O33   S    
H16   O51   S    
C20   O54   S    
C14   C27   S    
C89   C91   S    
C44   C87   S    
C2    C16   S    
C84   O8    A    
Cr1   O40   S    
C8    C12   S    
C77   O2    A    
Cr6   O42   S    
C39   C48   S    
C6    H40   S    
C95   O50   S    
Cr5   O41   S    
Cr1   O1    S    
Cr2   O10   S    
C18   C22   S    
C55   C60   S    
Cr12  O68   S    
C94   O49   S    
C81   O5    A    
C12   H44   S    
C98   H20   S    
Cr7   O39   S    
C97   O52   S    
C67   O31   A    
Cr12  O27   S    
C54   C59   S    
C45   C47   S    
C26   C96   S    
C98   O53   S    
C1    O18   A    
C2    C57   S    
C32   C37   S    
C30   C34   S    
C7    C95   S    
Cr8   O22   S    
C34   C39   S    
C35   O17   A    
C39   C78   S    
C74   O42   A    
C79   H34   S    
C28   C32   S    
Cr8   O44   S    
C52   C73   S    
C100  H25   S    
C2    C69   S    
C4    C68   S    
H17   O52   S    
C76   O45   A    
C96   O51   S    
C5    C18   S    
C82   O6    A    
C42   O28   A    
C72   O40   A    
C6    C90   S    
Cr4   O35   S    
C43   O25   A    
C67   C90   S    
Cr2   O32   S    
C15   H5    S    
C99   H22   S    
C12   C26   S    
Cr10  O47   S    
Cr11  O13   S    
C65   C83   S    
C98   H19   S    
C7    C11   S    
C9    C14   S    
C81   O36   A    
C5    C9    S    
Cr8   O45   S    
H35   O61   S    
C100  H27   S    
C16   H6    S    
Cr3   O29   S    
C72   O44   A    
H33   O60   S    
Cr10  O11   S    
C41   O22   A    
C46   C94   S    
C28   C38   S    
C16   C20   S    
C55   C64   T    
C98   H18   S    
C57   H12   S    
C30   C40   S    
Cr1   O14   S    
C67   O1    A    
C42   C85   S    
Cr11  O67   S    
Cr3   O11   S    
C24   C25   S    
Cr1   O9    S    
C11   H4    S    
C3    H28   S    
C69   O32   A    
C64   C82   S    
C38   C47   S    
C100  H26   S    
C78   O66   A    
H31   O58   S    
C4    C17   S    
C48   C49   S    
C37   C76   S    
C25   C95   S    
C75   O43   A    
C22   C27   S    
C73   O41   A    
C21   C68   S    
C57   C95   S    
C32   C47   S    
C13   C26   S    
C8    H42   S    
C5    C79   S    
C50   C59   T    
C37   C45   S    
Cr9   O56   S    
C44   O26   A    
Cr6   O23   S    
C36   C40   S    
Cr4   O30   S    
Cr2   O6    S    
Cr11  O21   S    
C30   O64   S    
Cr8   O9    S    
Cr7   O13   S    
C13   O19   A    
C83   O7    A    
Cr9   O46   S    
C34   C49   S    
C28   O62   S    
Cr5   O15   S    
C46   H1    S    
C19   O53   S    
C29   O63   S    
Cr6   O16   S    
C79   C97   S    
C68   H23   S    
C47   H10   S    
C86   C89   T    
Cr11  O48   S    
C6    C10   S    
H32   O59   S    
Cr7   O17   S    
C75   O48   A    
Cr9   O19   S    
C46   C90   S    
C38   C77   S    
Cr10  O20   S    
C10   C23   S    
C3    O57   S    
C49   H13   S    
C73   O46   A    
C100  O55   S    
Cr3   O7    S    
C33   C38   S    
Cr5   O12   S    
C10   C15   S    
C48   H11   S    
Cr2   O28   S    
Cr6   O11   S    
C83   O38   A    
C69   O12   A    
C32   O58   S    
C5    C71   S    
C14   H2    S    
C50   C75   S    
C80   O67   A    
Cr7   O43   S    
Cr5   O37   S    
Cr9   O24   S    
Cr3   O3    S    
Cr4   O8    S    
C7    H41   S    
Cr12  O9    S    
C87   C93   T    
Cr7   O34   S    
C92   C93   S    
C31   C39   S    
C99   H24   S    
C36   C48   S    
Cr11  O26   S    
C71   O34   A    
C24   O16   A    
C23   C35   S    
C17   C21   S    
C11   C16   S    
Cr12  O5    S    
Cr9   O10   S    
C17   H7    S    
C36   O61   S    
C66   C84   S    
C23   C94   S    
C21   O55   S    
C78   O3    A    
C13   O15   A    
C9    H43   S    
C53   C62   T    
C20   C25   S    
C22   O57   S    
C29   C37   S    
C1    C27   S    
C43   O29   A    
C31   C36   S    
C41   O27   A    
C34   O60   S    
C51   C60   T    
C84   O39   A    
C71   O35   A    
C20   C57   S    
C53   C72   S    
H36   O62   S    
C33   O59   S    
C10   H3    S    
C56   C65   T    
C70   O33   A    
C44   O30   A    
Cr4   O13   S    
C15   C90   S    
C99   O54   S    
Cr10  O66   S    
