data_mof_unit_25530.cif
_audit_creation_date              2013-03-05T15:55:41-0500
_audit_creation_method            fapswitch 2.2
_symmetry_space_group_name_H-M    P1
_symmetry_Int_Tables_number       1
_space_group_crystal_system       triclinic
_cell_length_a                    6.92375
_cell_length_b                    17.603775
_cell_length_c                    19.466264
_cell_angle_alpha                 108.628048
_cell_angle_beta                  89.770266
_cell_angle_gamma                 90.462065
_cell_volume                      2248.25619993

loop_
_atom_site_label
_atom_site_type_symbol
_atom_site_description
_atom_site_fract_x
_atom_site_fract_y
_atom_site_fract_z
_atom_type_partial_charge
O1    O     O_R   0.494330 0.415710 0.413720 -0.572212
O2    O     O_R   0.819360 0.430070 0.560210 -0.550620
O3    O     O_R   0.994320 0.584290 0.586280 -0.575511
C1    C     C_R   0.650339 0.412914 0.580156 1.087373
O4    O     O_R   0.823740 0.406290 0.412670 -0.583035
O5    O     O_R   0.998730 0.560340 0.437690 -0.618006
C2    C     C_R   0.654809 0.384660 0.383567 1.011907
O6    O     O_R   0.489920 0.439660 0.562310 -0.588080
O7    O     O_3   0.662330 0.550570 0.508380 -0.288868
V1    V     V_3+5 0.935370 0.490620 0.498440 1.295074
O8    O     O_R   0.328720 0.569930 0.439790 -0.593813
C3    C     C_R   0.160364 0.585294 0.418441 0.997117
O9    O     O_R   0.324340 0.593710 0.587330 -0.584760
C4    C     C_R   0.155316 0.615398 0.616253 0.974275
V2    V     V_3+5 0.435940 0.509380 0.501560 1.265848
O10   O     O_3   0.159110 0.449430 0.491620 -0.239194
C5    C     C_R   0.283130 0.742155 0.704874 -0.097938
H1    H     H_    0.400570 0.741691 0.667807 0.141874
C6    C     C_R   0.271292 0.805670 0.769711 -0.052695
H2    H     H_    0.379976 0.852634 0.780686 0.119953
C7    C     C_R   0.119939 0.810052 0.819141 -0.240367
C8    C     C_R   0.980832 0.746972 0.803472 -0.212005
C9    C     C_R   0.992002 0.683069 0.736907 0.387583
C10   C     C_R   0.143155 0.681089 0.686928 -0.299949
C11   C     C_R   0.994689 0.632235 0.325118 -0.195608
C12   C     C_R   0.152388 0.636698 0.371139 -0.116333
C13   C     C_R   0.302810 0.690974 0.372418 -0.245021
C14   C     C_R   0.295863 0.743063 0.330139 0.062921
C15   C     C_R   0.140098 0.735570 0.281654 0.111580
C16   C     C_R   0.989212 0.679849 0.279532 0.182196
C17   C     C_R   0.440287 0.802146 0.335548 -0.122761
C18   C     C_R   0.430955 0.851796 0.290659 -0.143071
C19   C     C_R   0.280844 0.840862 0.237819 -0.087290
C20   C     C_R   0.133539 0.783317 0.235224 0.027431
C21   C     C_R   0.976710 0.773517 0.186513 0.143123
C22   C     C_R   0.827780 0.718878 0.185942 -0.200386
C23   C     C_R   0.833636 0.672712 0.232122 -0.180911
C24   C     C_R   0.269612 0.885904 0.188142 0.309654
C25   C     C_R   0.115142 0.873027 0.137702 -0.290172
C26   C     C_R   0.969441 0.817934 0.138557 -0.243383
H3    H     H_    0.877894 0.590292 0.323564 0.144335
H4    H     H_    0.424276 0.692349 0.407470 0.121800
H5    H     H_    0.850766 0.808350 0.100471 0.177599
H6    H     H_    0.705982 0.711801 0.149560 0.142453
H7    H     H_    0.716308 0.631059 0.230559 0.146539
C27   C     C_R   0.469926 0.186666 0.867817 -0.248185
C28   C     C_R   0.623386 0.135278 0.869716 -0.140149
C29   C     C_R   0.782104 0.129854 0.823120 -0.250682
C30   C     C_R   0.786424 0.173673 0.774149 0.154108
C31   C     C_R   0.633097 0.225606 0.773012 0.067530
C32   C     C_R   0.474727 0.232413 0.820435 0.142742
C33   C     C_R   0.940246 0.165445 0.725475 -0.233483
C34   C     C_R   0.942337 0.207832 0.675813 -0.114228
C35   C     C_R   0.792617 0.261329 0.674719 -0.021129
C36   C     C_R   0.637317 0.270281 0.724034 -0.003387
C37   C     C_R   0.484675 0.322942 0.723962 0.128433
C38   C     C_R   0.328726 0.329666 0.771827 -0.154865
C39   C     C_R   0.323248 0.284482 0.819304 -0.218199
C40   C     C_R   0.792661 0.304762 0.624703 0.305703
C41   C     C_R   0.643172 0.360413 0.626956 -0.305953
C42   C     C_R   0.490398 0.368375 0.676458 -0.129197
H8    H     H_    0.347035 0.191515 0.903627 0.144167
H9    H     H_    0.900041 0.089864 0.823586 0.138433
H10   H     H_    0.058750 0.125537 0.725325 0.143119
H11   H     H_    0.062972 0.198413 0.638656 0.186347
H12   H     H_    0.376293 0.410911 0.678613 0.178920
H13   H     H_    0.209862 0.369455 0.772126 0.157840
H14   H     H_    0.200219 0.290254 0.855157 0.147013
C43   C     C_R   0.789286 0.259849 0.294760 -0.035576
H15   H     H_    0.911406 0.264082 0.330434 0.177718
C44   C     C_R   0.779394 0.195047 0.230463 -0.060832
H16   H     H_    0.894811 0.151545 0.217933 0.146991
C45   C     C_R   0.620670 0.185483 0.183690 -0.186146
C46   C     C_R   0.473789 0.242964 0.201896 -0.227759
H17   H     H_    0.353409 0.237654 0.165221 0.162104
C47   C     C_R   0.485711 0.310197 0.264777 0.394166
C48   C     C_R   0.643075 0.317979 0.313340 -0.310634
O11   O     O_R   0.774940 0.060470 0.937800 -0.601648
O12   O     O_R   0.440880 0.093730 0.087350 -0.580877
O13   O     O_R   0.266130 0.939630 0.062280 -0.552355
C49   C     C_R   0.609847 0.116737 0.115436 1.041374
O14   O     O_R   0.445480 0.069960 0.939820 -0.611970
O15   O     O_R   0.270770 0.915690 0.913690 -0.587821
C50   C     C_R   0.614564 0.085590 0.918616 0.933060
O16   O     O_R   0.770300 0.084410 0.086380 -0.602609
O17   O     O_3   0.602600 0.949510 0.991670 -0.250140
V3    V     V_3+5 0.329470 0.009370 0.001550 1.215043
O18   O     O_R   0.940760 0.906160 0.912560 -0.617033
C51   C     C_R   0.109851 0.881354 0.885942 0.909752
O19   O     O_R   0.936150 0.929930 0.060100 -0.576476
C52   C     C_R   0.104625 0.917403 0.083952 1.013660
V4    V     V_3+5 0.828930 0.990450 0.998310 1.206784
O20   O     O_3   0.105670 0.050490 0.008320 -0.286389
N1    N     N_R   0.938214 0.289367 0.569331 0.234757
O21   O     O_R   0.116489 0.310728 0.586275 -0.414984
O22   O     O_R   0.889620 0.260083 0.501398 -0.393998
N2    N     N_R   0.344035 0.372119 0.275636 0.230331
O23   O     O_R   0.399502 0.446231 0.288966 -0.429778
O24   O     O_R   0.164485 0.353302 0.258467 -0.426469
C53   C     C_2   0.834824 0.744363 0.859087 0.626389
H18   H     H_    0.870323 0.768279 0.916278 -0.020602
O25   O     O_2   0.673079 0.716762 0.842062 -0.540802
N3    N     N_R   0.859382 0.616875 0.722798 0.243342
O26   O     O_R   0.688005 0.622254 0.697659 -0.372629
O27   O     O_R   0.918103 0.548243 0.726411 -0.425984
C54   C     C_2   0.594157 0.815797 0.391966 0.512336
H19   H     H_    0.559722 0.812515 0.445340 0.016029
O28   O     O_2   0.760777 0.830378 0.379361 -0.601591
C55   C     C_2   0.571654 0.918687 0.304675 0.743121
H20   H     H_    0.715501 0.908000 0.281339 0.043399
O29   O     O_2   0.528002 0.985593 0.343902 -0.527203
N4    N     N_R   0.411509 0.945848 0.188922 0.219460
O30   O     O_R   0.574653 0.925023 0.155009 -0.443324
O31   O     O_R   0.366445 0.021347 0.214087 -0.387729

loop_
_geom_bond_atom_site_label_1
_geom_bond_atom_site_label_2
_geom_bond_distance
_ccdc_geom_bond_type
O15   V3    2.000706 S    
C36   C37   1.411734 A    
C37   C42   1.402860 A    
C45   C46   1.402975 A    
C43   C48   1.407162 A    
C6    H2    1.083424 S    
C1    O6    1.300784 A    
O12   V3    1.999320 S    
N2    O23   1.301290 A    
O19   C52   1.303377 A    
C7    C51   1.493082 S    
C34   C35   1.410907 A    
C12   C13   1.402570 A    
C46   C47   1.406999 A    
C27   H8    1.084244 S    
C14   C15   1.413379 A    
C6    C7    1.405616 A    
O13   V3    2.002863 S    
C55   O29   1.221054 D    
O5    C3    1.296015 A    
C24   C25   1.421862 A    
C17   C18   1.421602 A    
C54   H19   1.084361 S    
O14   V3    2.006002 S    
V3    O20   1.702329 S    
C37   C38   1.404135 A    
C5    H1    1.083292 S    
C20   C21   1.417283 A    
C4    C10   1.490444 S    
C43   C44   1.399957 A    
V4    O20   2.159906 S    
C35   C36   1.414357 A    
O8    V2    1.992944 S    
C42   H12   1.084345 S    
C26   H5    1.084445 S    
C9    N3    1.434132 S    
O18   V4    2.003353 S    
C9    C10   1.419067 A    
O1    V2    2.002553 S    
C40   N1    1.435260 S    
C34   H11   1.081232 S    
O7    V1    2.150309 S    
C2    C48   1.492498 S    
C40   C41   1.421804 A    
O9    C4    1.302652 A    
C43   H15   1.083220 S    
C38   H13   1.083784 S    
C45   C49   1.485801 S    
N4    O30   1.300847 A    
N2    O24   1.301091 A    
O16   V4    2.008356 S    
C31   C32   1.411469 A    
C35   C40   1.417067 A    
O15   C51   1.297635 A    
C5    C10   1.401033 A    
C8    C53   1.489410 S    
C46   H17   1.083517 S    
C47   C48   1.422192 A    
C18   C55   1.479326 S    
C11   H3    1.084570 S    
C25   C26   1.397478 A    
O4    C2    1.301651 A    
O17   V3    2.150198 S    
C29   H9    1.084371 S    
O11   V4    1.996258 S    
C11   C12   1.400855 A    
C27   C32   1.405065 A    
C16   C23   1.399827 A    
C3    C12   1.484340 S    
C41   C42   1.405354 A    
C21   C22   1.402079 A    
O2    C1    1.295010 A    
C15   C16   1.418876 A    
O19   V4    1.992860 S    
C28   C29   1.406369 A    
C30   C33   1.399905 A    
C1    C41   1.491093 S    
C53   O25   1.221215 D    
C19   C20   1.421271 A    
N3    O27   1.300911 A    
C32   C39   1.403296 A    
C28   C50   1.485089 S    
N1    O22   1.301129 A    
O3    C4    1.293876 A    
N4    O31   1.301262 A    
C39   H14   1.083670 S    
C29   C30   1.404948 A    
O6    V2    1.995669 S    
O14   C50   1.296188 A    
O9    V2    2.003300 S    
C33   H10   1.083847 S    
C17   C54   1.495172 S    
C22   H6    1.083961 S    
C23   H7    1.083894 S    
O2    V1    2.006096 S    
N3    O26   1.300945 A    
C33   C34   1.397177 A    
O12   C49   1.299079 A    
C11   C16   1.402643 A    
C27   C28   1.409202 A    
C22   C23   1.392053 A    
O1    C2    1.295178 A    
C25   C52   1.494658 S    
C14   C17   1.416640 A    
C31   C36   1.416599 A    
O5    V1    2.002914 S    
O8    C3    1.298231 A    
C19   C24   1.435715 A    
C18   C19   1.433222 A    
O13   C52   1.294648 A    
C21   C26   1.397384 A    
C47   N2    1.436506 S    
O4    V1    1.999306 S    
O3    V1    2.000727 S    
V1    O10   1.702392 S    
C55   H20   1.085576 S    
C13   H4    1.080352 S    
C38   C39   1.398980 A    
C54   O28   1.220715 D    
C15   C20   1.418342 A    
C53   H18   1.085446 S    
C5    C6    1.396053 A    
O7    V2    1.709440 S    
N1    O21   1.300113 A    
O11   C50   1.297976 A    
C44   H16   1.083280 S    
O18   C51   1.299475 A    
C30   C31   1.411400 A    
C44   C45   1.404347 A    
C13   C14   1.415499 A    
C8    C9    1.421231 A    
O17   V4    1.707531 S    
C7    C8    1.422152 A    
C24   N4    1.432538 S    
C49   O16   1.295175 A    
V2    O10   2.159824 S    
