data_mof_unit_42048.cif
_audit_creation_date              2012-12-11T18:11:31-0500
_audit_creation_method            fapswitch 2.2
_symmetry_space_group_name_H-M    P1
_symmetry_Int_Tables_number       1
_space_group_crystal_system       triclinic
_cell_length_a                    8.180062
_cell_length_b                    12.662811
_cell_length_c                    18.774629
_cell_angle_alpha                 99.86943
_cell_angle_beta                  91.017422
_cell_angle_gamma                 98.539513
_cell_volume                      1892.83940227

loop_
_atom_site_label
_atom_site_type_symbol
_atom_type_description
_atom_site_fract_x
_atom_site_fract_y
_atom_site_fract_z
_atom_type_partial_charge
Ba1   Ba    Ba6+2 0.852780 0.548340 0.465070 1.632683
Ba2   Ba    Ba6+2 0.337060 0.451750 0.534940 1.630467
C1    C     C_3   0.586662 0.899643 0.253056 -0.419321
C2    C     C_3   0.633988 0.818400 0.297661 0.344507
C3    C     C_3   0.457309 0.270425 0.314575 0.308514
C4    C     C_3   0.411722 0.226664 0.234968 -0.413125
C5    C     C_3   0.069506 0.242198 0.736184 0.349915
C6    C     C_3   0.098895 0.222403 0.812782 -0.348379
C7    C     C_3   0.554659 0.182735 0.704776 0.391461
C8    C     C_3   0.579291 0.093054 0.747066 -0.131719
C9    C     C_R   0.988960 0.454815 0.047360 -0.006609
C10   C     C_R   0.901590 0.385979 0.089666 -0.064995
C11   C     C_R   0.757779 0.427040 0.955475 -0.111608
C12   C     C_3   0.128479 0.763634 0.266088 0.365066
C13   C     C_R   0.924972 0.464680 0.978114 0.020327
C14   C     C_R   0.701132 0.425471 0.885083 -0.094691
C15   C     C_R   0.808055 0.462512 0.834140 -0.026575
C16   C     C_R   0.971589 0.511742 0.857231 -0.000835
C17   C     C_R   0.029827 0.514241 0.929938 0.025342
C18   C     C_R   0.756129 0.452378 0.760856 -0.002530
C19   C     C_R   0.866521 0.489020 0.711337 -0.308173
C20   C     C_R   0.023547 0.545492 0.733496 0.031384
C21   C     C_R   0.076176 0.559098 0.807833 -0.037424
C22   C     C_R   0.151021 0.504829 0.071576 0.019312
C23   C     C_3   0.111025 0.790884 0.190789 -0.369823
C24   C     C_R   0.211117 0.498778 0.142869 -0.013165
C25   C     C_R   0.111226 0.438972 0.188909 -0.024404
C26   C     C_R   0.965344 0.370876 0.156245 0.080424
C27   C     C_R   0.228434 0.619733 0.834849 -0.031577
C28   C     C_R   0.286399 0.621841 0.905512 -0.096444
C29   C     C_R   0.192553 0.565090 0.953605 0.012199
C30   C     C_R   0.253989 0.559677 0.024638 0.021342
C31   C     C_R   0.418088 0.602876 0.049336 -0.106051
C32   C     C_R   0.373946 0.549378 0.166856 -0.034141
C33   C     C_R   0.476118 0.597712 0.118436 -0.098539
C34   C     C_3   0.230814 0.786630 0.618320 0.268479
C35   C     C_R   0.430658 0.549791 0.238419 -0.007761
C36   C     C_R   0.323500 0.505178 0.286152 -0.297024
C37   C     C_R   0.166149 0.448731 0.263608 0.036687
C38   C     C_R   0.761373 0.183648 0.532268 -0.278537
C39   C     C_R   0.429215 0.806920 0.469560 -0.285881
C40   C     C_R   0.402454 0.984235 0.445376 -0.106272
C41   C     C_R   0.338432 0.875560 0.440768 -0.014032
C42   C     C_R   0.577859 0.848000 0.509364 0.071129
C43   C     C_R   0.641438 0.960572 0.518050 -0.061482
C44   C     C_R   0.553261 0.028587 0.484022 -0.062232
C45   C     C_3   0.231327 0.908105 0.632232 -0.343709
C46   C     C_R   0.616186 0.139889 0.490938 0.046298
C47   C     C_R   0.853576 0.117434 0.562626 -0.015330
C48   C     C_R   0.791393 0.007228 0.557993 -0.094121
C49   C     C_3   0.961115 0.216184 0.386494 0.279907
C50   C     C_3   0.937736 0.093082 0.370844 -0.365197
C51   C     C_3   0.756242 0.719320 0.682765 0.329637
C52   C     C_3   0.804087 0.769952 0.761799 -0.216663
H1    H     H_    0.724693 0.861090 0.341746 0.078751
H2    H     H_    0.318075 0.946163 0.678208 0.102129
H3    H     H_    0.270903 0.942613 0.583949 0.091122
H4    H     H_    0.105611 0.926031 0.645581 0.131324
H5    H     H_    0.845205 0.244104 0.404488 0.005195
H6    H     H_    0.059167 0.245396 0.429654 0.094197
H7    H     H_    0.833271 0.062046 0.330831 0.109508
H8    H     H_    0.910885 0.059683 0.420676 0.091832
H9    H     H_    0.052137 0.065304 0.348734 0.148867
H10   H     H_    0.869739 0.701098 0.655582 0.011668
H11   H     H_    0.667335 0.643002 0.679564 0.036124
H12   H     H_    0.531675 0.963914 0.288101 0.105304
H13   H     H_    0.868657 0.854429 0.764779 0.128302
H14   H     H_    0.891025 0.723888 0.784484 0.058749
H15   H     H_    0.520556 0.785001 0.322907 -0.051274
H16   H     H_    0.494700 0.857790 0.209293 0.114598
H17   H     H_    0.347564 0.300041 0.340192 0.025483
H18   H     H_    0.561036 0.338868 0.318788 0.052604
H19   H     H_    0.300451 0.163344 0.229668 0.126477
H20   H     H_    0.384648 0.293118 0.207191 0.058341
H21   H     H_    0.515563 0.190607 0.208331 0.119744
H22   H     H_    0.697582 0.937356 0.228149 0.129692
H23   H     H_    0.149195 0.726001 0.149942 0.074283
H24   H     H_    0.145735 0.320149 0.730430 0.089613
H25   H     H_    0.937078 0.248720 0.728557 -0.025255
H26   H     H_    0.049782 0.284473 0.852217 0.076092
H27   H     H_    0.035851 0.140688 0.818633 0.127949
H28   H     H_    0.232988 0.227321 0.825369 0.143586
H29   H     H_    0.675945 0.213923 0.684594 -0.062781
H30   H     H_    0.469130 0.147628 0.657185 0.046500
H31   H     H_    0.620062 0.024834 0.709611 0.075553
H32   H     H_    0.460504 0.062985 0.770052 0.098656
H33   H     H_    0.045188 0.686619 0.268090 0.093169
H34   H     H_    0.826330 0.478448 0.655005 0.074704
H35   H     H_    0.572283 0.393921 0.871337 0.106326
H36   H     H_    0.305550 0.665888 0.801518 0.096382
H37   H     H_    0.603633 0.631881 0.132819 0.113684
H38   H     H_    0.366071 0.511253 0.341821 0.070033
H39   H     H_    0.666346 0.399694 0.991734 0.071055
H40   H     H_    0.789005 0.333702 0.068119 0.058129
H41   H     H_    0.405595 0.669972 0.920924 0.057846
H42   H     H_    0.258403 0.752347 0.275554 -0.072321
H43   H     H_    0.507172 0.640028 0.016002 0.070843
H44   H     H_    0.329107 0.033260 0.420518 0.105844
H45   H     H_    0.863921 0.959354 0.584110 0.100573
H46   H     H_    0.809406 0.268937 0.536303 0.063459
H47   H     H_    0.378400 0.721996 0.464972 0.070854
H48   H     H_    0.980442 0.798162 0.178282 0.149563
H49   H     H_    0.190681 0.868846 0.187628 0.109393
H50   H     H_    0.355677 0.769524 0.604650 0.012630
H51   H     H_    0.141823 0.751122 0.572179 0.080320
O1    O     O_2   0.873090 0.425890 0.325140 -0.462546
O2    O     O_3   0.685318 0.794017 0.650278 -0.650073
O3    O     O_3   0.084942 0.848501 0.317146 -0.600327
O4    O     O_2   0.316610 0.574140 0.674900 -0.453350
O5    O     O_3   0.067290 0.565720 0.585630 -0.500187
O6    O     O_3   0.530210 0.372990 0.631200 -0.468515
O7    O     O_3   0.187799 0.747164 0.681652 -0.646361
O8    O     O_3   0.611340 0.366290 0.463630 -0.476485
O9    O     O_3   0.108550 0.314140 0.595200 -0.486437
O10   O     O_2   0.192827 0.120804 0.551516 -0.482268
O11   O     O_3   0.113521 0.156030 0.686280 -0.600090
O12   O     O_3   0.122420 0.434370 0.414380 -0.493025
O13   O     O_3   0.578370 0.633800 0.536380 -0.480631
O14   O     O_2   0.341510 0.231850 0.465510 -0.468903
O15   O     O_3   0.505170 0.187056 0.346840 -0.650697
O16   O     O_2   0.416032 0.458212 0.756398 -0.497115
O17   O     O_3   0.483243 0.262758 0.749606 -0.610171
O18   O     O_3   0.659500 0.627100 0.368810 -0.472944
O19   O     O_2   0.772513 0.542648 0.242979 -0.490883
O20   O     O_3   0.003713 0.252949 0.322489 -0.650268
O21   O     O_3   0.707636 0.739533 0.252620 -0.599897
O22   O     O_2   0.848200 0.768190 0.534530 -0.480556
O23   O     O_3   0.081160 0.685950 0.404810 -0.487369
O24   O     O_2   0.001540 0.879909 0.451578 -0.483175
P1    P     P_3+3 0.041040 0.394770 0.336330 0.970676
P2    P     P_3+3 0.672880 0.754030 0.556100 0.969668
P3    P     P_3+3 0.127155 0.824038 0.404057 0.948826
P4    P     P_3+3 0.148670 0.605320 0.663680 0.966352
P5    P     P_3+3 0.065529 0.175672 0.598643 0.944667
P6    P     P_3+3 0.641831 0.611775 0.274854 0.949803
P7    P     P_3+3 0.522846 0.229677 0.440756 0.933771
P8    P     P_3+3 0.546715 0.389032 0.725063 0.949552
C53   C     C_3   0.653361 0.770481 0.808310 -0.420745
H52   H     H_    0.560226 0.812942 0.785885 0.153466
H53   H     H_    0.597759 0.685724 0.810604 0.124416
H54   H     H_    0.691634 0.812890 0.864196 0.114255
N1    N     N_3   0.704229 0.133147 0.805645 -0.507770
H55   H     H_    0.654297 0.185365 0.845834 0.197923
H56   H     H_    0.726241 0.066928 0.828898 0.173616
C54   C     C_3   0.894376 0.266356 0.180013 -0.353545
H57   H     H_    0.996590 0.224415 0.194433 0.128195
H58   H     H_    0.807335 0.280181 0.223674 0.155037
H59   H     H_    0.822152 0.208184 0.135391 0.071986

loop_
_geom_bond_atom_site_label_1
_geom_bond_atom_site_label_2
_ccdc_geom_bond_type
C5    O11   S    
C47   P5    S    
C8    H31   S    
C32   C35   A    
Ba1   O23   S    
O7    P4    S    
C17   C29   A    
Ba1   O18   S    
C54   H57   S    
Ba2   O13   S    
C4    H21   S    
Ba2   O4    S    
C52   C53   S    
C43   C44   A    
C42   P2    S    
C13   C17   A    
C48   H45   S    
C27   C28   A    
C10   C26   A    
C23   H23   S    
C21   C27   A    
C41   P3    S    
C35   C36   A    
C22   C24   A    
C12   H33   S    
Ba1   Ba2   S    
C3    H18   S    
C50   H7    S    
C40   H44   S    
C40   C44   A    
C36   C37   A    
C51   H10   S    
C23   H48   S    
C52   H14   S    
C38   C47   A    
C36   H38   S    
C9    C22   A    
C15   C18   A    
C34   C45   S    
O1    P1    D    
C32   C33   A    
C8    N1    S    
O16   P8    D    
C27   H36   S    
O13   P2    S    
C31   C33   A    
C9    C13   A    
O20   P1    S    
C24   C32   A    
C8    H32   S    
C25   C37   A    
C14   C15   A    
O8    P7    S    
C34   O7    S    
C35   P6    S    
C51   H11   S    
C7    C8    S    
C31   H43   S    
Ba1   O1    S    
O24   P3    D    
C12   O3    S    
C19   H34   S    
C14   H35   S    
C19   C20   A    
C39   C41   A    
C10   H40   S    
Ba1   O8    S    
O23   P3    S    
C12   H42   S    
C2    H15   S    
C54   H58   S    
Ba2   O12   S    
C4    H20   S    
O9    P5    S    
C44   C46   A    
Ba2   O6    S    
Ba2   P4    S    
C20   P4    S    
O4    P4    D    
C16   C21   A    
C49   O20   S    
C5    C6    S    
C1    H16   S    
O2    P2    S    
Ba1   P1    S    
C26   C54   S    
C16   C17   A    
C52   H13   S    
C3    O15   S    
C51   C52   S    
C50   H9    S    
C6    H27   S    
O18   P6    S    
O15   P7    S    
C18   P8    S    
C22   C30   A    
C28   H41   S    
C1    H22   S    
Ba1   O5    S    
C45   H3    S    
C51   O2    S    
C29   C30   A    
C28   C29   A    
Ba2   O14   S    
C15   C16   A    
C24   C25   A    
Ba1   O12   S    
O12   P1    S    
C53   H53   S    
C7    H29   S    
C5    H24   S    
O10   P5    D    
O21   P6    S    
C11   C13   A    
C2    H1    S    
C39   C42   A    
C6    H28   S    
C1    H12   S    
C49   H5    S    
C40   C41   A    
C7    O17   S    
C1    C2    S    
C54   H59   S    
C42   C43   A    
O6    P8    S    
C4    H19   S    
C5    H25   S    
C38   C46   A    
Ba2   O5    S    
O19   P6    D    
C34   H51   S    
C20   C21   A    
C46   P7    S    
C23   H49   S    
Ba1   O22   S    
O17   P8    S    
Ba1   P2    S    
C53   H54   S    
C38   H46   S    
C9    C10   A    
C37   P1    S    
O14   P7    D    
C2    O21   S    
C34   H50   S    
C30   C31   A    
C49   C50   S    
C3    H17   S    
C50   H8    S    
C45   H4    S    
Ba2   O9    S    
C3    C4    S    
C43   C48   A    
Ba2   O8    S    
C39   H47   S    
N1    H56   S    
Ba1   O13   S    
C12   C23   S    
O22   P2    D    
O3    P3    S    
C53   H52   S    
C7    H30   S    
O11   P5    S    
C18   C19   A    
C47   C48   A    
C11   C14   A    
C11   H39   S    
C25   C26   A    
C6    H26   S    
N1    H55   S    
O5    P4    S    
C49   H6    S    
C45   H2    S    
C33   H37   S    
