data_mof_unit_6590.cif
_audit_creation_date              2013-03-05T16:03:40-0500
_audit_creation_method            fapswitch 2.2
_symmetry_space_group_name_H-M    P1
_symmetry_Int_Tables_number       1
_space_group_crystal_system       triclinic
_cell_length_a                    14.914569
_cell_length_b                    14.178582
_cell_length_c                    19.251969
_cell_angle_alpha                 90.541921
_cell_angle_beta                  87.335546
_cell_angle_gamma                 90.275476
_cell_volume                      4066.54249425

loop_
_atom_site_label
_atom_site_type_symbol
_atom_site_description
_atom_site_fract_x
_atom_site_fract_y
_atom_site_fract_z
_atom_type_partial_charge
O1    O     O_R   0.367850 0.580280 0.500020 -0.619769
O2    O     O_R   0.632150 0.419720 0.499980 -0.612891
O3    O     O_R   0.632150 0.580280 0.499980 -0.622155
O4    O     O_R   0.367850 0.419720 0.500020 -0.610046
C1    C     C_R   0.327341 0.499884 0.501513 0.895256
C2    C     C_R   0.672658 0.500330 0.498670 0.885852
O5    O     O_R   0.499990 0.580300 0.398140 -0.611592
O6    O     O_R   0.500010 0.419700 0.601860 -0.621618
O7    O     O_R   0.500010 0.580300 0.601860 -0.613739
O8    O     O_R   0.499990 0.419700 0.398140 -0.621650
C3    C     C_R   0.499629 0.499622 0.365364 0.883725
C4    C     C_R   0.502911 0.500493 0.634410 0.889510
Zn1   Zn    Zn3+2 0.500000 0.607200 0.500000 0.956267
Zn2   Zn    Zn3+2 0.500000 0.392800 0.500000 0.957249
C5    C     C_R   0.465755 0.575495 0.252183 0.151575
C6    C     C_R   0.481652 0.426976 0.752321 0.155529
C7    C     C_R   0.563220 0.577782 0.740684 0.141806
C8    C     C_R   0.548641 0.426007 0.250641 0.157594
C9    C     C_R   0.479100 0.579739 0.180022 -0.159874
C10   C     C_R   0.493984 0.430282 0.823414 -0.154832
C11   C     C_R   0.571969 0.579574 0.812492 -0.162586
C12   C     C_R   0.559922 0.432451 0.178837 -0.150475
H1    H     H_    0.450782 0.637450 0.151861 0.158072
H2    H     H_    0.467398 0.373981 0.856193 0.157668
H3    H     H_    0.607009 0.637431 0.836762 0.154683
H4    H     H_    0.595736 0.377250 0.149956 0.158917
C13   C     C_R   0.526575 0.509046 0.143651 -0.009155
C14   C     C_R   0.537598 0.506403 0.853365 -0.005655
C15   C     C_R   0.503446 0.499517 0.288725 -0.063744
C16   C     C_R   0.515098 0.502090 0.709886 -0.065663
N1    N     N_R   0.548710 0.428862 0.032283 -0.178866
N2    N     N_R   0.534146 0.592017 0.963770 -0.169843
N3    N     N_R   0.552117 0.428139 0.963449 -0.176141
N4    N     N_R   0.530175 0.592637 0.032860 -0.174267
C17   C     C_R   0.544285 0.509511 0.928172 0.305875
C18   C     C_R   0.536601 0.510799 0.068143 0.308986
C19   C     C_R   0.818145 0.522149 0.436526 -0.043747
C20   C     C_R   0.182301 0.488451 0.566232 -0.036567
C21   C     C_R   0.768150 0.502147 0.497677 -0.089584
C22   C     C_R   0.231790 0.499706 0.503560 -0.093776
C23   C     C_R   0.807770 0.487670 0.560015 -0.258835
C24   C     C_R   0.191419 0.515070 0.441699 -0.255429
C25   C     C_R   0.900701 0.487245 0.562887 0.092017
C26   C     C_R   0.098743 0.523191 0.440543 0.090313
C27   C     C_R   0.953125 0.508058 0.501493 -0.039573
C28   C     C_R   0.046595 0.504629 0.502576 -0.043623
C29   C     C_R   0.911669 0.533773 0.439277 0.030013
C30   C     C_R   0.088279 0.480192 0.565035 0.031392
C31   C     C_R   0.941436 0.463480 0.625178 0.182989
C32   C     C_R   0.058123 0.552494 0.379453 0.186643
C33   C     C_R   0.034904 0.450246 0.623970 0.169028
C34   C     C_R   0.965039 0.568114 0.381853 0.165618
H5    H     H_    0.764388 0.472605 0.605270 0.149735
H6    H     H_    0.234408 0.525805 0.395562 0.144561
C35   C     C_R   0.559400 0.797185 0.456902 0.045130
C36   C     C_R   0.435283 0.201428 0.538234 0.045613
C37   C     C_R   0.440546 0.797419 0.543275 0.041485
C38   C     C_R   0.565530 0.200487 0.463020 0.047006
N5    N     N_R   0.500000 0.750030 0.500000 -0.153608
N6    N     N_R   0.500000 0.249970 0.500000 -0.149664
C39   C     C_R   0.434799 0.898225 0.541709 -0.053238
C40   C     C_R   0.561329 0.099986 0.456417 -0.052807
C41   C     C_R   0.565017 0.897983 0.458747 -0.054525
C42   C     C_R   0.438302 0.100722 0.544271 -0.054393
C43   C     C_R   0.499761 0.948604 0.500186 -0.012647
C44   C     C_R   0.499602 0.049697 0.500165 -0.015291
C45   C     C_R   0.368993 0.950776 0.581631 0.179710
C46   C     C_R   0.620106 0.048020 0.410151 0.187988
C47   C     C_R   0.631043 0.950206 0.419104 0.182386
C48   C     C_R   0.379896 0.049054 0.590766 0.188473
C49   C     C_3   0.408347 0.650829 0.287811 -0.862720
H7    H     H_    0.357270 0.618037 0.323914 0.229638
H8    H     H_    0.450869 0.700695 0.316605 0.262291
H9    H     H_    0.371633 0.692693 0.249871 0.226831
C50   C     C_3   0.431505 0.343177 0.724485 -0.864550
H10   H     H_    0.477512 0.298723 0.691346 0.250991
H11   H     H_    0.402964 0.297564 0.766671 0.226055
H12   H     H_    0.374729 0.367643 0.694563 0.264443
C51   C     C_3   0.609144 0.655449 0.698906 -0.851554
H13   H     H_    0.651961 0.624692 0.655785 0.238235
H14   H     H_    0.558496 0.703382 0.678094 0.260563
H15   H     H_    0.653552 0.699231 0.731066 0.224110
C52   C     C_3   0.587505 0.340793 0.284153 -0.859518
H16   H     H_    0.635364 0.364004 0.322928 0.266360
H17   H     H_    0.532900 0.297537 0.308934 0.248809
H18   H     H_    0.624947 0.294610 0.246084 0.225736
C53   C     C_1   0.774171 0.517627 0.370827 0.180886
N7    N     N_1   0.739612 0.513983 0.318282 -0.201330
C54   C     C_1   0.227715 0.499753 0.630945 0.179957
N8    N     N_1   0.263675 0.509511 0.682530 -0.204441
C55   C     C_3   0.885164 0.451934 0.692536 -0.914097
H19   H     H_    0.841410 0.514460 0.701508 0.239398
H20   H     H_    0.843208 0.387225 0.689756 0.244335
H21   H     H_    0.925887 0.447945 0.739106 0.256076
C56   C     C_3   0.114133 0.568481 0.312489 -0.917925
H22   H     H_    0.153717 0.504237 0.298898 0.240211
H23   H     H_    0.073433 0.581637 0.266912 0.256493
H24   H     H_    0.160139 0.629416 0.319017 0.241241
C57   C     C_3   0.074020 0.390633 0.680209 -0.875154
H25   H     H_    0.025952 0.334819 0.697915 0.245129
H26   H     H_    0.133982 0.351166 0.660225 0.251228
H27   H     H_    0.090906 0.435567 0.725326 0.249826
C58   C     C_3   0.926413 0.633880 0.329198 -0.873617
H28   H     H_    0.974438 0.691784 0.315921 0.244158
H29   H     H_    0.911055 0.594358 0.281108 0.251958
H30   H     H_    0.865479 0.670368 0.350808 0.246653
C59   C     C_1   0.610028 0.741778 0.405925 0.254044
N9    N     N_1   0.650632 0.697895 0.364510 -0.207179
C60   C     C_1   0.358626 0.252388 0.566651 0.262483
N10   N     N_1   0.295644 0.291067 0.589562 -0.238548
C61   C     C_1   0.389640 0.742151 0.593756 0.256329
N11   N     N_1   0.348768 0.698121 0.634571 -0.197020
C62   C     C_1   0.646693 0.248688 0.439954 0.250722
N12   N     N_1   0.713543 0.284567 0.421732 -0.220386
C63   C     C_3   0.281816 0.906758 0.609613 -0.897025
H31   H     H_    0.227441 0.959813 0.615626 0.251084
H32   H     H_    0.256711 0.853840 0.572258 0.240721
H33   H     H_    0.291002 0.875048 0.661253 0.248390
C64   C     C_3   0.662621 0.091905 0.344917 -0.907896
H34   H     H_    0.666633 0.039778 0.301459 0.252073
H35   H     H_    0.620756 0.150002 0.326372 0.237760
H36   H     H_    0.731461 0.117469 0.354334 0.252448
C65   C     C_3   0.718407 0.906569 0.391234 -0.902627
H37   H     H_    0.772899 0.959985 0.386021 0.251636
H38   H     H_    0.743133 0.854198 0.428258 0.238966
H39   H     H_    0.709694 0.874328 0.339231 0.248578
C66   C     C_3   0.337798 0.093629 0.656392 -0.909259
H40   H     H_    0.331431 0.041576 0.699112 0.252205
H41   H     H_    0.381250 0.150473 0.676350 0.238296
H42   H     H_    0.269892 0.120780 0.646745 0.250705

loop_
_geom_bond_atom_site_label_1
_geom_bond_atom_site_label_2
_geom_bond_distance
_ccdc_geom_bond_type
C48   C66   1.518181 S    
C38   C40   1.430751 A    
C53   N7    1.157103 T    
C41   C43   1.422150 A    
C34   C58   1.518658 S    
C35   N5    1.362628 A    
C6    C50   1.508283 S    
C61   N11   1.157515 T    
O3    C2    1.286569 A    
C51   H15   1.110963 S    
C56   H24   1.110549 S    
C65   H37   1.110020 S    
C21   C23   1.379618 A    
C27   C28   1.396277 A    
O5    C3    1.301275 A    
C20   C54   1.452670 S    
C52   H16   1.103503 S    
O1    C1    1.287483 A    
N1    C18   1.354308 A    
C46   C64   1.517715 S    
C32   C56   1.521442 S    
C65   H38   1.110189 S    
C47   C65   1.518200 S    
C6    C16   1.422653 A    
C63   H31   1.110169 S    
C7    C51   1.512277 S    
C27   C29   1.424505 A    
O7    Zn1   2.001295 S    
C45   C63   1.517784 S    
C5    C9    1.396052 A    
C30   C33   1.422404 A    
C41   C47   1.426284 A    
C14   C17   1.448499 S    
C46   C47   1.410326 A    
C31   C33   1.406584 A    
C35   C41   1.431437 A    
C38   C62   1.441316 S    
C32   C34   1.405492 A    
C59   N9    1.157119 T    
C36   C42   1.434778 A    
C42   C48   1.424957 A    
C19   C29   1.407163 A    
C9    C13   1.394186 A    
C20   C30   1.407848 A    
O3    Zn1   2.009359 S    
C6    C10   1.389761 A    
C22   C24   1.378824 A    
C7    C16   1.427786 A    
C23   C25   1.389743 A    
O2    C2    1.290132 A    
C24   C26   1.388786 A    
C31   C55   1.521277 S    
O7    C4    1.300536 A    
C26   C28   1.420579 A    
C5    C15   1.424201 A    
C64   H35   1.107751 S    
C33   C57   1.519142 S    
C28   C30   1.425454 A    
C40   C44   1.413603 A    
N2    C17   1.355693 A    
C10   H2    1.084397 S    
O8    Zn2   2.001298 S    
C55   H19   1.110767 S    
C51   H14   1.109632 S    
C25   C31   1.413568 A    
C65   H39   1.109536 S    
C10   C14   1.391696 A    
C63   H32   1.110175 S    
C7    C11   1.394584 A    
C36   N6    1.372699 A    
C35   C59   1.439698 S    
C42   C44   1.415230 A    
C9    H1    1.083910 S    
C50   H10   1.109508 S    
C66   H41   1.108824 S    
C55   H20   1.110345 S    
C50   H11   1.110970 S    
C39   C45   1.426611 A    
C57   H25   1.110563 S    
O6    C4    1.302029 A    
C63   H33   1.109501 S    
C52   H18   1.110924 S    
N1    N3    1.323752 A    
C8    C52   1.506071 S    
C58   H29   1.110082 S    
C8    C15   1.422888 A    
C25   C27   1.419120 A    
C23   H5    1.083115 S    
C57   H26   1.108918 S    
C11   C14   1.389650 A    
C12   C13   1.391429 A    
O1    Zn1   2.005759 S    
C66   H40   1.110713 S    
C36   C60   1.439031 S    
C58   H28   1.110719 S    
Zn2   N6    2.025128 S    
C49   H8    1.109224 S    
C62   N12   1.158422 T    
C64   H36   1.109439 S    
C26   C32   1.414497 A    
C11   H3    1.084301 S    
O6    Zn2   1.994212 S    
C4    C16   1.472696 S    
C8    C12   1.388593 A    
C19   C53   1.452324 S    
O4    C1    1.289230 A    
C49   H9    1.110922 S    
C64   H34   1.110808 S    
C56   H23   1.107647 S    
C37   C39   1.432951 A    
C29   C34   1.420387 A    
Zn1   N5    2.025127 S    
C13   C18   1.454856 S    
C5    C49   1.511569 S    
C40   C46   1.423363 A    
C45   C48   1.412416 A    
C66   H42   1.109510 S    
C49   H7    1.110450 S    
C19   C21   1.394674 A    
C60   N10   1.157388 T    
C24   H6    1.082530 S    
C55   H21   1.108092 S    
C20   C22   1.394909 A    
C37   C61   1.440514 S    
N3    C17   1.352588 A    
C58   H30   1.109940 S    
N4    C18   1.356111 A    
O4    Zn2   2.009360 S    
C52   H17   1.109790 S    
O2    Zn2   2.005757 S    
C50   H12   1.105072 S    
C37   N5    1.363200 A    
O8    C3    1.302375 A    
C51   H13   1.110729 S    
C39   C43   1.421316 A    
O5    Zn1   1.994216 S    
C57   H27   1.110014 S    
C3    C15   1.473884 S    
C43   C44   1.433367 A    
C12   H4    1.084073 S    
C1    C22   1.423810 S    
C56   H22   1.110409 S    
C2    C21   1.423574 S    
C54   N8    1.157271 T    
C38   N6    1.373597 A    
N2    N4    1.328639 A    
