data_mof_unit_35577.cif
_audit_creation_date              2012-10-26T19:58:20-0400
_audit_creation_method            fapswitch 2.2
_symmetry_space_group_name_H-M    P1
_symmetry_Int_Tables_number       1
_space_group_crystal_system       triclinic
_cell_length_a                    7.465181
_cell_length_b                    8.701396
_cell_length_c                    13.374603
_cell_angle_alpha                 94.385871
_cell_angle_beta                  77.550264
_cell_angle_gamma                 102.903221
_cell_volume                      826.563325551

loop_
_atom_site_label
_atom_site_type_symbol
_atom_type_description
_atom_site_fract_x
_atom_site_fract_y
_atom_site_fract_z
_atom_type_partial_charge
C1    C     C_R   0.546154 0.799986 0.501362 0.517805
C2    C     C_R   0.329193 0.482977 0.807549 -0.015393
C3    C     C_2   0.572673 0.967897 0.501745 -0.177875
C4    C     C_R   0.397784 0.493755 0.694781 0.519855
C5    C     C_2   0.435390 0.032866 0.487972 -0.167969
C6    C     C_R   0.456512 0.200217 0.494736 0.529629
C7    C     C_R   0.601396 0.513076 0.305992 0.549274
C8    C     C_R   0.848262 0.715578 0.059536 -0.120566
C9    C     C_R   0.661226 0.545767 0.196330 0.001476
C10   C     C_R   0.148451 0.394076 0.848337 0.246511
C11   C     C_R   0.101286 0.356516 0.951892 -0.128222
C12   C     C_R   0.411847 0.493995 0.976238 0.035703
C13   C     C_R   0.233667 0.398075 0.013645 -0.162225
C14   C     C_3   0.934779 0.877180 0.252138 0.000877
C15   C     C_3   0.062305 0.937625 0.327534 -0.352392
C16   C     C_3   0.006486 0.741045 0.638499 0.091329
C17   C     C_3   0.127595 0.795509 0.718172 -0.365911
C18   C     C_3   0.977432 0.198456 0.763113 0.006758
C19   C     C_3   0.813790 0.159703 0.708309 -0.326041
C20   C     C_R   0.449586 0.548950 0.875221 -0.005258
C21   C     C_R   0.550410 0.544413 0.037059 0.036009
C22   C     C_R   0.710782 0.663163 0.000751 0.015121
C23   C     C_R   0.727722 0.733926 0.908226 -0.119290
C24   C     C_R   0.599076 0.677163 0.846219 -0.088815
C25   C     C_R   0.532919 0.483203 0.133608 -0.173514
C26   C     C_R   0.821902 0.661311 0.158716 0.251146
Cu1   Cu    Cu3+1 0.321300 0.483160 0.488710 0.996980
Cu2   Cu    Cu3+1 0.678700 0.516840 0.511290 0.982109
H1    H     H_    0.305783 0.962829 0.471155 0.108744
H2    H     H_    0.787898 0.880362 0.291517 0.129828
H3    H     H_    0.978206 0.958000 0.186559 0.109930
H4    H     H_    0.211004 0.942256 0.289301 0.150456
H5    H     H_    0.046204 0.057905 0.356470 0.094303
H6    H     H_    0.024781 0.857971 0.393207 0.174954
H7    H     H_    0.867188 0.768649 0.666489 0.126110
H8    H     H_    0.071637 0.808288 0.568053 0.109733
H9    H     H_    0.276243 0.792888 0.685187 0.148858
H10   H     H_    0.120162 0.917644 0.745101 0.043957
H11   H     H_    0.079608 0.716947 0.784580 0.181432
H12   H     H_    0.006670 0.410289 0.406540 0.200520
H13   H     H_    0.940182 0.123353 0.831456 0.096099
H14   H     H_    0.103435 0.170402 0.709843 0.136061
H15   H     H_    0.848849 0.228790 0.637702 0.204617
H16   H     H_    0.784205 0.032025 0.687338 0.051308
H17   H     H_    0.686354 0.189081 0.759010 0.161001
H18   H     H_    0.839150 0.835159 0.884619 0.082229
H19   H     H_    0.972565 0.803842 0.030245 0.107260
H20   H     H_    0.416461 0.389744 0.163801 0.115128
H21   H     H_    0.187898 0.362314 0.092084 0.116243
H22   H     H_    0.961109 0.292904 0.984527 0.121779
H23   H     H_    0.609183 0.739672 0.777963 0.098888
H24   H     H_    0.705893 0.038448 0.514445 0.118197
N1    N     N_2   0.947230 0.542220 0.528320 0.026933
N2    N     N_2   0.052770 0.457780 0.471680 -0.196610
O1    O     O_R   0.383920 0.714220 0.492660 -0.492310
O2    O     O_3   0.988562 0.577576 0.621269 -0.382685
O3    O     O_3   0.010720 0.360337 0.790623 -0.509455
O4    O     O_R   0.685730 0.742660 0.511730 -0.536509
O5    O     O_R   0.275440 0.478800 0.636790 -0.405057
O6    O     O_R   0.577250 0.507240 0.655860 -0.490429
O7    O     O_R   0.314270 0.257340 0.488270 -0.517596
O8    O     O_R   0.616080 0.285780 0.507340 -0.520963
O9    O     O_R   0.422750 0.492760 0.344140 -0.519453
O10   O     O_R   0.724560 0.521200 0.363210 -0.479457
O11   O     O_3   0.951759 0.721919 0.219132 -0.541152

loop_
_geom_bond_atom_site_label_1
_geom_bond_atom_site_label_2
_ccdc_geom_bond_type
C2    C4    S    
Cu2   N1    S    
C16   O2    S    
C1    O4    A    
Cu2   O4    S    
C8    C26   A    
C18   O3    S    
C8    C22   A    
C14   H3    S    
C23   C24   A    
C4    O6    A    
C24   H23   S    
C18   H14   S    
C1    O1    A    
C8    H19   S    
C9    C25   A    
C15   H4    S    
C23   H18   S    
Cu1   O5    S    
N1    N2    D    
C16   H8    S    
C11   C13   A    
C25   H20   S    
C7    O9    A    
C6    O8    A    
Cu1   O9    S    
C12   C20   A    
C14   H2    S    
C13   H21   S    
Cu2   O10   S    
C6    O7    A    
C14   O11   S    
C19   H15   S    
C9    C26   A    
C5    H1    S    
C17   H10   S    
Cu2   O6    S    
C16   H7    S    
C5    C6    S    
C20   C24   A    
C3    H24   S    
Cu1   O1    S    
C7    O10   A    
Cu1   N2    S    
C10   C11   A    
C2    C20   A    
C2    C10   A    
C19   H16   S    
C10   O3    S    
C12   C13   A    
C4    O5    A    
C7    C9    S    
C18   C19   S    
C17   H11   S    
N1    O2    S    
Cu1   Cu2   S    
C11   H22   S    
C21   C25   A    
C14   C15   S    
C17   H9    S    
C15   H6    S    
C3    C5    D    
C21   C22   A    
C26   O11   S    
C12   C21   A    
C15   H5    S    
C22   C23   A    
C19   H17   S    
C18   H13   S    
H12   N2    S    
Cu2   O8    S    
C16   C17   S    
C1    C3    S    
Cu1   O7    S    
