data_mof_unit_14126.cif
_audit_creation_date              2012-12-10T20:31:10-0500
_audit_creation_method            fapswitch 2.2
_symmetry_space_group_name_H-M    P1
_symmetry_Int_Tables_number       1
_space_group_crystal_system       triclinic
_cell_length_a                    14.945128
_cell_length_b                    10.669652
_cell_length_c                    9.907533
_cell_angle_alpha                 90.215096
_cell_angle_beta                  89.011476
_cell_angle_gamma                 91.663896
_cell_volume                      1578.93889618

loop_
_atom_site_label
_atom_site_type_symbol
_atom_type_description
_atom_site_fract_x
_atom_site_fract_y
_atom_site_fract_z
_atom_type_partial_charge
C1    C     C_R   0.504925 0.259762 0.499292 0.857268
C2    C     C_R   0.908943 0.594293 0.445648 0.002172
C3    C     C_R   0.946233 0.273579 0.580261 0.623144
C4    C     C_R   0.039347 0.271871 0.581313 -0.045118
C5    C     C_R   0.090893 0.379605 0.540220 0.033264
C6    C     C_R   0.046237 0.487130 0.493782 -0.035951
C7    C     C_R   0.095281 0.595718 0.448974 0.081366
C8    C     C_R   0.051150 0.701155 0.401296 -0.020108
C9    C     C_R   0.958059 0.699743 0.399756 0.592311
C10   C     C_R   0.185442 0.385489 0.543337 0.137103
C11   C     C_R   0.231384 0.494698 0.501683 -0.056670
C12   C     C_R   0.327099 0.500053 0.500841 0.905168
C13   C     C_R   0.187870 0.597301 0.453165 -0.250094
C14   C     C_R   0.522182 0.063479 0.620678 -0.033636
C15   C     C_R   0.523832 0.128392 0.498275 -0.213567
C16   C     C_R   0.551418 0.063447 0.379453 0.109822
C17   C     C_R   0.551969 0.933291 0.382168 -0.109112
C18   C     C_R   0.528766 0.870213 0.501858 -0.211070
C19   C     C_R   0.528139 0.935999 0.623038 0.006889
C20   C     C_3   0.470041 0.920459 0.746426 0.489134
C21   C     C_3   0.459794 0.061373 0.741573 0.578221
C22   C     C_R   0.421728 0.488647 0.073093 -0.013654
C23   C     C_R   0.506673 0.739599 0.500231 0.869676
C24   C     C_R   0.575542 0.532944 0.069980 0.046955
C25   C     C_R   0.575326 0.531666 0.925829 0.681935
C26   C     C_R   0.421651 0.488855 0.931365 -0.013535
C27   C     C_3   0.352726 0.385122 0.928419 0.367095
C28   C     C_3   0.352162 0.386272 0.081888 0.403935
C29   C     C_R   0.672641 0.499490 0.498886 0.853313
C30   C     C_R   0.816417 0.595222 0.446924 -0.159576
C31   C     C_R   0.767495 0.492527 0.495986 -0.113614
C32   C     C_R   0.808295 0.383852 0.540035 0.090118
C33   C     C_R   0.902011 0.380360 0.537815 -0.000012
C34   C     C_R   0.952495 0.486981 0.492247 -0.122490
H1    H     H_    0.781620 0.676730 0.412348 0.197510
H2    H     H_    0.564191 0.882382 0.289076 0.191797
H3    H     H_    0.407577 0.863458 0.730428 0.030411
H4    H     H_    0.377273 0.297701 0.882949 0.165821
H5    H     H_    0.288423 0.416422 0.129630 0.125810
H6    H     H_    0.227300 0.678729 0.419795 0.170619
N1    N     N_R   0.499390 0.499140 0.142800 -0.107118
N2    N     N_R   0.499390 0.499180 0.857150 -0.170529
O1    O     O_R   0.500010 0.316790 0.614690 -0.612833
O2    O     O_R   0.500000 0.316760 0.385350 -0.584333
O3    O     O_R   0.367850 0.499990 0.614680 -0.572800
O4    O     O_R   0.367840 0.499950 0.385340 -0.617276
O5    O     O_R   0.500000 0.683240 0.614650 -0.582685
O6    O     O_R   0.499990 0.683210 0.385310 -0.628558
O7    O     O_R   0.632160 0.500050 0.614660 -0.541164
O8    O     O_R   0.632150 0.500010 0.385320 -0.618665
Zn1   Zn    Zn3+2 0.500010 0.500020 0.653130 1.065463
Zn2   Zn    Zn3+2 0.499990 0.499980 0.346870 1.000607
F1    F     F_    0.518973 0.882528 0.855658 -0.575891
N3    N     N_3   0.368066 0.095253 0.712549 -0.480571
H7    H     H_    0.346326 0.048855 0.625223 0.117583
H8    H     H_    0.369494 0.190371 0.690531 0.210037
F2    F     F_    0.494635 0.124485 0.852182 -0.586162
N4    N     N_3   0.654483 0.573424 0.139563 -0.379264
H9    H     H_    0.643018 0.663276 0.177295 0.207996
H10   H     H_    0.709914 0.581067 0.074155 0.239015
F3    F     F_    0.650827 0.565973 0.856363 -0.636573
F4    F     F_    0.272952 0.424861 0.876824 -0.664467
N5    N     N_3   0.754740 0.277048 0.584141 -0.331587
H11   H     H_    0.716571 0.302171 0.668828 0.237117
H12   H     H_    0.711707 0.249777 0.506604 0.170309
F5    F     F_    0.384713 0.277350 0.135128 -0.651836
F6    F     F_    0.899948 0.168694 0.621837 -0.627360
N6    N     N_3   0.079836 0.159061 0.624783 -0.461209
H13   H     H_    0.058551 0.085379 0.562106 0.231473
H14   H     H_    0.057784 0.139337 0.723392 0.248604
N7    N     N_3   0.237533 0.282707 0.585426 -0.463283
H15   H     H_    0.226913 0.206340 0.520716 0.203579
H16   H     H_    0.221022 0.260528 0.685582 0.261623
N8    N     N_3   0.100924 0.810198 0.354987 -0.444348
H17   H     H_    0.083735 0.826979 0.254941 0.239647
H18   H     H_    0.081437 0.886887 0.413339 0.223485
F7    F     F_    0.915752 0.802230 0.354495 -0.655585
N9    N     N_3   0.575629 0.124123 0.254730 -0.381059
H19   H     H_    0.623414 0.195378 0.273134 0.206799
H20   H     H_    0.518734 0.161165 0.212445 0.299166

loop_
_geom_bond_atom_site_label_1
_geom_bond_atom_site_label_2
_ccdc_geom_bond_type
C8    C9    A    
N5    H12   S    
C19   C20   S    
O1    Zn1   S    
C7    C8    A    
C29   O7    A    
C26   C27   S    
N8    H18   S    
C30   H1    S    
C14   C21   S    
C21   N3    S    
N9    H20   S    
C22   N1    A    
C3    C33   A    
C27   H4    S    
N4    H10   S    
C15   C16   A    
O4    Zn2   S    
C18   C19   A    
C13   H6    S    
N6    H13   S    
C1    O1    A    
C16   C17   A    
O7    Zn1   S    
O8    Zn2   S    
C1    C15   S    
C17   H2    S    
N1    Zn2   S    
N2    Zn1   S    
C10   N7    S    
O2    Zn2   S    
C22   C28   S    
C24   N1    A    
C17   C18   A    
C29   O8    A    
N3    H8    S    
C23   O5    A    
N8    H17   S    
C18   C23   S    
C24   C25   A    
C12   O4    A    
N7    H16   S    
N9    H19   S    
C20   F1    S    
O5    Zn1   S    
C28   H5    S    
N4    H9    S    
C6    C34   A    
C28   F5    S    
C21   F2    S    
C27   F4    S    
C1    O2    A    
C31   C32   A    
O6    Zn2   S    
C30   C31   A    
C8    N8    S    
C33   C34   A    
C25   F3    S    
C24   N4    S    
C3    C4    A    
C26   N2    A    
C4    N6    S    
N3    H7    S    
C23   O6    A    
C14   C19   A    
C3    F6    S    
C32   N5    S    
C4    C5    A    
C25   N2    A    
C11   C12   S    
C6    C7    A    
C12   O3    A    
C2    C30   A    
C32   C33   A    
C9    F7    S    
C5    C10   A    
C29   C31   S    
C20   H3    S    
C11   C13   A    
C2    C34   A    
C5    C6    A    
C16   N9    S    
C10   C11   A    
N5    H11   S    
C7    C13   A    
N7    H15   S    
C20   C21   S    
N6    H14   S    
C22   C26   A    
C27   C28   S    
O3    Zn1   S    
C14   C15   A    
C2    C9    A    
