data_mof_unit_59894.cif
_audit_creation_date              2012-12-10T20:42:44-0500
_audit_creation_method            fapswitch 2.2
_symmetry_space_group_name_H-M    P1
_symmetry_Int_Tables_number       1
_space_group_crystal_system       triclinic
_cell_length_a                    8.907315
_cell_length_b                    10.689413
_cell_length_c                    9.876959
_cell_angle_alpha                 89.022368
_cell_angle_beta                  89.993953
_cell_angle_gamma                 90.146783
_cell_volume                      940.28447415

loop_
_atom_site_label
_atom_site_type_symbol
_atom_type_description
_atom_site_fract_x
_atom_site_fract_y
_atom_site_fract_z
_atom_type_partial_charge
C1    C     C_R   0.498497 0.260316 0.501060 0.890717
C2    C     C_R   0.405560 0.422836 0.930272 0.315098
C3    C     C_3   0.238372 0.422579 0.924882 -0.521697
C4    C     C_R   0.218742 0.499975 0.499985 0.948257
C5    C     C_3   0.238896 0.420595 0.078646 -0.534702
C6    C     C_R   0.499265 0.739688 0.498511 0.926704
C7    C     C_R   0.781269 0.500094 0.500014 0.924810
C8    C     C_1   0.065424 0.500007 0.499997 -0.194360
C9    C     C_1   0.934611 0.500055 0.500004 -0.193091
C10   C     C_R   0.592786 0.061542 0.588139 0.036705
C11   C     C_R   0.499634 0.128502 0.500444 -0.103025
C12   C     C_R   0.427932 0.937923 0.389740 0.442012
C13   C     C_R   0.423998 0.067646 0.396097 -0.291079
C14   C     C_3   0.394147 0.894740 0.166141 0.128125
C15   C     C_3   0.303938 0.815744 0.068524 -0.794066
C16   C     C_2   0.483193 0.101602 0.821134 0.961819
C17   C     C_R   0.505486 0.871585 0.492444 -0.162371
C18   C     C_R   0.598063 0.934371 0.582081 0.040937
C19   C     C_3   0.624524 0.917769 0.730585 -0.522992
C20   C     C_3   0.615900 0.059855 0.738988 -0.186867
C21   C     C_R   0.406197 0.422059 0.072596 0.270578
C22   C     C_R   0.601440 0.568837 0.070641 -0.136409
C23   C     C_R   0.601469 0.568821 0.926739 -0.138905
H1    H     H_    0.355400 0.120120 0.324560 0.166935
H2    H     H_    0.192030 0.510626 0.880451 0.220107
H3    H     H_    0.514079 0.865711 0.159879 0.138870
H4    H     H_    0.383630 0.994366 0.133176 0.163246
H5    H     H_    0.184190 0.844371 0.069919 0.250599
H6    H     H_    0.348294 0.828430 0.964204 0.211873
H7    H     H_    0.312076 0.715470 0.098232 0.257946
H8    H     H_    0.258460 0.103487 0.846097 0.324774
H9    H     H_    0.193129 0.335234 0.880930 0.213411
H10   H     H_    0.191318 0.506805 0.122847 0.223245
H11   H     H_    0.195042 0.331617 0.123335 0.212678
H12   H     H_    0.532071 0.866221 0.782867 0.220178
H13   H     H_    0.738586 0.880591 0.752372 0.190169
H14   H     H_    0.724388 0.103171 0.768973 0.143444
H15   H     H_    0.680993 0.626770 0.123780 0.150900
H16   H     H_    0.681200 0.626615 0.871472 0.151782
N1    N     N_R   0.499010 0.499140 0.142800 -0.119467
N2    N     N_R   0.499010 0.499180 0.857150 -0.119366
O1    O     O_R   0.500020 0.316790 0.614690 -0.612798
O2    O     O_2   0.504719 0.157649 0.926112 -0.686184
O3    O     O_R   0.336963 0.072623 0.780387 -0.804421
O4    O     O_R   0.500000 0.316760 0.385350 -0.619140
O5    O     O_R   0.285350 0.500020 0.614650 -0.622734
O6    O     O_R   0.285340 0.499980 0.385310 -0.615762
O7    O     O_R   0.500000 0.683240 0.614650 -0.628790
O8    O     O_R   0.499980 0.683210 0.385310 -0.596256
O9    O     O_R   0.714660 0.500020 0.614690 -0.620014
O10   O     O_R   0.714650 0.499980 0.385350 -0.618208
O11   O     O_3   0.337302 0.875914 0.298517 -0.600439
Zn1   Zn    Zn3+2 0.500010 0.500020 0.653130 0.955384
Zn2   Zn    Zn3+2 0.499990 0.499980 0.346870 0.961839

loop_
_geom_bond_atom_site_label_1
_geom_bond_atom_site_label_2
_ccdc_geom_bond_type
C12   C17   A    
C14   H4    S    
C16   O3    S    
C19   C20   S    
C23   N2    A    
C16   C20   S    
C4    C8    S    
O10   Zn2   S    
N2    Zn1   S    
C5    H11   S    
C2    C21   A    
C2    C3    S    
C7    O10   A    
O1    Zn1   S    
C4    O5    A    
C14   H3    S    
C20   H14   S    
C11   C13   A    
C16   O2    D    
C1    O4    A    
C15   H5    S    
C3    H9    S    
C21   N1    A    
C6    O7    A    
C10   C18   A    
O6    Zn2   S    
C23   H16   S    
O5    Zn1   S    
C12   O11   S    
O4    Zn2   S    
C15   H6    S    
N1    Zn2   S    
C19   H13   S    
C22   C23   A    
C6    O8    A    
O7    Zn1   S    
O9    Zn1   S    
C10   C11   A    
C2    N2    A    
O8    Zn2   S    
C22   H15   S    
C5    H10   S    
C1    O1    A    
C3    H2    S    
C5    C21   S    
C12   C13   A    
C7    O9    A    
C15   H7    S    
C17   C18   A    
C18   C19   S    
H8    O3    S    
C7    C9    S    
C6    C17   S    
C22   N1    A    
C19   H12   S    
C14   C15   S    
C14   O11   S    
C13   H1    S    
C10   C20   S    
C8    C9    T    
C3    C5    S    
C4    O6    A    
C1    C11   S    
