data_mof_unit_39762.cif
_audit_creation_date              2012-12-10T20:25:40-0500
_audit_creation_method            fapswitch 2.2
_symmetry_space_group_name_H-M    P1
_symmetry_Int_Tables_number       1
_space_group_crystal_system       triclinic
_cell_length_a                    8.56514
_cell_length_b                    10.795309
_cell_length_c                    9.884386
_cell_angle_alpha                 90.830835
_cell_angle_beta                  97.271536
_cell_angle_gamma                 90.879562
_cell_volume                      906.36143067

loop_
_atom_site_label
_atom_site_type_symbol
_atom_type_description
_atom_site_fract_x
_atom_site_fract_y
_atom_site_fract_z
_atom_type_partial_charge
C1    C     C_R   0.496594 0.259981 0.498253 0.885607
C2    C     C_R   0.479274 0.930824 0.374888 -0.261668
C3    C     C_R   0.498930 0.870944 0.500214 -0.138981
C4    C     C_R   0.528244 0.939306 0.621410 0.069391
C5    C     C_3   0.449427 0.937614 0.750207 0.269731
C6    C     C_3   0.457053 0.080143 0.745254 -0.227974
C7    C     C_R   0.394600 0.428686 0.059078 0.235204
C8    C     C_R   0.614656 0.560196 0.085122 -0.130661
C9    C     C_R   0.616542 0.558067 0.941579 -0.146772
C10   C     C_R   0.395270 0.426725 0.917109 0.176333
C11   C     C_3   0.218579 0.427844 0.894952 -0.105730
C12   C     C_R   0.203009 0.512801 0.465708 0.941979
C13   C     C_3   0.220895 0.434677 0.049387 -0.499641
C14   C     C_R   0.497810 0.739516 0.500554 0.868228
C15   C     C_R   0.797907 0.509286 0.534412 0.962447
C16   C     C_2   0.043644 0.550849 0.451455 -0.004255
C17   C     C_2   0.962718 0.514146 0.550952 -0.462525
C18   C     C_R   0.533740 0.066276 0.618227 -0.005843
C19   C     C_R   0.500104 0.127472 0.494771 -0.166532
C20   C     C_R   0.475124 0.058292 0.370728 -0.005600
H1    H     H_    0.708811 0.607171 0.898358 0.160172
H2    H     H_    0.171558 0.512578 0.843017 0.173810
H3    H     H_    0.180963 0.525391 0.085690 0.189733
H4    H     H_    0.170644 0.352685 0.096244 0.220325
H5    H     H_    0.017620 0.468286 0.640207 0.166282
H6    H     H_    0.457770 0.878412 0.279584 0.171074
H7    H     H_    0.341182 0.124939 0.723749 0.131961
H8    H     H_    0.703059 0.613506 0.149025 0.136672
N1    N     N_R   0.498950 0.499140 0.142680 -0.111280
N2    N     N_R   0.498950 0.499180 0.857030 -0.121794
O1    O     O_R   0.500020 0.316790 0.614690 -0.614813
O2    O     O_R   0.500000 0.316760 0.385350 -0.600961
O3    O     O_R   0.271760 0.500010 0.587850 -0.651232
O4    O     O_R   0.271740 0.499970 0.358500 -0.623232
O5    O     O_R   0.500000 0.683240 0.614650 -0.633201
O6    O     O_R   0.499980 0.683210 0.385310 -0.641023
O7    O     O_R   0.728260 0.500030 0.641500 -0.627443
O8    O     O_R   0.728240 0.499990 0.412150 -0.614954
Zn1   Zn    Zn3+2 0.500010 0.500020 0.653130 0.924036
Zn2   Zn    Zn3+2 0.499990 0.499980 0.346870 0.940570
C21   C     C_3   0.981891 0.635511 0.334855 -0.374383
C22   C     C_3   0.090068 0.747995 0.323584 -0.913351
H9    H     H_    0.118564 0.795429 0.424342 0.253425
H10   H     H_    0.200329 0.720185 0.284589 0.278994
H11   H     H_    0.030201 0.814561 0.250494 0.250179
H12   H     H_    0.969522 0.581739 0.237363 0.205765
H13   H     H_    0.866310 0.674476 0.350170 0.230186
C23   C     C_3   0.148714 0.304763 0.831734 -0.385574
C24   C     C_3   0.973647 0.289435 0.844998 -0.825958
H14   H     H_    0.957639 0.264348 0.950886 0.265443
H15   H     H_    0.909531 0.376063 0.819660 0.278448
H16   H     H_    0.921536 0.213878 0.775317 0.247485
H17   H     H_    0.165834 0.300411 0.722322 0.213344
H18   H     H_    0.211227 0.225651 0.883084 0.215409
C25   C     C_1   0.428844 0.111253 0.238659 0.207313
N3    N     N_1   0.390275 0.151911 0.132338 -0.239954
C26   C     C_3   0.276749 0.887168 0.725320 -0.439716
C27   C     C_3   0.187289 0.907222 0.848118 -0.901400
H19   H     H_    0.239768 0.852762 0.936377 0.254117
H20   H     H_    0.188214 0.006560 0.878016 0.267938
H21   H     H_    0.063236 0.875624 0.821102 0.261746
H22   H     H_    0.211344 0.932729 0.635561 0.201690
H23   H     H_    0.274853 0.786338 0.701881 0.232405
C28   C     C_3   0.548532 0.875859 0.873821 -0.316911
C29   C     C_3   0.726941 0.873807 0.869181 -0.916340
H24   H     H_    0.754419 0.814025 0.783220 0.261401
H25   H     H_    0.776074 0.968069 0.857641 0.270043
H26   H     H_    0.785904 0.835122 0.965562 0.242266
H27   H     H_    0.525382 0.922337 0.970173 0.204911
H28   H     H_    0.506916 0.778795 0.879759 0.216624
C30   C     C_1   0.561206 0.144704 0.854837 0.242433
N4    N     N_1   0.642696 0.195536 0.941047 -0.215417

loop_
_geom_bond_atom_site_label_1
_geom_bond_atom_site_label_2
_ccdc_geom_bond_type
C7    C10   A    
O5    Zn1   S    
C21   H12   S    
C15   O8    A    
C15   C17   S    
C7    N1    A    
C28   H28   S    
C21   C22   S    
C10   N2    A    
C11   H2    S    
C19   C20   A    
C6    H7    S    
C5    C26   S    
C25   N3    T    
C24   H16   S    
C17   H5    S    
C28   C29   S    
C29   H26   S    
C27   H21   S    
C7    C13   S    
C2    C3    A    
C21   H13   S    
C5    C28   S    
C4    C18   A    
C26   H22   S    
C2    H6    S    
C28   H27   S    
C29   H24   S    
C23   H18   S    
C5    C6    S    
C11   C13   S    
C9    H1    S    
C11   C23   S    
O3    Zn1   S    
C3    C14   S    
C22   H10   S    
C9    N2    A    
C20   C25   S    
O4    Zn2   S    
C8    N1    A    
N1    Zn2   S    
C23   C24   S    
O8    Zn2   S    
O1    Zn1   S    
N2    Zn1   S    
C26   H23   S    
C27   H20   S    
C26   C27   S    
O2    Zn2   S    
C14   O6    A    
C23   H17   S    
C6    C18   S    
C27   H19   S    
C1    C19   S    
C29   H25   S    
C10   C11   S    
C12   O4    A    
C3    C4    A    
C1    O1    A    
C30   N4    T    
C13   H3    S    
C8    H8    S    
O7    Zn1   S    
C18   C19   A    
C22   H9    S    
C14   O5    A    
C24   H14   S    
C16   C17   D    
O6    Zn2   S    
C24   H15   S    
C12   O3    A    
C4    C5    S    
C2    C20   A    
C16   C21   S    
C1    O2    A    
C15   O7    A    
C12   C16   S    
C13   H4    S    
C8    C9    A    
C6    C30   S    
C22   H11   S    
